#------------------------------------------------------------------------------
#$Date: 2019-11-25 22:32:00 +0200 (Mon, 25 Nov 2019) $
#$Revision: 241968 $
#$URL: file:///home/coder/svn-repositories/cod/cif/4/13/18/4131864.cif $
#------------------------------------------------------------------------------
#
# This file is available in the Crystallography Open Database (COD),
# http://www.crystallography.net/
#
# All data on this site have been placed in the public domain by the
# contributors.
#
data_4131864
loop_
_publ_author_name
'Yan, Yong'
'O'Connor, Alice E'
'Kanthasamy, Gopikkaa'
'Atkinson, George'
'Allan, David R.'
'Blake, Alexander J.'
'Schr\"oder, Martin'
_publ_section_title
;
 Unusual and Tunable Negative Linear Compressibility in the Metal-Organic
 Framework MFM-133(M) (M = Zr, Hf).
;
_journal_issue                   11
_journal_name_full               'Journal of the American Chemical Society'
_journal_page_first              3952
_journal_page_last               3958
_journal_paper_doi               10.1021/jacs.7b11747
_journal_volume                  140
_journal_year                    2018
_chemical_formula_moiety         '0.25(C184 H136 O64 Zr12)'
_chemical_formula_sum            'C46 H34 O16 Zr3'
_chemical_formula_weight         1116.39
_space_group_crystal_system      tetragonal
_space_group_IT_number           128
_space_group_name_Hall           '-P 4 2n'
_space_group_name_H-M_alt        'P 4/m n c'
_atom_sites_solution_hydrogens   geom
_atom_sites_solution_primary     direct
_audit_creation_date             2016-08-25
_audit_creation_method
;
Olex2 1.2
(compiled 2015.01.26 svn.r3150 for OlexSys, GUI svn.r4998)
;
_cell_angle_alpha                90
_cell_angle_beta                 90
_cell_angle_gamma                90
_cell_formula_units_Z            4
_cell_length_a                   18.9092(11)
_cell_length_b                   18.9092(11)
_cell_length_c                   33.2222(18)
_cell_measurement_reflns_used    3554
_cell_measurement_temperature    293
_cell_measurement_theta_max      21.4360
_cell_measurement_theta_min      1.8860
_cell_volume                     11878.9(12)
_computing_cell_refinement       'CrysAlisPro 1.171.38.41 (Rigaku OD, 2015)'
_computing_data_collection       'CrysAlisPro 1.171.38.41 (Rigaku OD, 2015)'
_computing_data_reduction        'CrysAlisPro 1.171.38.41 (Rigaku OD, 2015)'
_computing_molecular_graphics    'Olex2 (Dolomanov et al., 2009)'
_computing_publication_material  'Olex2 (Dolomanov et al., 2009)'
_computing_structure_refinement  'ShelXL (Sheldrick, 2008)'
_computing_structure_solution    'ShelXT (Sheldrick, 2015)'
_diffrn_ambient_temperature      293
_diffrn_detector                 'CCD area detector'
_diffrn_detector_area_resol_mean 10.3310
_diffrn_detector_type            'Oxford Diffraction Atlas CCD'
_diffrn_measured_fraction_theta_full 0.713
_diffrn_measured_fraction_theta_max 0.713
_diffrn_measurement_details
;
List of Runs (angles in degrees, time in seconds):

  # Type    Start    End  Width  t~exp~   \w     \q     \k     \f   Frames
--------------------------------------------------------------------------
  1  \w   -105.00 -74.00   0.20    0.20    --   20.00  70.00 155.77  155
  2  \w   -105.00 -74.00   0.20    0.20    --   20.00  70.00 -24.23  155
  3  \w   -106.00 -66.00   0.20    0.20    --  -20.00 -70.00-155.77  200
  4  \w   -106.00 -66.00   0.20    0.20    --  -20.00 -70.00  24.23  200
  5  \w   -150.00 -94.00   0.20    0.20    --  -20.00  70.00 -24.23  280
  6  \w   -150.00 -94.00   0.20    0.20    --  -20.00  70.00 155.77  280
  7  \w    -96.00 -30.00   0.20    0.20    --   20.00 -70.00  24.23  330
  8  \w    -96.00 -30.00   0.20    0.20    --   20.00 -70.00-155.77  330
;
_diffrn_measurement_device       'k-geometry diffractometer'
_diffrn_measurement_device_type
'Newport 4-circle kappa geometry diffractometer'
_diffrn_measurement_method       'oscillation method'
_diffrn_orient_matrix_type
'CrysAlisPro convention (1999,Acta A55,543-557)'
_diffrn_orient_matrix_UB_11      0.0332303000
_diffrn_orient_matrix_UB_12      0.0006528000
_diffrn_orient_matrix_UB_13      0.0085002000
_diffrn_orient_matrix_UB_21      0.0067158000
_diffrn_orient_matrix_UB_22      -0.0331626000
_diffrn_orient_matrix_UB_23      -0.0076887000
_diffrn_orient_matrix_UB_31      0.0133582000
_diffrn_orient_matrix_UB_32      0.0150680000
_diffrn_orient_matrix_UB_33      -0.0172759000
_diffrn_radiation_collimation    '0.5 mm pinhole'
_diffrn_radiation_monochromator  'Si 111 double-crystal monochromator'
_diffrn_radiation_probe          x-ray
_diffrn_radiation_wavelength     0.6889
_diffrn_reflns_av_R_equivalents  0.1528
_diffrn_reflns_av_unetI/netI     0.1466
_diffrn_reflns_Laue_measured_fraction_full 0.713
_diffrn_reflns_Laue_measured_fraction_max 0.713
_diffrn_reflns_limit_h_max       12
_diffrn_reflns_limit_h_min       -12
_diffrn_reflns_limit_k_max       21
_diffrn_reflns_limit_k_min       -21
_diffrn_reflns_limit_l_max       36
_diffrn_reflns_limit_l_min       -36
_diffrn_reflns_number            22474
_diffrn_reflns_point_group_measured_fraction_full 0.713
_diffrn_reflns_point_group_measured_fraction_max 0.713
_diffrn_reflns_theta_full        22.775
_diffrn_reflns_theta_max         22.775
_diffrn_reflns_theta_min         1.895
_diffrn_source                   'Synchrotron U21 undulator'
_diffrn_source_type              'Synchrotron Diamond Light Source'
_exptl_absorpt_coefficient_mu    0.264
_exptl_absorpt_correction_T_max  0.4269
_exptl_absorpt_correction_T_min  0.1405
_exptl_absorpt_correction_type   multi-scan
_exptl_absorpt_process_details
;
SADABS-2008/1 (Bruker,2008) was used for absorption correction. 
wR2(int) was 0.1505 before and 0.1129 after correction. 
The Ratio of minimum to maximum transmission is 0.3291. 
The \l/2 correction factor is Not present.
;
_exptl_crystal_colour            'clear colourless'
_exptl_crystal_colour_lustre     clear
_exptl_crystal_colour_primary    colourless
_exptl_crystal_density_diffrn    0.624
_exptl_crystal_description       octahedral
_exptl_crystal_F_000             2232
_exptl_crystal_size_max          0.1
_exptl_crystal_size_mid          0.1
_exptl_crystal_size_min          0.1
_refine_diff_density_max         0.930
_refine_diff_density_min         -0.807
_refine_diff_density_rms         0.071
_refine_ls_extinction_method     none
_refine_ls_goodness_of_fit_ref   1.219
_refine_ls_hydrogen_treatment    constr
_refine_ls_matrix_type           full
_refine_ls_number_parameters     155
_refine_ls_number_reflns         3221
_refine_ls_number_restraints     272
_refine_ls_restrained_S_all      1.225
_refine_ls_R_factor_all          0.1488
_refine_ls_R_factor_gt           0.1018
_refine_ls_shift/su_max          0.000
_refine_ls_shift/su_mean         0.000
_refine_ls_structure_factor_coef Fsqd
_refine_ls_weighting_details
'w=1/[\s^2^(Fo^2^)+(0.2000P)^2^] where P=(Fo^2^+2Fc^2^)/3'
_refine_ls_weighting_scheme      calc
_refine_ls_wR_factor_gt          0.3283
_refine_ls_wR_factor_ref         0.3709
_reflns_Friedel_coverage         0.000
_reflns_number_gt                1760
_reflns_number_total             3221
_reflns_threshold_expression     'I > 2\s(I)'
_cod_data_source_file            ZrMOF_All.cif
_cod_data_source_block           35.5kbar
_cod_original_cell_volume        11878.8(16)
_cod_database_code               4131864
_chemical_oxdiff_formula         'C11 H10 N O'
_shelx_space_group_comment
;
The symmetry employed for this shelxl refinement is uniquely defined
by the following loop, which should always be used as a source of
symmetry information in preference to the above space-group names.
They are only intended as comments.
;
_reflns_odcompleteness_completeness 52.56
_reflns_odcompleteness_iscentric 1
_reflns_odcompleteness_theta     25.50
_olex2_refinement_description
;
1. Fixed Uiso
 At 1.2 times of:
  All C(H) groups
 At 1.5 times of:
  All C(H,H,H) groups
2. Restrained distances
 C9-C10 = C8_$2-C5_$2 = C13_$2-C11_$2 = C2_$2-C1_$2
 1.5 with sigma of 0.01
 C8-C11 = C9-C8 = C12-C11
 1.39 with sigma of 0.01
3. Restrained planarity
 C1_$2, C2_$2, C7_$2, C6_$2, C5_$2, C4_$2, C3_$2, C8_$2, C11, C13
 with sigma of 0.1
 C1, C2, C7, C5, C6, C4, C3, C8, C11_$2, C13_$2
 with sigma of 0.1
 C1_$2, C2_$2, C3_$2, C4_$2, C5_$2, C6_$2, C7_$2, C8_$2, C11_$3, C13_$3
 with sigma of 0.1
 C1_$3, C2_$3, C3_$3, C4_$3, C5_$3, C6_$3, C7_$3, C8_$3, C11_$2, C13_$2
 with sigma of 0.1
4. Uiso/Uaniso restraints and constraints
All non-hydrogen atoms have similar U: within 2A with sigma of 0.01 and sigma
for terminal atoms of 0.01
5. Rigid body (RIGU) restrains
 All non-hydrogen atoms
 with sigma for 1-2 distances of 0.004 and sigma for 1-3 distances of 0.004
6. Others
 Fixed Sof: H10A(0.5) H10B(0.5) H10C(0.5)
7.a Me refined with riding coordinates:
 C10(H10A,H10B,H10C)
7.b Aromatic/amide H refined with riding coordinates:
 C3(H3), C4(H4), C7(H7), C6(H6)
7.c Idealised Me refined as rotating group:
 C13(H13A,H13B,H13C)
;
_shelx_res_file
;
    35.5kbar.res created by SHELXL-2014/7

TITL 35_5kbarx in P4/mnc
CELL 0.6889 18.909153 18.909153 33.222198 90 90 90
ZERR 4 0.001132 0.001132 0.001767 0 0 0
LATT 1
SYMM -X,-Y,+Z
SYMM -Y,+X,+Z
SYMM +Y,-X,+Z
SYMM 0.5-X,0.5+Y,0.5-Z
SYMM 0.5+X,0.5-Y,0.5-Z
SYMM 0.5+Y,0.5+X,0.5-Z
SYMM 0.5-Y,0.5-X,0.5-Z
SFAC C H O Zr
DISP C 0.003 0.001 10.848
DISP H -0 0 0.623
DISP O 0.011 0.006 30.192
DISP Zr -11.605 0.551 2275.752
UNIT 184 136 64 12
EQIV $1 -0.5+Y,0.5+X,0.5-Z
EQIV $2 0.5-Y,0.5-X,0.5-Z
EQIV $3 -X,1-Y,+Z
DFIX 1.5 0.01 C9 C10 C8 C5 C13 C11 C2 C1
DFIX 1.39 0.01 C8 C11 C9 C8 C12 C11
FLAT C1_$1 C2_$1 C7_$1 C6_$1 C5_$1 C4_$1 C3_$1 C8_$1 C11 C13
FLAT C1 C2 C7 C5 C6 C4 C3 C8 C11_$1 C13_$1
FLAT C1_$2 C2_$2 C3_$2 C4_$2 C5_$2 C6_$2 C7_$2 C8_$2 C11_$3 C13_$3
FLAT C1_$3 C2_$3 C3_$3 C4_$3 C5_$3 C6_$3 C7_$3 C8_$3 C11_$2 C13_$2
SIMU 0.01 0.01 2
RIGU

L.S. 7 0 176
PLAN  20
BOND $H
MORE -1
CONF
ABIN
fmap 2
acta
REM <olex2.extras>
REM <HklSrc "%.\\35.5kbar.hkl">
REM </olex2.extras>

WGHT    0.200000
FVAR       0.10801
ZR1   4    0.123400    0.047323    0.000000    10.50000    0.05561    0.06541 =
         0.03403    0.00000    0.00000   -0.00500
ZR2   4    0.000000    0.000000    0.073515    10.25000    0.05654    0.05654 =
         0.02729    0.00000    0.00000    0.00000
O5    3   -0.033009    0.091869    0.107453    11.00000    0.11925    0.08676 =
         0.06359   -0.00828   -0.00023    0.00268
O3    3    0.174287    0.065365   -0.060358    11.00000    0.10980    0.14237 =
         0.08341    0.00002    0.00801   -0.02202
O4    3    0.038195    0.086307    0.035714    11.00000    0.09250    0.12580 =
         0.08758    0.03287    0.01322    0.01036
O1    3    0.166162    0.152313    0.000000    10.50000    0.13864    0.12313 =
         0.08654    0.00000    0.00000   -0.02996
O2    3    0.225326   -0.008721    0.000000    10.50000    0.09129    0.15826 =
         0.09030    0.00000    0.00000    0.01864
C11   1   -0.025432    0.417342    0.221222    11.00000    0.13289    0.12895 =
         0.08576   -0.02185    0.01794   -0.01212
C3    1   -0.049847    0.190679    0.168634    11.00000    0.21819    0.12083 =
         0.09112   -0.01783   -0.01255    0.03146
AFIX  43
H3    2   -0.035028    0.145103    0.174924    11.00000   -1.20000
AFIX   0
C12   1   -0.029084    0.470917    0.250000    10.50000    0.12185    0.12185 =
         0.07273   -0.01312    0.01312   -0.01063
C1    1   -0.060166    0.152518    0.097717    11.00000    0.14477    0.09596 =
         0.07602   -0.01242   -0.00602    0.01376
C4    1   -0.056868    0.240867    0.199680    11.00000    0.20631    0.12448 =
         0.10388   -0.01965   -0.00727    0.01968
AFIX  43
H4    2   -0.048020    0.228933    0.226366    11.00000   -1.20000
AFIX   0
C8    1   -0.079198    0.366700    0.221381    11.00000    0.13177    0.11937 =
         0.08546   -0.02127    0.01649   -0.01072
C13   1    0.034335    0.414188    0.191035    11.00000    0.14400    0.15414 =
         0.10744   -0.02962    0.02868   -0.01488
AFIX 137
H13A  2    0.019043    0.434475    0.166016    11.00000   -1.50000
H13B  2    0.047800    0.365810    0.186785    11.00000   -1.50000
H13C  2    0.074106    0.440278    0.201138    11.00000   -1.50000
AFIX   0
C2    1   -0.064265    0.207344    0.129570    11.00000    0.18755    0.11086 =
         0.08634   -0.01844   -0.00989    0.02471
C5    1   -0.078771    0.313093    0.188365    11.00000    0.16337    0.11977 =
         0.08853   -0.01576    0.00211    0.00439
C7    1   -0.083754    0.273765    0.120192    11.00000    0.20324    0.12226 =
         0.09777   -0.01798   -0.01305    0.02857
AFIX  43
H7    2   -0.092205    0.284879    0.093350    11.00000   -1.20000
AFIX   0
C9    1   -0.132658    0.367342    0.250000    10.50000    0.13021    0.13021 =
         0.09137   -0.01605    0.01605   -0.01829
C6    1   -0.091682    0.325923    0.148740    11.00000    0.19335    0.11737 =
         0.10211   -0.01738   -0.00961    0.02192
AFIX  43
H6    2   -0.106145    0.370808    0.140790    11.00000   -1.20000
AFIX   0
C10   1   -0.188873    0.311127    0.250000    10.50000    0.15036    0.15036 =
         0.11316   -0.01842    0.01842   -0.03090
PART -1
AFIX  33
H10A  2   -0.180346    0.278666    0.228318    10.50000   -1.50000
H10B  2   -0.187759    0.286080    0.275127    10.50000   -1.50000
H10C  2   -0.234414    0.332735    0.246555    10.50000   -1.50000
AFIX   0
HKLF 4

REM  35_5kbarx in P4/mnc
REM R1 =  0.1018 for    1760 Fo > 4sig(Fo)  and  0.1488 for all    3221 data
REM    155 parameters refined using    272 restraints

END

WGHT      0.2000      0.0000

REM Highest difference peak  0.930,  deepest hole -0.807,  1-sigma level  0.071
Q1    1   0.2664 -0.0188 -0.0184  11.00000  0.05    0.33
Q2    1   0.1819  0.1952 -0.0205  11.00000  0.05    0.33
Q3    1   0.2718 -0.0250  0.0000  10.50000  0.05    0.32
Q4    1  -0.0251  0.3763  0.2634  11.00000  0.05    0.27
Q5    1   0.0000  0.0000  0.1245  10.25000  0.05    0.26
Q6    1   0.1054  0.2174  0.0000  10.50000  0.05    0.22
Q7    1  -0.0592  0.2487  0.2523  11.00000  0.05    0.22
Q8    1  -0.0754  0.2506  0.2498  11.00000  0.05    0.22
Q9    1   0.0469  0.0575  0.0301  11.00000  0.05    0.21
Q10   1   0.2240  0.0843  0.0000  10.50000  0.05    0.21
Q11   1   0.1649  0.0813 -0.0623  11.00000  0.05    0.21
Q12   1   0.0523  0.0977  0.0743  11.00000  0.05    0.21
Q13   1  -0.0400  0.0642  0.1505  11.00000  0.05    0.20
Q14   1   0.0491  0.1135  0.0692  11.00000  0.05    0.20
Q15   1   0.2174 -0.0241  0.0000  10.50000  0.05    0.20
Q16   1   0.4330 -0.1380  0.0000  10.50000  0.05    0.19
Q17   1   0.2599  0.0242 -0.0580  11.00000  0.05    0.19
Q18   1   0.0158  0.1073  0.1811  11.00000  0.05    0.19
Q19   1   0.0928  0.1207  0.0468  11.00000  0.05    0.19
Q20   1  -0.0134  0.0808  0.1383  11.00000  0.05    0.18
;
_shelx_res_checksum              67445
_shelx_hkl_file
;
  -1   2   0   61.34   14.42
   1  -2   0   54.83   12.04
   0   2   0  706.48  157.69
   1  -3   0   20.54    4.89
  -1   3   0   20.69    4.84
   0   3   0    0.07    0.24
   0  -3   0    0.20    0.22
   0   3   0    0.24    0.22
   1   3   0   21.86    4.95
  -1  -3   0   21.76    4.37
   1   3   0   22.04    4.50
  -2  -3   0   -0.20    0.40
  -2   4   0   61.64   14.82
   2  -4   0   62.67   13.06
  -1   4   0  412.44   89.80
  -1   4   0  405.54   91.63
   0   4   0   20.06    4.18
   0  -4   0   19.27    4.76
   0   4   0   20.02    4.45
  -1  -4   0  357.32   82.68
   2   4   0   51.85   15.04
  -2  -4   0   66.00   13.15
   2  -5   0  507.44  120.74
  -2   5   0  530.23  109.49
  -1   5   0    6.00    1.47
   1  -5   0    6.00    1.42
  -1   5   0    3.81    1.30
   1  -5   0    5.10    1.15
   0   5   0    0.46    0.51
   0   5   0    0.13    0.48
   0  -5   0   -0.23    0.39
   1   5   0    5.49    1.42
   1   5   0    8.74    1.61
  -1  -5   0    5.44    1.29
   2  -6   0  281.29   60.06
   2  -6   0  249.49   55.16
  -2   6   0  245.44   59.36
   1  -6   0  390.57   95.13
  -1   6   0  407.65   89.25
   1  -6   0  358.20   76.41
   0   6   0   42.89    8.21
   0  -6   0   33.54    8.38
   3   6   0   33.77    8.79
   3   6   0   36.58    8.40
   3  -7   0  290.64   55.55
   2  -7   0  151.74   32.72
  -2   7   0  162.66   35.45
  -1   7   0   39.69    9.69
   1  -7   0   39.15    8.36
   0  -7   0    0.15    0.66
   0   7   0   -0.21    0.52
   0   7   0   -0.44    0.81
   0  -7   0    0.92    0.52
   0   7   0    0.94    0.80
   0   7   0    0.45    0.52
   1   7   0   37.49    9.77
   1   7   0   38.01    8.58
   2   7   0  164.64   42.29
   2   7   0  149.31   34.62
   3   7   0  212.34   70.14
  -4   8   0  230.46   49.29
  -3   8   0   17.20    3.78
  -3   8   0   11.33    3.96
   3  -8   0   14.67    3.52
   3  -8   0   15.73    3.45
  -2   8   0  152.13   38.27
  -2   8   0  175.32   42.54
   2  -8   0  155.86   34.09
  -1   8   0   -0.86    0.87
  -1   8   0    0.20    0.38
   1  -8   0    1.37    0.71
  -1   8   0    0.19    0.84
   1  -8   0    0.47    0.24
   0  -8   0   60.88   13.56
   0   8   0   68.09   14.34
   0  -8   0   57.59   13.73
  -1  -8   0   -0.49    0.69
   1   8   0   -0.27    1.15
   1   8   0    1.33    1.31
  -1  -8   0    2.19    0.90
  -2  -8   0  181.86   34.00
   3   8   0    9.68    4.98
   3   8   0    4.10    6.30
  -4  -8   0  273.60   38.13
   4   8   0  165.99   87.41
  -4   9   0   36.99    7.96
   3  -9   0  475.29   97.91
  -3   9   0  402.51  105.90
  -3   9   0  416.53  104.76
  -2   9   0    2.05    1.09
  -2   9   0    0.99    0.98
   2  -9   0    1.78    0.79
  -1   9   0   12.24    3.11
  -1   9   0   11.46    3.16
   1  -9   0   10.77    2.96
   0  -9   0   -0.37    0.81
   0  -9   0    0.17    0.59
   0   9   0    0.74    1.16
   0   9   0   -0.61    1.18
   1   9   0   14.02    3.31
  -1  -9   0   11.66    2.72
   1   9   0   14.49    3.79
  -1  -9   0   15.98    3.17
   2   9   0    3.14    2.21
  -2  -9   0    2.99    0.80
   2   9   0    0.93    1.91
  -3  -9   0  453.15   76.23
   4   9   0   28.19   11.66
  -4  -9   0   32.23    5.79
   4   9   0   29.84   13.89
  -5  10   0    3.60    1.23
   4 -10   0  251.01   56.54
  -3  10   0    0.87    1.01
   3 -10   0   -0.72    0.78
  -3  10   0   -0.34    1.16
  -2  10   0   65.08   15.96
  -2  10   0   79.73   17.57
   2 -10   0   73.70   15.28
  -1  10   0    6.71    2.57
  -1  10   0    9.64    2.87
   1 -10   0   11.21    2.43
   0  10   0    2.63    1.69
   0  10   0    4.16    1.66
   0 -10   0    3.38    1.10
   0 -10   0    4.54    1.27
  -1 -10   0   13.52    2.71
  -1 -10   0   10.03    2.10
   1  10   0    8.01    3.38
   1  10   0    7.09    3.02
   2  10   0   84.15   17.95
   2  10   0   82.11   23.34
   3  10   0    1.42    2.91
  -3 -10   0    1.32    0.76
   3  10   0   -2.06    2.88
  -4 -10   0  275.98   45.61
   4  10   0  226.63   87.36
   5  10   0    3.32    4.68
  -5  11   0   34.10    6.06
   4 -11   0   -0.42    0.85
  -4  11   0    1.59    1.12
  -3  11   0  101.49   21.47
  -3  11   0  110.07   21.61
   3 -11   0  104.37   19.23
  -2  11   0   21.30    5.04
   2 -11   0   21.36    3.97
  -2  11   0   20.38    4.44
  -1  11   0    3.76    1.69
  -1  11   0    3.97    1.55
   1 -11   0    5.38    1.37
   0 -11   0    0.95    0.73
   0  11   0   -1.07    1.69
   0 -11   0   -0.23    0.94
   0  11   0   -1.16    1.54
   1  11   0    0.89    2.01
   1  11   0    4.05    2.04
  -1 -11   0    3.21    1.32
  -1 -11   0    2.34    1.06
   2  11   0   14.60    6.44
   2  11   0   23.78    5.33
  -2 -11   0   15.15    3.69
  -2 -11   0   15.43    4.76
   3  11   0   69.97   25.30
   3  11   0   99.86   34.53
   4  11   0   -1.11    4.29
   4  11   0   -1.97    4.21
  -4 -11   0   -0.56    0.94
   5  11   0   -1.24   12.20
  -5  12   0    1.94    1.21
  -4  12   0   94.99   22.66
  -4  12   0  102.08   20.71
   4 -12   0  108.43   19.33
  -3  12   0    0.28    1.27
  -3  12   0   -2.10    1.45
   3 -12   0   -0.23    1.03
   2 -12   0    0.21    0.87
  -2  12   0    0.37    1.45
  -2  12   0   -1.43    1.46
   1 -12   0   27.05    5.66
  -1  12   0   23.50    5.96
   1 -12   0   26.48    5.10
  -1  12   0   14.40    5.80
   0  12   0    5.53    2.23
   0  12   0    2.72    2.52
   0 -12   0    4.88    1.45
   0 -12   0    8.71    1.90
  -1 -12   0   26.71    5.32
   1  12   0   28.53    6.33
   1  12   0   20.70    6.96
  -1 -12   0   18.94    4.42
  -2 -12   0   -1.15    0.95
  -2 -12   0   -0.31    1.43
   2  12   0    0.65    2.50
   2  12   0   -1.15    2.72
   3  12   0   -1.61    3.40
  -3 -12   0   -0.48    0.90
   3  12   0   -0.78    3.34
   4  12   0   57.68   40.20
   4  12   0   82.37   31.73
  -4 -12   0  116.43   15.15
  -5 -12   0    0.89    1.00
   5  12   0    2.27    4.93
  -6  13   0   -0.27    1.26
  -5  13   0   71.85   16.25
   4 -13   0    5.93    1.84
  -4  13   0    6.28    2.07
  -4  13   0    6.81    2.33
  -3  13   0   20.01    4.68
  -3  13   0   17.24    4.69
   3 -13   0   17.75    3.90
  -2  13   0   19.04    6.42
  -2  13   0   21.01    5.92
   2 -13   0   26.24    4.58
   1 -13   0    1.30    1.29
  -1  13   0    0.91    1.87
  -1  13   0   -1.10    1.86
   1 -13   0    1.76    0.88
   0 -13   0   -0.76    1.17
   0 -13   0    0.70    0.96
   0  13   0    0.48    1.89
   0  13   0    0.42    1.92
  -1 -13   0    0.28    1.27
   1  13   0   -0.56    2.52
   1  13   0    2.10    2.53
  -1 -13   0    2.94    0.96
   2  13   0   39.26    7.35
  -2 -13   0   20.26    5.57
  -2 -13   0   27.70    4.45
   2  13   0   12.43    8.33
  -3 -13   0   16.19    3.12
  -3 -13   0   16.88    4.72
   3  13   0   34.31    7.01
   3  13   0   11.13    8.01
   4  13   0    5.98    5.04
  -4 -13   0    7.42    1.55
  -5  14   0   14.83    3.43
  -3  14   0    1.62    1.62
   3 -14   0   -0.26    1.24
  -3  14   0   -1.03    1.75
  -2  14   0    1.79    1.92
   2 -14   0    2.11    1.08
   2 -14   0    0.27    1.28
  -2  14   0    1.48    1.93
  -1  14   0    3.37    2.39
  -1  14   0    7.77    2.74
   1 -14   0    5.48    1.79
   1 -14   0    5.62    1.59
   0  14   0    4.67    2.51
   0  14   0    5.10    2.32
   0 -14   0    0.57    1.40
   0 -14   0    2.10    1.22
   1  14   0   -2.38    2.94
  -1 -14   0    4.41    1.80
   1  14   0   15.69    3.49
  -1 -14   0    4.68    1.41
   2  14   0    2.93    3.12
  -2 -14   0    1.98    1.80
   5  14   0   -2.52    8.53
  -3  15   0   11.34    3.32
   1  15   0   -1.31    3.25
  -1 -15   0    2.31    1.19
   2  15   0    0.88    4.24
  -2 -15   0    1.69    1.71
  -2 -15   0    1.92    1.08
   2  15   0    6.56    3.97
  -3 -15   0    8.48    2.01
   3  15   0    2.77    5.55
  -3 -15   0   14.57    3.05
   3  15   0    5.45    6.37
   4  15   0    5.73    6.77
  -4 -15   0    2.80    1.32
  -4 -15   0    4.77    2.50
   4  15   0    1.07    4.68
   5  15   0    5.17    9.09
  -5 -15   0   15.10    2.65
  -3  16   0    0.80    2.01
  -2  16   0    0.46    2.20
  -2  16   0    3.10    2.22
   2 -16   0    1.22    1.31
   2 -16   0    0.29    1.26
  -1  16   0   -0.53    2.68
   1 -16   0   -0.58    1.22
   1 -16   0   -0.32    1.44
  -1  16   0   -1.22    2.41
   0 -16   0    6.61    1.57
   0 -16   0    2.83    1.79
   0  16   0    1.93    3.01
   0  16   0    2.50    3.16
  -1 -16   0   -0.96    1.56
  -1 -16   0    0.29    1.11
   1  16   0   -0.76    3.82
   1  16   0   -6.60    3.64
  -2 -16   0    0.27    0.97
   2  16   0    7.93    5.11
   2  16   0    4.09    3.70
  -2 -16   0    2.84    1.72
   3  16   0    9.22    5.49
   3  16   0    1.01    4.06
  -3 -16   0   -0.56    1.10
  -3 -16   0   -2.77    1.99
  -4 -16   0    2.24    2.23
   4  16   0   -3.15    7.35
  -4 -16   0    3.90    1.39
   4  16   0    1.30    5.97
  -5 -16   0   -1.27    1.08
   5  16   0    2.86    6.06
  -5 -16   0    1.50    2.28
  -1  17   0   11.69    4.24
  -1  17   0   13.73    4.16
   0  17   0   -0.75    3.17
   1  17   0    6.11    4.58
  -1 -17   0    8.41    2.42
   1  17   0   14.79    5.22
  -2 -17   0    7.47    2.83
  -2 -17   0    9.63    1.90
   2  17   0    3.61    4.87
   2  17   0    5.27    5.71
   3  17   0   -1.11    4.92
   3  17   0    3.64    5.81
  -3 -17   0    3.25    1.32
  -3 -17   0    5.60    2.10
   4  17   0    1.20    4.84
  -4 -17   0   -2.11    2.17
   4  17   0   -1.65    7.75
  -4 -17   0    0.97    1.06
  -5 -17   0    5.55    2.64
   5  17   0    4.23    6.32
   0  18   0   -4.65    3.42
   0  18   0   -6.11    4.10
   1  18   0   -1.68    3.66
   1  18   0    4.81    4.80
  -1 -18   0    1.30    1.18
  -1 -18   0    0.36    1.76
  -2 -18   0   -0.62    1.06
  -2 -18   0   -0.37    1.71
   2  18   0   -2.30    5.89
   2  18   0   -4.14    4.02
   3  18   0    2.16    4.38
   3  18   0   10.02    6.97
  -3 -18   0    2.77    1.98
  -3 -18   0    0.33    1.24
   4  18   0    5.16    7.68
  -4 -18   0    1.38    2.11
  -4 -18   0    0.31    1.08
   4  18   0    3.83    5.18
  -5 -18   0    1.01    2.43
   5  18   0   -1.44    7.34
  -2 -19   0    2.43    1.96
   2  19   0  -11.98    6.97
  -2 -19   0   -1.25    1.46
   2  19   0    5.06    4.35
   3  19   0    7.01    5.32
  -3 -19   0   -0.43    2.00
   3  19   0   15.04    8.47
  -4 -19   0   -2.42    1.24
   4  19   0    6.88    6.05
  -4 -19   0    1.38    2.33
   4  19   0   -1.78    8.13
  -5 -19   0   -0.51    2.32
   5  19   0   -1.51    6.41
   3  20   0   16.62    9.18
  -4 -20   0   -0.45    2.01
   4  20   0    1.41    5.78
  -4 -20   0    0.34    1.13
   5  20   0   -3.21    6.85
  -5 -20   0   -0.51    2.45
   1   1  -1    0.29    0.33
  -1   2  -1  233.62   58.23
   1  -2  -1  254.89   45.70
   1  -2  -1  178.39   48.72
  -1   2   1  237.24   56.60
  -1   2   1  255.05   49.48
   0  -2  -1   -0.08    0.10
   0   2  -1    0.06    0.14
   0   2  -1   -0.11    0.15
   0   2   1   -0.28    0.14
   0  -2   1   -0.10    0.15
   0   2   1   -0.05    0.16
   1   2  -1  298.36   48.69
   1  -3  -1   77.58   13.82
   1  -3  -1   76.66   16.90
  -1   3  -1   71.46   16.77
  -1   3   1   67.59   16.56
  -1   3   1   72.53   16.04
   0   3  -1   42.82    9.65
   0  -3  -1   40.41    9.87
   0   3   1   41.37    8.76
   0  -3   1   51.05   10.49
   1   3  -1   76.24   15.07
  -1  -3  -1   52.13   17.74
   1   3  -1   86.87   15.13
   1   3   1   79.92   17.56
   2  -4  -1  139.41   32.14
  -2   4  -1  138.79   30.85
  -2   4   1  116.91   33.76
  -2   4   1  132.28   29.44
   2  -4   1  149.26   26.98
   1  -4  -1    8.15    1.56
   1  -4  -1    8.13    1.52
   1  -4  -1    9.72    1.86
  -1   4  -1    4.87    1.87
  -1   4  -1    8.94    1.78
  -1   4   1    9.40    1.86
  -1   4   1    8.26    1.74
  -1   4   1    4.43    2.00
   1  -4   1    5.65    1.90
   0  -4  -1   -0.04    0.15
   0  -4  -1   -0.23    0.23
   0   4  -1    0.36    0.32
   0   4  -1    0.64    0.36
   0  -4  -1    0.03    0.11
   0   4   1    0.03    0.12
   0   4   1    0.22    0.20
   0  -4   1    0.18    0.27
   0   4   1   -0.23    0.38
   0   4   1   -0.10    0.30
   1   4  -1    8.39    1.79
  -1  -4  -1    7.42    1.81
   1   4  -1    5.89    1.69
   1   4   1    9.19    1.94
  -1  -4   1    7.18    1.51
   1   4   1    8.36    1.82
   2   4  -1  150.89   31.95
   2   4   1  156.34   39.98
  -3   5   1  175.31   39.19
  -2   5  -1   88.99   21.79
   2  -5  -1  104.67   19.07
  -2   5  -1   93.87   21.81
  -2   5   1   79.42   21.21
   2  -5   1   86.67   20.29
  -2   5   1  102.57   20.19
   1  -5  -1  487.24   90.19
  -1   5  -1  475.89  103.64
  -1   5  -1  445.51  101.02
   1  -5  -1  472.35   92.85
  -1   5   1  435.56   94.84
  -1   5   1  492.30  125.50
   1  -5   1  490.21  108.05
   1  -5   1  479.47  112.21
   0  -5  -1    7.85    2.21
   0   5  -1    7.38    2.52
   0  -5  -1   10.47    2.35
   0  -5  -1   11.21    2.10
   0   5  -1    9.09    2.37
   0  -5  -1    9.16    2.54
   0   5   1    9.42    2.22
   0  -5   1   12.85    2.58
   0   5   1   12.26    2.47
   0   5   1   12.37    2.28
   0   5   1    7.82    2.65
   1   5  -1  469.84  101.56
  -1  -5   1  270.52   82.32
   2   5   1  113.10   23.74
   2   5   1   98.50   30.60
  -3   6  -1    7.06    1.62
   3  -6  -1    6.68    1.87
   2  -6  -1  428.58   96.64
  -2   6   1  470.62  107.42
  -2   6   1  486.06  109.43
   1  -6  -1   11.40    2.41
   1  -6  -1   11.98    2.77
  -1   6   1   13.03    2.66
  -1   6   1   11.81    2.98
  -1   6   1    9.93    3.24
   0  -6  -1    0.23    0.42
   0  -6  -1   -0.05    0.25
   0  -6  -1    0.23    0.23
   0  -6  -1    0.13    0.51
   0   6   1   -0.58    0.76
   0   6   1    0.33    0.35
   0   6   1   -0.11    0.33
   0   6   1    0.33    0.69
  -1  -6  -1   12.54    2.82
   1   6   1   14.48    3.08
   2   6  -1  522.54  103.67
  -3  -6  -1    4.35    1.65
   3   6  -1    6.48    2.56
   3   6  -1    5.06    3.35
  -3  -6   1    6.76    1.39
  -4   7   1   85.33   16.66
  -3   7  -1    0.95    0.74
  -3   7  -1    0.27    0.81
   3  -7  -1    2.53    0.73
  -3   7   1    1.96    0.73
   3  -7   1    1.81    0.64
  -2   7   1  129.25   29.98
   2  -7   1  141.62   30.21
  -1   7  -1   21.88    4.45
  -1   7  -1   20.60    4.77
   1  -7   1   20.65    4.76
  -1   7   1   21.10    6.38
  -1   7   1   21.60    4.70
   0  -7  -1   12.98    1.88
   0  -7  -1    7.29    2.13
   0   7  -1   11.93    2.27
   0   7  -1   10.71    2.41
   0  -7   1    8.67    2.14
   0   7   1    9.59    2.42
   0   7   1   11.67    2.06
   0   7   1    8.80    2.57
  -1  -7  -1   21.66    4.44
   1   7  -1   20.63    4.80
   1   7  -1   14.50    5.48
  -1  -7  -1   19.22    3.86
   1   7   1   21.70    4.61
  -1  -7   1   19.28    4.85
   1   7   1   17.27    5.45
   3   7  -1    0.54    2.25
   3   7  -1    4.90    2.36
  -3  -7  -1    2.25    0.84
   3   7   1    0.81    2.96
   3   7   1   -1.46    2.99
  -3  -7   1    0.97    0.66
   4   7  -1   86.75   22.73
   4   7  -1   55.67   22.81
  -4   8  -1   17.43    3.44
  -4   8   1   13.59    3.62
  -3   8  -1  246.45   55.48
   3  -8  -1  222.91   48.68
  -3   8   1  253.05   54.15
  -3   8   1  228.91   52.18
   2  -8  -1   15.37    3.44
   2  -8  -1   12.93    3.06
  -2   8  -1   15.95    3.62
   2  -8   1   14.69    3.25
   2  -8   1   17.05    3.58
  -2   8   1   13.84    3.62
  -2   8   1    9.33    3.47
  -1   8  -1   -0.62    0.89
   1  -8  -1   -0.15    0.73
   1  -8  -1    0.49    0.29
  -1   8  -1   -0.22    0.89
   1  -8   1    0.82    0.73
  -1   8   1    0.19    0.83
  -1   8   1    1.71    1.18
   1  -8   1    0.23    0.20
  -1   8   1    1.17    0.51
  -1   8   1    1.48    0.77
   0   8  -1    0.46    0.99
   0  -8  -1    0.49    0.69
   0   8  -1   -0.26    0.96
   0  -8  -1   -0.20    0.34
   0  -8  -1   -0.14    0.53
   0   8   1   -0.68    0.98
   0   8   1    0.10    0.53
   0  -8   1   -0.18    0.68
   0   8   1    0.25    1.03
  -1  -8  -1    0.76    0.36
   1   8  -1    0.30    1.19
  -1  -8  -1    0.31    0.56
   1   8  -1    2.12    1.12
   1   8   1    0.89    1.21
   1   8   1    0.64    1.31
  -1  -8   1    0.15    0.55
  -1  -8   1    0.19    0.88
   2   8  -1    9.29    3.91
  -2  -8  -1   17.40    2.93
  -2  -8   1   15.93    2.84
   2   8   1   12.00    5.29
   2   8   1   14.06    4.59
  -3  -8  -1  250.32   39.12
   3   8   1  199.93   81.60
   4   8  -1    7.28    5.83
   4   8  -1   10.20    5.82
  -4  -8   1   21.48    3.12
   4   8   1    9.91    5.84
  -5   9   1   29.14    5.87
  -4   9  -1  295.24   71.52
  -4   9   1  329.67   77.04
   3  -9  -1    0.16    0.68
  -3   9  -1    0.39    0.88
   3  -9  -1    1.39    0.59
  -3   9  -1   -0.66    0.96
   3  -9   1   -0.18    0.72
  -3   9   1    0.19    0.87
  -3   9   1   -0.59    0.92
   2  -9  -1  114.93   23.73
   2  -9  -1  124.42   26.51
  -2   9  -1  109.20   28.18
  -2   9  -1   99.78   26.08
  -2   9   1  123.73   28.61
   2  -9   1  113.31   25.42
  -2   9   1  123.14   26.28
   1  -9  -1    5.08    1.28
  -1   9  -1    3.11    1.41
  -1   9  -1    6.74    1.50
  -1   9   1    5.18    1.48
   1  -9   1    2.36    1.26
  -1   9   1    4.94    1.56
   0   9  -1    1.11    1.10
   0   9  -1   -1.01    1.20
   0  -9  -1    0.79    0.60
   0  -9  -1    0.19    0.86
   0  -9   1   -0.18    0.79
   0   9   1   -0.28    1.16
   0   9   1   -0.58    1.13
   0  -9   1    1.21    0.61
  -1  -9  -1    4.96    1.09
   1   9  -1    4.88    1.61
   1   9  -1    3.44    1.99
  -1  -9  -1    2.21    1.42
  -1  -9   1    4.49    1.12
  -1  -9   1    3.56    1.44
   1   9   1    2.43    1.74
   1   9   1    8.22    2.13
  -2  -9  -1  119.47   21.28
   2   9  -1  106.87   34.66
   3   9  -1   -1.22    2.58
   3   9  -1    4.96    2.52
  -3  -9  -1   -0.74    0.82
  -3  -9   1    1.21    0.77
   3   9   1    0.72    2.67
   3   9   1   -2.03    2.67
   4   9  -1  333.85   99.11
  -4  -9   1  355.45   51.91
   5   9  -1   10.65   10.11
  -5  10   1   71.85   12.68
  -4  10  -1   11.01    2.42
   4 -10  -1    5.97    1.98
  -4  10   1   11.86    2.34
  -3  10  -1  167.71   35.23
   3 -10  -1  178.31   32.21
  -3  10  -1  163.93   37.24
   3 -10   1  158.48   33.73
  -3  10   1  184.15   35.97
  -2  10  -1    0.23    0.98
  -2  10  -1    1.52    1.03
   2 -10  -1    0.57    0.73
   2 -10   1    0.17    0.65
  -2  10   1    2.06    1.20
  -2  10   1    0.67    1.01
   1 -10  -1    3.90    1.11
  -1  10  -1    0.25    1.37
  -1  10  -1    4.54    1.46
  -1  10   1    1.40    1.27
  -1  10   1    3.05    1.39
   1 -10   1    3.21    1.14
   0  10  -1    0.34    1.17
   0 -10  -1    0.40    0.82
   0 -10  -1    0.16    0.66
   0  10  -1   -0.30    1.25
   0  10   1    1.39    1.39
   0 -10   1   -0.21    0.83
   0 -10   1    0.19    0.70
   0  10   1    0.31    1.39
  -1 -10  -1    4.04    1.39
   1  10  -1    4.46    1.82
  -1 -10  -1    2.61    0.91
   1  10  -1    3.08    1.72
  -1 -10   1    4.75    1.34
   1  10   1    7.12    2.17
   1  10   1    0.40    2.02
  -1 -10   1    3.23    1.06
  -2 -10  -1   -0.21    0.70
   2  10  -1    3.19    2.20
   2  10  -1    3.14    2.08
  -2 -10   1    0.19    0.68
  -2 -10   1   -0.26    1.08
   2  10   1    2.20    2.55
   2  10   1   -0.51    2.06
   3  10  -1  139.07   43.34
   3  10  -1  167.76   52.12
  -3 -10  -1  176.91   25.82
   3  10   1  131.59   59.13
   3  10   1  149.69   41.76
  -4 -10  -1    6.87    1.86
   4  10  -1   11.03    4.76
   4  10  -1    7.19    4.46
  -4 -10   1    7.36    1.71
   4  10   1    0.99    5.32
   5  10  -1   20.94   22.65
  -5  11  -1    1.21    1.08
  -5  11   1    0.44    1.08
  -4  11  -1  102.25   23.18
   4 -11  -1  104.45   20.43
   4 -11   1  106.67   21.22
  -4  11   1  112.93   23.84
   3 -11  -1    4.18    1.18
  -3  11  -1   -0.38    1.47
  -3  11  -1    2.39    1.30
   3 -11   1    5.88    1.08
  -3  11   1    3.68    1.42
  -3  11   1    2.46    1.40
  -2  11  -1    2.38    1.44
  -2  11  -1    1.81    1.39
   2 -11  -1    3.58    1.31
  -2  11   1    3.99    1.51
   2 -11   1    2.99    1.09
  -2  11   1    4.12    1.48
  -1  11  -1   21.13    5.26
   1 -11  -1   18.19    4.46
   1 -11  -1   14.36    4.62
  -1  11  -1   21.40    4.82
  -1  11   1   16.26    4.85
   1 -11   1   24.76    4.42
  -1  11   1   20.37    4.95
   0 -11  -1    5.73    1.27
   0  11  -1    5.90    2.12
   0  11  -1    2.32    1.86
   0 -11  -1    5.63    1.44
   0  11   1    3.26    1.83
   0 -11   1    5.71    1.26
   0 -11   1    2.49    1.44
   0  11   1    1.07    1.86
   1  11  -1   20.25    5.70
  -1 -11  -1   17.92    3.86
  -1 -11  -1   25.35    4.55
   1  11  -1   18.10    5.03
  -1 -11   1   23.11    4.12
  -1 -11   1   20.95    4.61
   1  11   1   16.43    5.80
   1  11   1   12.80    5.03
   2  11  -1    4.88    2.51
  -2 -11  -1    3.84    1.13
   2  11  -1    5.42    2.58
   2  11   1    3.12    2.80
  -2 -11   1    2.21    0.97
  -2 -11   1    4.33    1.53
   2  11   1    2.94    2.57
  -3 -11  -1    3.35    1.03
   3  11  -1   -5.08    3.15
   3  11  -1    1.39    2.76
  -3 -11   1    1.55    0.97
   3  11   1    0.71    3.20
   3  11   1    0.82    3.79
  -4 -11  -1  125.60   16.09
   4  11  -1   78.41   42.09
   4  11  -1   90.59   28.87
  -4 -11   1  110.22   17.33
   4  11   1  109.85   32.44
   4  11   1   59.78   40.05
   5  11  -1   -4.72    5.30
  -5 -11   1    0.28    0.96
  -6  12   1    2.78    1.39
  -5  12  -1   56.73   12.70
  -5  12   1   59.35   11.91
  -4  12  -1    0.85    1.34
  -4  12  -1    1.82    1.26
   4 -12  -1    2.00    1.05
  -4  12   1    2.13    1.38
   4 -12   1    2.49    0.94
  -4  12   1    1.97    1.34
  -3  12  -1   28.92    7.57
   3 -12  -1   32.33    6.72
  -3  12  -1   24.14    7.20
   3 -12   1   33.72    6.16
  -3  12   1   34.77    7.47
  -3  12   1   32.84    7.35
  -2  12  -1   12.53    4.48
   2 -12  -1   20.17    4.02
  -2  12  -1   20.23    4.52
  -2  12   1   17.15    4.56
   2 -12   1   16.92    3.70
  -2  12   1   10.91    4.84
  -1  12  -1    0.94    1.69
   1 -12  -1    3.68    1.18
   1 -12  -1    1.20    0.91
  -1  12  -1   -0.81    1.93
   1 -12   1    5.14    1.31
  -1  12   1    1.68    1.72
  -1  12   1    0.74    1.64
   1 -12   1    2.25    1.15
   0  12  -1   -0.88    1.96
   0 -12  -1    0.22    0.97
   0 -12  -1   -0.24    1.16
   0  12  -1   -2.68    2.02
   0 -12   1   -0.71    1.26
   0  12   1   -1.21    1.84
   0  12   1   -0.43    1.81
   0 -12   1   -0.85    1.05
  -1 -12  -1    2.40    1.43
  -1 -12  -1    5.84    1.16
   1  12  -1    4.79    2.27
   1  12  -1    4.16    2.46
  -1 -12   1    1.56    1.32
   1  12   1   -0.51    2.41
   1  12   1    2.03    2.23
  -1 -12   1    3.15    1.04
   2  12  -1   24.91    7.01
  -2 -12  -1   17.23    3.36
  -2 -12  -1   21.64    4.47
   2  12  -1   21.45    5.38
   2  12   1   13.92    6.06
  -2 -12   1   19.34    3.34
  -2 -12   1   17.60    4.61
   2  12   1   20.41    6.53
  -3 -12  -1   28.50    5.17
   3  12  -1   27.01   12.53
   3  12  -1   49.09    9.86
   3  12   1   16.09   12.01
  -3 -12   1   27.25    5.08
   3  12   1   19.23    9.59
  -4 -12  -1    1.07    0.92
   4  12  -1    9.50    4.16
   4  12  -1    0.95    3.99
   4  12   1   -6.02    5.40
  -4 -12   1    1.36    1.10
   4  12   1   -1.01    3.63
   5  12  -1   37.58   17.81
   5  12  -1   41.69   23.97
  -5 -12   1   77.20    8.37
   5  12   1   42.33   23.56
  -5  13  -1    4.45    2.04
  -5  13   1    8.56    2.10
  -4  13  -1   38.86    8.00
  -4  13  -1   36.86    7.78
   4 -13  -1   38.81    7.45
  -4  13   1   31.77    8.48
  -4  13   1   37.84    8.46
  -3  13  -1    0.47    1.61
   3 -13  -1    0.25    1.01
  -3  13  -1    0.29    1.34
  -3  13   1   -1.81    1.77
   3 -13   1    0.95    1.09
  -3  13   1   -0.60    1.52
  -2  13  -1   -0.90    1.72
   2 -13  -1    0.46    1.07
   2 -13  -1    1.20    0.92
  -2  13  -1   -1.29    1.53
   2 -13   1   -0.26    1.19
  -2  13   1    2.07    1.73
  -2  13   1   -1.65    1.57
   1 -13  -1   19.60    3.49
  -1  13  -1   12.92    4.26
  -1  13  -1    9.80    4.22
   1 -13  -1   18.19    3.40
   1 -13   1   16.32    3.58
   1 -13   1   17.46    3.80
  -1  13   1   15.41    4.37
  -1  13   1   14.35    4.30
   0 -13  -1    1.95    1.21
   0  13  -1    5.99    2.20
   0 -13  -1    0.77    1.29
   0  13  -1    7.79    2.17
   0  13   1    3.54    2.11
   0 -13   1    4.80    1.42
   0 -13   1    1.09    0.95
   0  13   1    1.02    2.19
  -1 -13  -1   11.49    2.87
   1  13  -1    7.36    4.82
  -1 -13  -1   11.96    3.61
   1  13  -1   10.66    4.49
   1  13   1   22.51    5.01
  -1 -13   1   17.75    3.23
  -1 -13   1   12.55    3.37
   1  13   1   16.57    5.42
   2  13  -1   -1.89    2.91
  -2 -13  -1    0.65    1.48
   2  13  -1   -0.65    2.78
  -2 -13  -1    0.25    0.91
   2  13   1   -2.98    3.18
   2  13   1   -3.17    3.83
  -2 -13   1   -1.19    0.93
  -2 -13   1   -0.29    1.31
   3  13  -1    2.36    3.58
  -3 -13  -1   -0.26    0.86
   3  13  -1    2.51    3.68
  -3 -13   1   -0.68    1.57
  -3 -13   1   -0.24    0.75
   3  13   1   -6.66    4.71
   3  13   1    4.38    3.65
  -4 -13  -1   41.67    5.53
   4  13  -1   20.04   15.26
   4  13   1   24.57   12.97
   4  13   1   18.26   15.31
  -5  14  -1   29.32    6.16
   3 -14  -1    9.97    2.50
  -3  14  -1    8.09    2.79
  -3  14  -1   10.30    3.13
  -3  14   1   12.82    3.22
  -3  14   1   10.92    3.12
   3 -14   1   13.31    2.39
   2 -14  -1    3.96    1.71
   2 -14  -1    7.51    1.52
  -2  14  -1    5.81    2.31
  -2  14  -1    3.53    2.21
   2 -14   1    6.09    1.90
  -2  14   1    5.71    2.38
  -2  14   1    4.67    2.50
  -1  14  -1    0.98    1.90
   1 -14  -1    1.09    1.39
  -1  14  -1    1.21    2.02
   1 -14  -1    0.70    0.89
   1 -14   1    1.67    1.24
   1 -14   1    1.92    0.95
  -1  14   1   -1.25    2.08
  -1  14   1    3.05    2.04
   0  14  -1   -0.51    2.01
   0 -14  -1   -1.54    1.15
   0 -14  -1    0.83    1.31
   0  14  -1    3.48    2.27
   0  14   1   -1.02    2.09
   0 -14   1    0.51    0.96
   0 -14   1   -0.54    1.27
   0  14   1    0.50    2.43
   1  14  -1    1.83    2.20
  -1 -14  -1    0.62    1.48
  -1 -14  -1    2.44    1.10
   1  14   1    2.96    2.60
  -1 -14   1    1.81    1.44
   1  14   1    2.53    2.91
  -2 -14  -1    3.34    1.80
  -2 -14  -1    5.20    1.36
   2  14   1    5.73    3.92
   2  14   1    6.04    4.20
   3  14  -1    8.15    5.54
  -3 -14  -1    6.24    2.96
   3  14   1   11.16    5.47
   5  14  -1    2.82   10.45
   5  14  -1   12.26   12.50
   5  14   1    8.31   12.13
  -5  15  -1    5.64    2.45
  -4  15  -1    5.88    3.17
  -3  15   1   -2.30    2.28
   2 -15  -1    4.06    1.72
  -2  15   1    3.84    2.32
   1 -15  -1   -1.44    1.46
  -1  15  -1   -1.41    2.29
  -1  15   1    1.59    2.07
   0  15  -1    3.01    2.78
   0 -15   1    1.69    1.27
   1  15  -1   -0.61    2.99
  -1 -15   1    0.27    1.14
  -1 -15   1    3.10    1.41
  -2 -15  -1    4.47    1.39
   2  15  -1    1.59    3.53
   2  15  -1    1.51    3.96
  -2 -15   1    6.05    2.02
   2  15   1    9.30    4.74
  -2 -15   1    3.81    1.49
  -3 -15  -1    4.02    2.04
  -3 -15  -1   -0.29    1.05
   3  15  -1   -0.91    3.61
   3  15  -1   -3.83    4.96
  -3 -15   1    1.08    0.94
   3  15   1    5.38    4.92
  -3 -15   1   -0.71    1.66
   3  15   1   -3.13    4.21
   4  15  -1    1.25    6.80
   4  15  -1   10.09    7.19
  -4 -15  -1   14.14    3.89
  -4 -15  -1   11.59    2.14
   4  15   1    7.11    7.50
  -4 -15   1   14.57    2.23
  -4 -15   1   15.97    3.57
   4  15   1   -2.90    7.80
   5  15  -1    9.39    6.92
   5  15  -1   -2.97    6.71
  -5 -15   1   11.30    1.65
   5  15   1    3.75    6.30
  -4  16  -1   -0.62    1.91
  -4  16  -1    1.46    1.80
  -3  16  -1    0.64    2.24
  -3  16  -1    1.98    2.01
   3 -16   1    0.64    1.40
  -2  16  -1    1.87    2.31
  -2  16  -1    1.75    2.22
   2 -16   1   -0.91    1.32
  -2  16   1   -2.85    2.29
   2 -16   1    0.55    1.16
  -1  16  -1    7.90    2.99
   1 -16  -1    3.26    1.98
  -1  16  -1    1.43    2.48
   1 -16  -1    6.36    1.75
   1 -16   1   10.09    2.02
  -1  16   1    2.14    3.02
  -1  16   1    7.26    3.10
   1 -16   1    3.97    1.60
   0  16  -1    5.16    2.91
   0  16  -1   -1.15    2.68
   0 -16  -1   -0.83    1.06
   0 -16  -1    0.31    1.55
   0  16   1   -1.33    3.31
   0 -16   1    0.88    1.11
   0  16   1   -0.62    2.40
   0 -16   1   -0.63    1.39
   1  16  -1    9.13    3.65
  -1 -16  -1    1.94    1.89
   1  16  -1    4.78    3.56
  -1 -16  -1    6.07    1.67
  -1 -16   1    1.00    1.96
  -1 -16   1    6.18    1.52
   1  16   1    6.25    3.86
   1  16   1    3.14    3.64
   2  16  -1    3.53    4.35
  -2 -16  -1   -0.56    1.04
  -2 -16  -1    1.82    1.76
   2  16  -1    0.83    4.03
   2  16   1    0.85    3.63
   2  16   1   -6.88    4.74
  -2 -16   1   -0.66    1.62
  -2 -16   1    1.18    1.12
  -3 -16  -1   -0.36    1.63
  -3 -16  -1    3.38    1.27
   3  16  -1   -1.10    4.78
   3  16  -1    1.97    4.05
  -3 -16   1    2.36    2.00
   3  16   1   -6.38    6.07
   3  16   1    0.98    4.03
  -3 -16   1    1.38    1.11
   4  16  -1    9.93    6.69
  -4 -16  -1    1.79    2.34
   4  16  -1    1.21    4.88
  -4 -16  -1    0.30    1.06
   4  16   1    1.52    6.39
  -4 -16   1   -0.28    1.04
   4  16   1    1.18    5.08
  -4 -16   1    1.34    1.97
   5  16  -1    7.84    6.01
  -5 -16   1    1.91    1.23
  -5 -16   1    6.87    2.83
   6  16  -1   -1.56    6.34
  -3  17  -1    3.16    2.44
  -2  17  -1    2.07    2.74
  -2  17  -1    1.52    2.57
   2 -17   1    0.94    1.35
   2 -17   1    3.84    1.46
  -1  17  -1    1.33    2.64
  -1  17  -1   -1.65    2.87
   0  17  -1    1.98    3.49
   0  17  -1    2.93    3.28
   0  17   1    1.41    3.27
   1  17  -1    2.29    3.20
  -1 -17  -1   -0.30    1.07
   1  17  -1   -4.06    4.23
   1  17   1    2.30    3.24
   1  17   1    1.89    4.17
  -1 -17   1    0.29    1.21
  -2 -17  -1    1.46    1.08
  -2 -17  -1    2.81    1.72
   2  17  -1   -1.04    5.23
   2  17  -1    1.90    4.24
   2  17   1    4.58    4.03
   2  17   1    2.34    5.49
  -2 -17   1    2.23    1.90
  -2 -17   1    0.59    1.23
   3  17  -1    1.23    5.50
  -3 -17  -1    0.89    1.09
  -3 -17  -1   -2.79    2.00
   3  17  -1   -1.09    4.78
  -3 -17   1    1.72    1.06
  -3 -17   1    2.78    2.09
   3  17   1    4.27    6.91
   3  17   1    7.38    4.70
  -4 -17  -1    2.26    2.25
   4  17  -1   -3.15    7.36
  -4 -17  -1    2.30    1.17
   4  17  -1   -2.47    5.50
  -4 -17   1    0.62    1.02
   4  17   1    3.65    5.31
  -4 -17   1    1.71    1.89
   5  17  -1    1.57    6.89
  -5 -17  -1    0.49    2.34
  -5 -17   1    0.50    2.28
   5  17   1    2.66    5.41
  -5 -17   1   -0.62    1.08
  -6 -17   1   -0.56    2.67
  -1  18  -1    8.23    3.25
  -1  18  -1    1.52    3.19
   1 -18   1    0.68    1.48
   0  18  -1   -0.74    3.56
   0  18  -1    0.79    3.09
   0 -18   1   -2.16    1.54
   0 -18   1    1.85    1.17
   1  18  -1    2.53    3.79
   1  18  -1    9.51    4.58
  -1 -18   1    1.82    1.93
  -1 -18   1    2.20    1.43
   1  18   1   -1.09    5.62
  -2 -18  -1    2.13    1.08
  -2 -18  -1    3.41    1.79
   2  18  -1    5.60    5.51
   2  18  -1   -1.92    4.00
   2  18   1    7.64    6.29
  -2 -18   1   -0.61    1.09
  -2 -18   1    1.13    1.82
   2  18   1   -3.15    4.48
   3  18  -1    4.44    4.91
  -3 -18  -1   -3.04    2.09
  -3 -18  -1   -0.33    1.20
   3  18  -1   -5.21    6.71
  -3 -18   1   -0.62    1.09
  -3 -18   1    1.18    1.79
   3  18   1    1.10    4.27
   3  18   1   -1.64    7.36
   4  18  -1   -3.98    5.56
  -4 -18  -1   -0.46    1.90
   4  18  -1   -1.72    7.62
  -4 -18  -1   -0.33    1.08
  -4 -18   1    5.42    2.22
   4  18   1   -1.29    5.62
  -4 -18   1    3.09    1.27
  -5 -18  -1    3.13    2.39
   5  18  -1   -2.87    6.54
  -5 -18   1   -3.78    2.38
   5  18   1    1.57    7.01
  -5 -18   1   -1.59    1.15
   0  19  -1   -4.84    5.12
   1  19  -1   -7.03    5.54
   1  19  -1    0.96    4.25
  -1 -19   1   -2.38    1.62
   2  19  -1    2.02    4.58
   2  19  -1    1.18    5.92
  -2 -19   1   -1.97    1.93
  -2 -19   1   -1.60    1.31
   3  19  -1   -2.76    6.79
   3  19  -1    5.12    5.49
   3  19   1    2.42    5.18
  -3 -19   1    1.70    1.97
   3  19   1    3.62    8.24
  -3 -19   1    0.35    1.23
   4  19  -1   -3.99    5.76
   4  19  -1   -3.65    8.41
  -4 -19  -1   -0.46    2.05
  -4 -19  -1   -1.01    1.15
   4  19   1   -9.76    5.90
  -4 -19   1   -1.03    1.15
  -4 -19   1   -0.48    2.37
  -5 -19  -1    0.47    2.09
   5  19  -1   -3.02    6.69
  -5 -19   1    0.52    2.47
  -5 -19   1   -0.34    1.11
   5  19   1   -1.43    5.87
   2  20  -1    1.08    4.57
   2  20  -1   -4.16    6.80
   3  20  -1   -3.28    7.07
   3  20  -1   -2.45    5.27
  -3 -20   1   -0.44    2.06
  -3 -20   1    1.30    1.19
   4  20  -1    1.86    7.99
   4  20  -1   -7.19    6.60
  -4 -20   1    1.35    1.20
  -4 -20   1    1.92    2.06
  -5 -20  -1   -2.53    2.50
   5  20  -1   -3.28    6.53
  -5 -20   1   -2.00    2.33
   5  20   1    5.94    6.46
   0   1  -2    0.04    0.08
   1   0  -2    0.04    0.08
   0   1  -2    0.05    0.10
  -1   0   2   -0.08    0.10
   0  -1   2    0.07    0.07
   0  -1   2   -0.06    0.07
   1  -1  -2  883.71  208.61
   1  -1  -2  906.34  187.61
  -1   2  -2   16.66    4.99
   1  -2  -2   18.37    3.61
  -1   2   2   20.33    4.50
   1  -2   2   18.00    4.12
   0  -2  -2  166.41   37.46
   0  -2   2  161.93   38.53
   0   2   2  145.04   40.35
   0   2   2  201.31   33.89
   1   2  -2   15.75    3.97
   1   2  -2   21.56    3.61
  -2   1   2   19.62    5.59
   2  -2  -2   32.94    7.51
   2   2  -2   44.32    8.97
   2  -2  -2   36.46    8.29
  -2   2   2   35.89    8.58
   2  -3  -2  172.79   33.58
   2  -3  -2  163.64   34.66
  -2   3   2  169.20   41.12
  -2   3   2  172.79   40.74
   1  -3  -2    4.83    0.87
  -1   3  -2    3.57    1.14
  -1   3  -2    3.20    1.04
   1  -3  -2    3.16    1.06
   1  -3  -2    4.51    0.81
  -1   3   2    5.01    1.14
  -1   3   2    3.99    1.02
   1  -3   2    5.37    0.98
  -1   3   2    4.48    1.07
   0   3  -2    0.18    0.22
   0  -3  -2    0.17    0.19
   0  -3  -2    0.13    0.15
   0  -3  -2    0.07    0.11
   0   3  -2    0.34    0.26
   0  -3   2   -0.07    0.19
   0   3   2    0.08    0.23
   0   3   2    0.13    0.21
   0   3   2    0.35    0.30
  -1  -3  -2    6.06    1.45
   1   3  -2    6.13    1.14
   2   3  -2  146.18   33.99
  -2   4  -2   83.67   19.94
   2  -4  -2   82.98   16.71
   2  -4   2   88.89   17.49
  -2   4   2   84.69   21.11
  -2   4   2   82.86   21.43
  -1   4  -2   -0.13    0.37
   1  -4  -2    1.72    0.32
  -1   4  -2    0.19    0.34
   1  -4  -2    0.67    0.20
   1  -4  -2    0.65    0.29
   1  -4   2    0.95    0.34
  -1   4   2    0.85    0.34
  -1   4   2    0.54    0.37
  -1   4   2    0.36    0.30
   0  -4  -2    6.60    1.42
   0  -4  -2    5.23    1.52
   0   4  -2    6.35    1.53
   0  -4  -2    6.19    1.36
   0   4  -2    7.50    1.53
   0   4   2    6.75    1.45
   0  -4   2    9.26    1.73
   0   4   2    5.81    1.91
   0   4   2    5.06    1.35
   1   4  -2    1.65    0.47
   1   4  -2    0.31    0.43
  -1  -4  -2    0.40    0.36
   1   4   2    0.26    0.79
   1   4   2    0.95    1.05
  -1  -4   2    0.19    0.32
   3  -5  -2   36.31    8.63
  -3   5   2   39.65    8.65
   2  -5  -2  288.10   57.50
  -2   5  -2  296.63   70.35
   2  -5  -2  285.44   54.37
   2  -5  -2  289.88   58.36
  -2   5   2  249.91   62.73
  -2   5   2  257.40   77.53
   1  -5  -2    9.35    1.64
  -1   5  -2    8.45    2.17
   1  -5  -2    9.13    2.25
   1  -5  -2    8.42    1.98
  -1   5  -2    9.17    2.26
  -1   5   2    9.29    2.29
  -1   5   2    9.06    2.21
  -1   5   2    9.91    2.24
   1  -5   2    8.93    2.30
   0  -5  -2    0.05    0.18
   0  -5  -2    0.26    0.26
   0   5  -2    0.47    0.53
   0   5  -2    0.14    0.51
   0  -5  -2   -0.17    0.26
   0   5   2   -0.09    0.35
   0   5   2   -0.14    0.47
   0   5   2   -0.41    0.56
   0  -5   2    0.12    0.42
   1   5  -2    8.52    2.36
  -1  -5  -2   11.83    2.12
   1   5   2    8.69    2.62
   1   5   2   10.49    2.59
   3  -6  -2  261.68   52.97
   3  -6  -2  232.00   52.04
  -3   6   2  241.10   57.53
   2  -6  -2   19.12    4.55
   2  -6  -2   21.53    4.91
   2  -6  -2   25.28    4.54
  -2   6   2   24.59    5.05
  -2   6   2   16.13    5.01
  -2   6   2   17.83    6.14
   1  -6  -2   19.91    4.04
   1  -6  -2   23.51    4.24
  -1   6   2   16.33    5.18
  -1   6   2   19.29    5.66
  -1   6   2   20.23    4.94
   0   6  -2   11.01    2.05
   0  -6  -2    6.47    1.79
   0  -6  -2   10.06    2.14
   0  -6  -2    7.89    1.83
   0  -6  -2    8.26    1.60
   0   6   2    7.61    1.93
   0   6   2    8.43    2.13
   0   6   2    7.18    2.13
   0   6   2    8.80    2.37
   1   6  -2   21.86    4.76
  -1  -6   2   19.29    4.50
   1   6   2   21.05    5.75
   2   6  -2   16.53    5.74
   2   6  -2   20.00    5.14
  -2  -6   2   20.87    4.10
   4   6  -2    9.17    5.31
  -4  -6   2   11.48    2.44
  -4   7   2    0.80    0.65
   3  -7  -2   39.34    8.34
  -3   7  -2   43.57    9.63
   2  -7  -2    8.27    1.46
  -2   7  -2    7.71    1.93
  -2   7  -2    7.10    2.01
  -2   7   2    5.86    2.48
   2  -7   2    6.54    1.75
  -1   7  -2    0.17    0.67
   1  -7  -2    0.05    0.27
  -1   7  -2    0.42    0.72
   1  -7  -2    0.18    0.38
   1  -7   2    0.16    0.54
  -1   7   2    0.37    0.48
  -1   7   2   -0.27    0.74
   0   7  -2    0.38    0.70
   0  -7  -2    0.56    0.34
   0  -7  -2    0.07    0.29
   0   7  -2   -0.21    0.69
   0  -7   2   -0.58    0.62
   0   7   2   -0.47    0.43
   0   7   2   -0.14    0.55
   1   7  -2   -0.23    0.86
   1   7  -2    1.05    0.91
  -1  -7  -2    0.59    0.52
  -1  -7  -2    0.18    0.44
   1   7   2   -0.91    1.30
  -1  -7   2   -0.71    0.72
  -1  -7   2    0.67    0.49
   2   7  -2    7.13    2.18
  -2  -7  -2    5.14    1.61
   2   7  -2    5.66    2.34
   2   7   2    7.47    3.09
  -2  -7   2    7.34    1.57
   2   7   2    5.23    3.03
  -3  -7  -2   46.76    8.39
   3   7  -2   43.76   12.71
   3   7  -2   42.31   10.56
  -3  -7   2   40.96    7.34
   3   7   2   13.72   15.50
   4   7  -2   -0.82    3.29
   4   7  -2    3.19    2.62
  -4  -7   2    2.25    0.85
  -4   8  -2  215.03   51.98
  -4   8   2  213.13   49.61
  -3   8  -2   20.56    4.15
   3  -8  -2   23.81    3.67
  -3   8  -2   14.90    4.28
   3  -8  -2   15.29    3.90
  -3   8   2   18.57    4.17
  -3   8   2   18.37    3.99
   3  -8   2   12.33    4.08
  -1   8  -2    0.47    0.92
   1  -8  -2    1.74    0.47
   1  -8  -2    0.39    0.66
  -1   8  -2    0.19    0.94
   1  -8  -2    0.88    0.78
  -1   8   2    2.77    1.03
   1  -8   2    0.67    0.78
  -1   8   2    1.89    1.07
  -1   8   2    1.90    0.75
  -1   8   2    5.05    1.20
   0  -8  -2   17.13    3.80
   0  -8  -2   16.80    2.97
   0  -8  -2   14.06    3.17
   0   8  -2   13.74    3.87
   0   8  -2   15.94    3.97
   0   8   2   12.44    4.04
   0   8   2   17.51    4.76
   0   8   2   14.82    3.61
   0   8   2   16.53    5.01
   0  -8   2   17.12    3.50
  -1  -8  -2    0.64    0.63
   1   8  -2    1.99    1.41
   1   8  -2    0.76    1.19
  -1  -8  -2    2.34    0.61
  -1  -8   2    2.85    0.67
  -1  -8   2    1.82    0.94
   1   8   2    1.33    1.46
   1   8   2   -0.65    1.30
   3   8  -2   15.78    6.27
  -3  -8  -2   17.29    3.41
   3   8  -2   18.65    5.00
   3   8   2    4.92    6.71
   3   8   2   16.49    6.38
  -3  -8   2   15.43    3.31
   4   8  -2  216.11   60.59
  -4  -8   2  267.16   41.49
   5   8  -2   59.05   14.81
  -5   9   2   72.84   16.44
  -4   9  -2    4.80    1.49
  -4   9   2    4.32    1.45
  -3   9  -2  183.95   39.53
   3  -9  -2  158.41   31.94
   3  -9  -2  169.38   34.68
  -3   9   2  187.41   39.04
  -3   9   2  181.00   36.70
  -2   9  -2    0.30    0.97
   2  -9  -2    0.84    0.39
   2  -9  -2    0.17    0.70
  -2   9  -2    1.26    1.05
  -2   9   2    1.48    0.94
   2  -9   2    0.59    0.82
  -2   9   2    1.00    0.93
  -1   9  -2   -1.38    1.01
   1  -9  -2    0.82    0.80
  -1   9  -2    2.17    1.05
   1  -9  -2    0.65    0.68
   1  -9  -2    0.40    0.36
   1  -9  -2    0.16    0.60
  -1   9   2    2.02    1.03
  -1   9   2    0.23    1.08
   1  -9   2   -0.38    0.80
   0   9  -2    0.27    1.17
   0   9  -2    0.59    1.09
   0  -9  -2    0.18    0.78
   0  -9  -2    0.16    0.52
   0  -9  -2   -0.56    0.46
   0  -9   2   -0.39    0.87
   0   9   2   -0.57    1.21
   0   9   2   -1.02    1.22
   1   9  -2    0.68    1.39
  -1  -9  -2   -0.17    0.63
   1   9  -2   -0.31    1.31
   1   9   2   -2.25    1.83
  -1  -9   2    1.39    0.92
   1   9   2   -1.12    1.50
  -1  -9   2    1.50    0.66
   2   9  -2   -1.11    1.60
   2   9  -2    0.46    1.80
  -2  -9  -2    0.60    0.72
   2   9   2    6.94    2.21
   2   9   2    3.35    2.43
  -2  -9   2    1.08    0.71
   3   9  -2  173.16   56.54
   3   9  -2  166.35   41.12
  -3  -9  -2  190.59   30.41
   3   9   2  138.35   63.67
   3   9   2  154.95   52.15
   4   9  -2    4.59    3.58
   4   9  -2    7.62    3.60
   4   9   2    8.18    4.39
  -4  -9   2    4.11    1.11
   5   9  -2   43.44   27.59
  -5  -9   2   83.19   11.77
  -5  10   2   31.76    6.17
  -4  10  -2   78.06   19.92
   4 -10  -2  120.72   17.13
  -3  10  -2   19.83    5.04
   3 -10  -2   23.77    4.58
  -3  10  -2   16.09    4.99
   3 -10   2   23.52    4.56
  -3  10   2   20.89    5.02
  -3  10   2   21.19    5.05
  -2  10  -2   14.79    3.46
  -2  10  -2   11.48    3.24
   2 -10  -2   14.39    3.30
  -2  10   2   17.23    3.44
  -2  10   2    9.63    3.45
   2 -10   2   12.46    3.32
   1 -10  -2    0.95    0.82
  -1  10  -2    0.95    1.10
   1 -10  -2    1.10    0.73
  -1  10  -2   -0.27    1.11
  -1  10   2    0.84    1.14
   1 -10   2   -0.64    0.98
  -1  10   2    0.81    1.20
   0 -10  -2   11.88    2.93
   0  10  -2   14.00    3.65
   0 -10  -2   17.74    2.73
   0  10  -2    9.63    3.27
   0 -10   2    9.89    2.92
   0 -10   2    9.08    2.95
   0  10   2   19.42    3.52
   0  10   2   12.56    3.49
  -1 -10  -2    0.70    1.10
   1  10  -2    2.35    1.71
   1  10  -2   -0.34    1.44
  -1 -10  -2    0.37    0.74
  -1 -10   2    0.17    0.60
   1  10   2   -0.39    1.41
   1  10   2   -0.42    1.92
  -1 -10   2    1.18    1.01
  -2 -10  -2   13.92    2.49
   2  10  -2   15.59    4.47
   2  10  -2   15.77    4.07
  -2 -10   2   12.27    3.38
  -2 -10   2   13.86    2.63
   2  10   2    9.26    4.44
   2  10   2   17.56    5.06
  -3 -10  -2   19.05    3.81
   3  10  -2   16.17    7.51
   3  10  -2   16.33    5.99
  -3 -10   2   20.53    3.85
   3  10   2   20.43    8.19
   3  10   2   30.79    7.92
   4  10  -2  105.69   32.64
   4  10  -2  102.35   23.95
   4  10   2   61.28   33.48
   5  10  -2   11.73   12.37
   5  10  -2   28.43    9.68
  -6  11   2    4.19    1.42
  -5  11  -2   80.81   13.90
  -5  11   2   69.39   14.33
   4 -11  -2    0.95    0.78
  -4  11  -2    0.25    1.12
   4 -11   2    0.88    0.82
  -4  11   2    0.23    1.11
  -4  11   2   -1.10    1.12
   3 -11  -2   16.49    4.14
  -3  11  -2   17.61    4.56
  -3  11  -2   14.90    4.68
  -3  11   2   16.68    4.79
   3 -11   2   22.15    4.28
  -3  11   2   17.74    4.59
  -2  11  -2    8.48    2.59
  -2  11  -2    8.81    2.55
   2 -11  -2    9.30    2.21
  -2  11   2    8.33    2.59
   2 -11   2    9.76    2.26
  -2  11   2    5.74    2.45
   1 -11  -2    4.44    1.38
  -1  11  -2    4.45    1.81
  -1  11  -2    5.94    2.19
   1 -11  -2    4.90    1.54
  -1  11   2    4.76    1.85
   1 -11   2    6.59    1.67
  -1  11   2    5.15    1.99
   0  11  -2   -0.79    1.52
   0  11  -2   -0.66    1.57
   0 -11  -2    0.42    0.73
   0 -11  -2   -0.45    1.07
   0  11   2    0.36    1.53
   0  11   2    2.30    1.60
   0 -11   2    0.67    0.92
   0 -11   2    0.22    0.75
  -1 -11  -2    5.09    1.84
   1  11  -2    7.09    2.20
   1  11  -2    4.61    2.38
  -1 -11  -2    6.41    1.29
   1  11   2    6.60    2.68
  -1 -11   2    5.86    1.67
  -1 -11   2    4.94    1.42
   1  11   2    5.57    2.84
   2  11  -2    2.99    3.82
  -2 -11  -2   12.01    1.75
   2  11  -2    3.33    3.04
  -2 -11   2   10.14    1.90
   2  11   2    4.02    3.56
  -2 -11   2   10.70    2.48
   2  11   2    8.78    3.73
  -3 -11  -2   21.29    3.22
   3  11  -2   15.63    5.74
   3  11  -2   22.85    7.67
  -3 -11   2   24.60    3.51
   3  11   2   11.60    7.87
   3  11   2   18.47    7.38
  -4 -11  -2    3.87    1.16
   4  11  -2   -4.39    4.31
   4  11  -2   -0.85    4.64
   4  11   2    5.71    4.07
  -4 -11   2   -0.23    0.85
   5  11  -2   67.17   20.91
   5  11  -2   20.90   25.22
  -6  12   2    5.86    1.89
  -5  12  -2   -0.26    1.14
  -5  12   2    0.24    1.06
  -4  12  -2   17.75    3.95
   4 -12  -2   15.35    3.26
  -4  12   2   18.15    3.68
  -4  12   2    8.62    3.78
   4 -12   2   15.31    3.30
   3 -12  -2    4.80    1.48
  -3  12  -2    6.89    1.94
  -3  12  -2    7.32    1.87
   3 -12   2    5.44    1.56
  -3  12   2    5.63    1.92
  -3  12   2    5.84    1.99
   2 -12  -2    0.22    0.87
  -2  12  -2    0.28    1.33
   2 -12  -2   -0.22    0.98
  -2  12  -2   -2.05    1.46
  -2  12   2    1.45    1.33
   2 -12   2   -0.25    1.12
  -2  12   2    1.20    1.44
   1 -12  -2    7.55    2.22
  -1  12  -2   12.14    2.74
  -1  12  -2    6.17    2.80
   1 -12  -2    8.67    1.98
  -1  12   2    6.25    2.87
   1 -12   2   10.76    2.26
  -1  12   2   10.92    2.76
   0  12  -2    8.97    3.43
   0 -12  -2    8.01    2.60
   0 -12  -2   16.27    2.59
   0  12  -2    7.84    3.35
   0 -12   2   11.69    2.80
   0  12   2   10.80    3.60
   0 -12   2    9.62    2.55
   0  12   2   13.88    3.67
  -1 -12  -2    9.46    2.19
   1  12  -2    3.02    2.89
   1  12  -2    5.27    3.10
  -1 -12  -2   11.53    1.90
  -1 -12   2    6.07    1.97
   1  12   2    5.04    3.27
   1  12   2   10.32    3.34
  -1 -12   2    8.24    2.34
   2  12  -2    0.57    2.48
   2  12  -2   -2.56    2.54
  -2 -12  -2   -0.62    1.43
  -2 -12  -2    0.90    0.82
  -2 -12   2    2.30    0.93
   2  12   2    0.66    2.69
   2  12   2    2.20    3.46
  -2 -12   2   -1.66    1.32
   3  12  -2    6.99    3.71
  -3 -12  -2    3.75    1.26
   3  12  -2    6.69    3.54
   3  12   2    3.98    3.82
   3  12   2   10.17    4.93
  -3 -12   2    2.68    1.31
  -3 -12   2    2.72    1.98
  -4 -12  -2   10.58    2.57
   4  12  -2    2.73    7.01
   4  12  -2    4.71    5.99
   4  12   2   10.41    7.64
  -4 -12   2   13.80    2.53
   5  12  -2   10.83    5.48
   5  12  -2   -1.30    5.49
  -5 -12   2    0.85    0.86
  -5  13  -2   39.57    6.67
   4 -13  -2    8.79    2.04
  -4  13  -2    9.38    2.41
  -4  13  -2    1.13    2.11
  -4  13   2    6.51    2.56
   4 -13   2   10.25    1.92
  -4  13   2    8.19    2.38
   3 -13  -2    3.10    1.32
  -3  13  -2    5.63    1.85
  -3  13  -2    2.85    1.92
   3 -13   2    3.82    1.34
  -3  13   2    3.39    1.73
  -3  13   2    8.02    2.02
   2 -13  -2    3.64    1.63
  -2  13  -2    3.20    2.12
   2 -13  -2    5.25    1.60
  -2  13  -2    2.82    2.07
   2 -13   2    6.33    1.87
  -2  13   2    1.76    2.19
  -2  13   2   10.37    2.27
  -1  13  -2    5.22    2.18
   1 -13  -2    4.43    1.43
   1 -13  -2    5.40    1.66
  -1  13  -2    6.10    2.27
   1 -13   2    6.52    1.74
  -1  13   2    4.20    2.20
   1 -13   2    2.91    1.61
  -1  13   2    2.96    2.14
   0  13  -2   -1.67    2.22
   0 -13  -2    1.36    0.85
   0  13  -2   -1.81    1.91
   0 -13  -2   -0.52    1.06
   0  13   2    0.95    1.87
   0  13   2    2.85    2.16
   0 -13   2   -0.51    1.20
   0 -13   2    1.62    0.95
   1  13  -2    4.15    2.52
  -1 -13  -2    7.37    1.95
   1  13  -2    6.14    2.96
  -1 -13  -2    6.05    1.50
  -1 -13   2    8.82    1.90
   1  13   2    8.72    3.31
  -1 -13   2    4.26    1.58
   1  13   2    4.40    2.86
   2  13  -2   12.35    3.51
  -2 -13  -2    3.17    1.31
  -2 -13  -2    7.82    2.18
   2  13  -2   13.58    3.41
  -2 -13   2    5.07    1.98
   2  13   2    4.92    3.55
  -2 -13   2    5.99    1.43
   2  13   2   13.53    4.20
   3  13  -2    1.57    3.78
  -3 -13  -2    3.61    1.15
   3  13  -2    2.56    3.93
  -3 -13   2    4.28    1.94
  -3 -13   2    1.75    1.20
   3  13   2    2.18    4.74
   3  13   2   -1.69    3.58
  -4 -13  -2   10.31    1.70
   4  13  -2   11.14    5.74
   4  13   2    4.10    5.28
   5  13  -2   20.69   11.86
   5  13   2   15.50   13.24
   6  13  -2   -2.72    5.52
  -4  14  -2   30.23    7.50
  -3  14  -2   -1.57    1.92
   3 -14   2    1.42    1.17
  -3  14   2    1.74    1.73
  -3  14   2    2.49    1.74
   2 -14  -2    2.81    1.17
  -2  14  -2    2.53    1.91
  -2  14  -2    2.67    2.05
   2 -14  -2    2.18    1.13
   2 -14   2    2.53    1.40
  -2  14   2    5.37    2.13
  -2  14   2   -1.84    1.81
  -1  14  -2   -1.49    2.24
   1 -14  -2    2.45    1.39
   1 -14  -2    2.01    1.10
  -1  14   2    1.92    2.04
  -1  14   2   -0.92    2.29
   1 -14   2    6.26    1.35
   1 -14   2    2.08    1.41
   0 -14  -2   -1.04    0.95
   0 -14  -2    0.53    1.35
   0  14  -2   -1.55    2.21
   0 -14   2    0.85    1.39
   0  14   2    0.55    2.45
   0  14   2    2.13    2.70
   1  14  -2   -0.63    2.62
  -1 -14  -2    0.29    1.35
  -1 -14  -2    2.83    1.09
   1  14   2   -2.01    3.02
  -1 -14   2   -0.60    1.40
   1  14   2    0.64    2.87
  -2 -14  -2    2.27    1.58
  -2 -14  -2    0.79    0.94
   2  14   2   -0.72    2.97
   2  14   2   -4.45    4.32
  -3 -14  -2   -2.70    1.91
   3  14  -2    0.90    4.68
  -3 -14   2    0.26    0.79
   3  14   2   -3.57    4.04
   5  14  -2   13.81    7.51
   5  14  -2   14.62    8.22
   5  14   2    7.74    7.24
  -5 -14   2   10.17    2.01
   6  14  -2   -1.35    5.79
  -5  15  -2    1.29    1.69
  -4  15  -2    2.36    1.82
  -3  15  -2    2.45    1.61
  -2  15  -2    0.76    2.02
   2 -15   2    0.86    1.10
  -2  15   2    1.34    2.18
   1 -15  -2    4.06    1.19
   1 -15  -2    0.85    1.33
  -1  15  -2    0.85    2.19
  -1  15   2    3.82    2.41
   1 -15   2    1.07    1.18
   0  15  -2    1.47    2.57
   0 -15  -2    0.89    1.28
   0  15  -2    1.17    2.23
   0  15   2   -0.56    2.41
   0 -15   2   -0.27    1.08
   0 -15   2    1.19    1.40
   1  15  -2    0.67    2.94
   1  15  -2    9.56    3.25
  -1 -15   2    1.31    1.21
  -1 -15   2   -0.30    1.37
   2  15  -2    0.75    3.71
   2  15  -2   -2.25    3.10
   2  15   2   -3.08    5.00
  -2 -15   2   -0.97    1.55
  -2 -15   2    0.28    1.00
  -3 -15  -2    0.28    1.04
   3  15  -2   -1.93    4.61
  -3 -15  -2    1.19    1.96
   3  15  -2   -2.82    4.32
  -3 -15   2    1.04    0.94
  -3 -15   2    1.89    1.73
   3  15   2   -1.35    5.56
   3  15   2   11.04    4.39
   4  15  -2    8.00    5.67
  -4 -15  -2    1.80    1.16
   4  15  -2   -4.94    5.67
  -4 -15   2    2.14    1.99
   4  15   2    2.29    5.27
  -4 -15   2    4.64    1.15
   5  15  -2   -4.61    6.42
   5  15  -2    5.63    5.63
   5  15   2   -2.50    5.51
  -5 -15   2    3.99    1.17
  -5 -15   2    5.17    2.38
   6  15  -2    1.47    5.79
  -5  16  -2    4.36    1.97
  -4  16  -2    1.83    1.96
  -4  16  -2   -1.09    1.87
   4 -16   2    4.87    1.45
  -3  16  -2    0.42    2.15
  -3  16  -2    0.65    2.36
   3 -16   2    0.31    1.35
  -2  16  -2    1.91    2.80
  -2  16  -2    5.69    2.90
   2 -16   2    6.70    1.90
   2 -16   2    6.61    1.98
  -1  16  -2   -0.62    2.38
  -1  16  -2    1.95    2.57
   1 -16   2   -0.26    1.15
   1 -16   2    2.18    1.52
   0 -16  -2    7.51    1.83
   0  16  -2   -3.41    3.00
   0 -16  -2    2.46    1.22
   0  16  -2   -2.15    2.97
   0 -16   2    3.01    1.42
   0 -16   2    1.31    1.63
   0  16   2    3.22    3.10
   0  16   2    3.54    3.75
  -1 -16  -2    4.59    1.66
  -1 -16  -2    0.58    1.09
   1  16  -2    3.50    2.95
   1  16  -2    3.11    2.94
  -1 -16   2    5.00    1.79
   1  16   2   -2.87    4.78
   1  16   2   -1.51    3.24
  -1 -16   2   -0.29    1.15
   2  16  -2    3.40    4.16
  -2 -16  -2    1.12    1.33
  -2 -16  -2    6.01    2.13
   2  16  -2    1.60    4.15
  -2 -16   2    8.25    1.69
   2  16   2    4.51    5.48
   2  16   2    7.12    4.41
  -2 -16   2    6.11    2.17
  -3 -16  -2    1.92    1.80
   3  16  -2   -3.09    4.69
  -3 -16  -2    2.28    1.24
   3  16  -2   -5.14    4.47
  -3 -16   2    1.35    1.07
   3  16   2  -10.32    6.75
   3  16   2    0.96    3.84
  -3 -16   2    2.69    1.88
   4  16  -2    3.44    5.34
  -4 -16  -2    1.87    1.18
   4  16  -2   -3.57    5.35
  -4 -16  -2    5.25    2.13
  -4 -16   2    4.51    2.05
  -4 -16   2    0.30    1.08
   4  16   2   -3.37    5.20
  -5 -16   2    5.24    2.44
  -5 -16   2    0.30    1.22
   6  16  -2    1.59    6.37
  -4  17  -2    2.00    1.94
  -3  17  -2    1.27    2.09
  -3  17  -2   -4.51    2.88
   3 -17   2    0.34    1.43
   3 -17   2   -0.67    1.39
  -2  17  -2   -0.93    2.69
  -2  17  -2   -2.03    2.34
   2 -17   2    0.32    1.30
   2 -17   2   -0.61    1.21
  -1  17  -2    0.49    2.45
  -1  17  -2    6.05    2.80
   1 -17   2    1.22    1.37
   0  17  -2   -0.60    2.96
   0  17  -2   -1.42    2.83
   0 -17   2   -0.93    1.26
   1  17  -2    0.80    3.40
   1  17  -2    4.32    4.11
   1  17   2    4.64    3.46
  -1 -17   2    4.51    1.33
  -1 -17   2    2.12    1.86
   1  17   2   -8.18    5.47
  -2 -17  -2   -0.61    1.10
   2  17  -2    3.70    4.44
  -2 -17  -2   -1.37    1.52
   2  17  -2   -3.91    4.24
  -2 -17   2   -0.30    1.19
   2  17   2   -2.58    3.72
  -2 -17   2    0.36    1.72
   2  17   2   -2.42    5.70
  -3 -17  -2    2.50    1.95
   3  17  -2    1.03    4.47
   3  17  -2   -3.30    5.15
  -3 -17  -2   -0.67    1.05
   3  17   2   -8.13    6.92
  -3 -17   2    4.72    1.25
  -3 -17   2    0.40    1.77
   3  17   2    2.10    4.51
  -4 -17  -2    2.37    2.22
   4  17  -2    5.00    5.60
   4  17  -2   -2.72    5.95
  -4 -17  -2   -0.66    1.08
  -4 -17   2    3.18    2.24
  -4 -17   2    0.63    1.06
   4  17   2    3.95    5.65
  -5 -17  -2    3.10    2.42
   5  17  -2  -11.67    7.34
   5  17  -2    1.52    6.15
  -5 -17   2   -2.05    2.54
   5  17   2   -4.03    5.61
  -5 -17   2   -0.60    1.15
   6  17  -2    6.14    6.45
  -6 -17   2   -0.53    2.37
  -2  18  -2    6.82    2.90
  -2  18  -2    0.76    2.98
   2 -18   2    4.16    1.78
   2 -18   2    1.18    1.38
  -1  18  -2    2.30    2.75
  -1  18  -2    3.94    3.16
   1 -18   2    1.35    1.38
   1 -18   2   -0.71    1.67
   0  18  -2   10.51    6.53
   0  18  -2   19.03    6.46
   0 -18   2   21.76    3.94
   0 -18   2   15.62    4.37
   1  18  -2    4.26    4.44
   1  18  -2    6.88    3.76
  -1 -18   2   -1.09    1.80
   2  18  -2    5.70    4.40
   2  18  -2   13.12    5.62
  -2 -18   2    1.94    2.01
  -2 -18   2    5.02    1.51
  -3 -18  -2    1.98    1.20
  -3 -18  -2   -2.43    2.05
   3  18  -2    2.30    5.30
   3  18  -2    2.55    6.16
  -3 -18   2    0.42    2.04
   3  18   2    5.78    5.06
   3  18   2    8.57    7.50
  -3 -18   2    0.30    1.03
  -4 -18  -2    0.42    1.96
   4  18  -2    7.87    7.64
   4  18  -2   -1.39    5.99
  -4 -18   2   -1.81    1.16
  -4 -18   2   -2.22    2.22
   4  18   2    1.25    5.34
   5  18  -2   -8.66    9.73
   5  18  -2  -20.80    8.16
  -5 -18  -2    1.55    2.42
  -5 -18   2    0.32    1.13
  -5 -18   2    1.43    2.07
   5  18   2   -1.49    7.11
   6  18  -2  -14.60   10.02
  -1  19  -2    2.58    3.36
   0  19  -2   -5.43    4.30
   0  19  -2    0.89    3.69
   0 -19   2   -0.96    1.43
   1  19  -2   -0.90    4.62
   1  19  -2   -3.95    4.22
  -1 -19   2    1.55    2.00
  -1 -19   2    0.33    1.49
   2  19  -2    2.07    4.30
   2  19  -2   -4.67    5.38
  -2 -19   2    0.40    1.83
  -2 -19   2    1.58    1.25
   3  19  -2   -1.29    6.24
   3  19  -2  -10.74    6.14
  -3 -19   2    3.35    2.02
  -3 -19   2   -1.88    1.17
   4  19  -2    6.99    7.53
   4  19  -2    1.31    5.03
  -4 -19   2    1.30    2.01
  -4 -19   2    2.10    1.34
  -5 -19  -2   -1.45    2.29
   5  19  -2   -7.89    6.68
   5  19   2   -5.49    6.19
  -5 -19   2    5.51    2.40
  -5 -19   2    0.33    1.07
   6  19  -2    3.28    6.74
  -6 -19   2   -1.55    2.41
   1  20  -2    5.18    3.94
   1  20  -2   -1.08    5.35
  -1 -20   2   -2.04    1.85
  -1 -20   2    2.80    1.42
   2  20  -2   -7.34    5.87
   2  20  -2    1.13    4.95
  -2 -20   2    0.33    1.12
  -2 -20   2   -1.67    1.84
   3  20  -2    4.18    6.72
   3  20  -2   -2.48    5.21
  -3 -20   2   -2.14    1.14
  -3 -20   2    3.13    2.05
   4  20  -2   -1.44    6.34
   4  20  -2    1.91    8.27
  -4 -20   2   -0.71    1.14
  -4 -20   2    1.44    2.24
   5  20  -2  -12.51    7.09
  -5 -20   2   -0.34    1.03
  -5 -20   2    0.53    2.61
   0   0  -3    0.08    0.09
   0   0   3   -0.06    0.13
   1   0  -3  538.69  116.29
   0   1  -3  526.91  121.02
   0  -1   3  579.50  146.57
   1  -1  -3   -0.06    0.14
   1   1  -3   -0.04    0.09
   1  -1  -3    0.13    0.12
   1   1  -3    0.06    0.15
   1   1  -3   -0.04    0.10
   1   1  -3    0.28    0.18
  -1  -1   3    0.16    0.12
  -1   1   3    0.15    0.14
  -1  -1   3    0.18    0.11
   2   1  -3  146.89   30.89
   1  -2  -3  139.38   26.84
  -2  -1   3  130.50   33.99
  -1   2   3  147.04   28.94
  -2  -1   3  124.25   44.19
   2   0  -3    0.10    0.22
   0  -2  -3    0.04    0.13
   2   0  -3   -0.12    0.30
   0  -2  -3    0.08    0.19
   0   2  -3   -0.08    0.19
   0   2  -3    0.07    0.15
  -2   0   3    0.42    0.29
   0   2   3    0.08    0.21
   0  -2   3   -0.17    0.17
   1   2  -3  125.66   26.64
   2  -1  -3  139.17   28.71
   1   2  -3  142.91   25.52
   1   2  -3  106.26   28.34
   2  -2  -3    0.61    0.28
   2   2  -3    0.20    0.58
   2   2  -3    0.93    0.42
   2   2  -3    0.39    0.50
   2  -2  -3    0.68    0.30
  -2   2   3    0.68    0.40
  -2  -2   3    0.34    0.28
   2  -3  -3   19.35    3.69
   2  -3  -3   17.27    3.52
  -2   3   3   18.20    4.45
  -2   3   3   21.92    4.45
   1  -3  -3   55.38   12.40
   1  -3  -3   60.76   14.51
   1  -3  -3   54.30   10.97
   1  -3   3   60.59   13.27
  -1   3   3   54.12   12.97
  -1   3   3   60.47   13.51
   0  -3  -3   19.76    4.30
   0   3   3   21.69    5.90
   0  -3   3   23.24    5.01
   1   3  -3   67.45   13.22
   2   3  -3   16.85    4.39
   3  -2  -3   20.93    4.61
   2   3  -3   18.08    4.14
  -3   2   3   17.90    5.36
   3   3  -3   -1.04    1.64
   3  -3  -3   -0.20    0.60
  -3  -3   3    0.21    0.44
  -3   3   3   -0.47    0.80
   3  -4  -3    1.08    0.68
   3  -4  -3    0.96    0.60
  -3   4   3    0.24    0.80
   2  -4  -3  188.92   37.02
   2  -4  -3  166.36   39.06
  -2   4  -3  206.38   47.85
  -2   4   3  202.70   48.06
  -2   4   3  184.47   41.84
  -1   4  -3   46.33    9.46
  -1   4  -3   40.45    9.49
   1  -4  -3   43.25    7.60
  -1   4   3   44.02    8.98
  -1   4   3   43.31    8.03
   1  -4   3   32.32    9.50
  -1   4   3   44.15    8.37
   0  -4  -3    0.21    0.19
   0   4  -3   -0.14    0.37
   0   4  -3    0.34    0.40
   0  -4  -3   -0.09    0.25
   0  -4  -3    0.33    0.26
   0   4   3   -0.42    0.52
   0   4   3    0.11    0.37
   0   4   3    0.12    0.35
   0  -4   3    0.10    0.34
  -1  -4  -3   22.61   11.27
   1   4  -3   50.27    9.10
  -1  -4   3   34.98    9.24
   2   4  -3  210.21   45.93
   2   4  -3  227.49   45.67
   3   4  -3    1.21    1.19
   3  -5  -3  163.97   33.22
  -3   5   3  152.42   35.57
   2  -5  -3  709.90  166.74
   2  -5  -3  884.91  159.51
  -2   5  -3  907.95  222.36
  -2   5   3 1000.00  225.93
  -2   5   3  958.24  198.02
  -2   5   3  903.68  189.56
   1  -5  -3   15.61    3.69
  -1   5  -3   19.49    4.45
   1  -5  -3   19.70    3.67
   1  -5   3   20.07    4.65
  -1   5   3   21.01    4.98
   0  -5  -3   43.50    9.75
   0   5  -3   45.80    9.40
   0   5   3   46.84    9.26
   0   5   3   36.25   10.76
   0  -5   3   44.25   10.22
   0   5   3   39.49    8.65
  -1  -5  -3   17.22    4.41
   1   5  -3   18.24    4.32
  -1  -5   3   22.61    4.38
   1   5   3   19.36    6.14
   1   5   3   17.77    5.22
   2   5  -3  857.64  222.66
   4   5  -3    9.25    4.91
  -4  -5   3   12.44    2.70
  -4   6   3   56.44   12.11
   3  -6  -3   12.84    3.06
   3  -6  -3   14.76    2.98
  -3   6   3   15.34    3.11
  -3   6   3   13.25    4.32
   2  -6  -3    1.51    0.54
  -2   6  -3    2.55    0.80
   2  -6  -3    3.44    0.74
   2  -6  -3    2.58    0.58
  -2   6  -3   -0.23    0.79
   2  -6   3    1.00    0.65
  -2   6   3    0.93    0.99
  -2   6   3    1.58    0.76
  -2   6   3    2.24    0.72
   1  -6  -3    9.12    1.95
  -1   6  -3   10.37    2.38
   1  -6  -3   11.76    1.87
   1  -6  -3    8.62    2.27
  -1   6   3   10.15    2.50
  -1   6   3    8.96    2.48
  -1   6   3   12.13    2.24
  -1   6   3    8.90    2.76
   0  -6  -3    0.35    0.43
   0   6  -3    0.34    0.61
   0  -6  -3    0.18    0.42
   0  -6  -3    0.07    0.29
   0   6   3    0.26    0.52
   0   6   3    0.76    0.86
   0   6   3    0.18    0.66
   1   6  -3   11.46    2.49
   1   6  -3   10.44    2.76
  -1  -6  -3   11.45    2.11
   1   6   3    9.13    2.94
  -1  -6   3   10.29    2.29
   1   6   3    8.12    3.21
  -1  -6   3    4.27    2.47
   2   6  -3    3.42    1.17
   2   6  -3    1.97    1.10
  -2  -6   3    2.69    0.70
   3   6  -3    9.95    4.76
   4   6  -3   56.34   18.12
  -3   7  -3   43.57   10.02
   3  -7  -3   46.11    9.45
   2  -7  -3    3.93    1.65
  -2   7  -3    4.93    1.95
   2  -7  -3    7.00    1.86
   2  -7  -3    7.29    1.54
  -2   7  -3    9.43    2.04
  -2   7   3    9.58    1.88
   2  -7   3    5.89    1.81
  -2   7   3    8.45    2.52
   1  -7  -3    8.01    1.40
   1  -7  -3    6.45    1.69
   1  -7  -3    7.76    1.54
  -1   7  -3    6.69    1.95
  -1   7  -3    7.09    1.79
  -1   7   3    5.10    1.97
  -1   7   3    6.82    1.83
  -1   7   3    6.68    2.22
   1  -7   3    8.06    1.83
   0   7  -3  120.47   24.39
   0  -7  -3  104.38   23.77
   0  -7  -3  118.55   23.36
   0   7   3  107.41   32.36
  -1  -7  -3    6.50    1.72
   1   7  -3    3.66    1.85
   1   7  -3    2.87    1.92
  -1  -7  -3    7.56    1.59
  -1  -7   3    8.98    1.71
   1   7   3    9.74    2.59
  -1  -7   3    8.56    1.84
   2   7  -3   11.67    2.43
  -2  -7  -3   11.42    1.94
   2   7  -3    4.45    2.10
   2   7   3    2.98    3.78
   2   7   3    5.02    3.23
  -2  -7   3    8.33    1.70
   3   7  -3   48.37   12.62
   3   7  -3   36.97   10.08
   4   7  -3    6.67    3.87
  -4  -7   3    5.81    1.48
   5   7  -3    5.94    3.82
   5  -8  -3   25.86    5.70
  -4   8   3   12.14    2.96
  -3   8  -3   87.80   19.50
  -3   8   3  100.69   21.18
   1  -8  -3   21.76    4.12
  -1   8  -3   22.63    4.29
   1  -8  -3   14.99    4.19
  -1   8  -3   15.16    4.19
   1  -8  -3   17.86    3.52
   1  -8  -3   15.99    3.19
  -1   8   3   19.57    5.11
  -1   8   3   15.42    4.94
   1  -8   3   16.44    4.18
  -1   8   3   16.28    4.13
   0  -8  -3   -0.09    0.43
   0  -8  -3   -0.78    0.60
   0  -8  -3   -0.59    0.61
   0  -8  -3    0.17    0.88
   0   8  -3   -0.54    0.94
   0   8  -3   -0.44    0.91
   0   8   3   -0.75    1.28
   0   8   3   -0.45    0.70
   0   8   3   -0.80    1.31
   0  -8   3   -0.88    0.84
   0   8   3   -0.35    0.87
  -1  -8  -3   19.12    3.55
  -1  -8  -3   16.24    4.03
   1   8  -3   13.57    4.42
   1   8  -3   19.95    4.54
  -1  -8   3   18.54    3.79
  -1  -8   3   17.77    3.92
   1   8   3   11.31    4.51
   1   8   3   13.63    5.02
   3   8  -3   93.63   21.26
   3   8  -3  105.98   28.32
   3   8   3   47.37   33.31
  -3  -8   3  108.82   16.22
   4   8  -3    6.30    4.49
   4   8  -3   11.74    5.43
  -4  -8   3   12.80    2.24
   5   8  -3   18.16    8.97
   5   8  -3    3.89    9.67
  -5  -8   3   29.60    4.36
   5  -9  -3   91.32   22.36
  -5   9   3  107.53   21.07
  -4   9  -3  114.98   24.58
  -4   9   3  107.11   23.76
  -3   9  -3   23.21    6.92
  -3   9  -3   32.49    7.15
   3  -9  -3   34.63    5.90
   3  -9   3   31.14    6.35
  -3   9   3   27.42    6.67
  -3   9   3   28.57    6.72
   2  -9  -3   13.18    2.33
  -2   9  -3   10.60    3.18
  -2   9  -3   12.38    3.01
   2  -9  -3   10.30    2.86
   2  -9  -3   13.98    2.67
  -2   9   3   11.43    4.18
   2  -9   3   10.55    2.73
  -2   9   3   10.10    2.93
  -2   9   3   12.85    2.87
  -1   9  -3    3.44    1.15
  -1   9  -3   -0.29    1.05
   1  -9  -3    1.31    0.81
   1  -9  -3    0.15    0.64
   1  -9  -3    1.35    0.47
   1  -9  -3    2.09    0.59
  -1   9   3    1.05    1.14
   1  -9   3    0.96    0.74
  -1   9   3    0.23    0.99
  -1   9   3    0.75    0.81
   0  -9  -3    0.69    0.49
   0  -9  -3    0.51    0.63
   0   9  -3    1.79    1.12
   0  -9  -3    0.18    0.88
   0   9  -3   -0.32    1.02
   0   9   3   -0.91    1.37
   0  -9   3    1.15    0.93
   0   9   3   -0.85    1.06
  -1  -9  -3    1.33    0.81
   1   9  -3    3.50    1.46
  -1  -9  -3    2.21    0.65
   1   9  -3    0.34    1.33
  -1  -9   3    1.51    0.88
   1   9   3    4.27    2.05
  -1  -9   3    0.17    0.61
   1   9   3    1.12    1.49
   2   9  -3   13.82    3.34
   2   9  -3    6.09    3.53
  -2  -9  -3   13.91    2.32
  -2  -9  -3   10.19    2.85
  -2  -9   3   11.38    2.53
  -2  -9   3   10.24    2.90
   2   9   3    9.79    4.44
   2   9   3   16.02    4.17
   3   9  -3   35.15    9.45
  -3  -9  -3   27.86    5.22
   3   9  -3   44.21    7.78
   3   9   3    9.12   11.04
  -3  -9   3   20.93    5.24
   4   9  -3  103.62   26.34
   4   9  -3   85.14   37.06
  -4  -9   3  102.15   16.18
   5   9  -3   78.67   40.64
   5   9  -3  109.28   32.63
  -5  -9   3  114.96   16.68
  -4  10  -3   20.05    5.49
   4 -10  -3   24.61    4.71
  -4  10   3   23.81    5.39
   3 -10  -3   16.12    3.22
  -3  10  -3   20.20    3.51
  -3  10  -3   14.62    3.81
   3 -10   3   12.94    3.46
  -3  10   3   12.89    3.83
  -3  10   3   18.46    3.60
  -2  10  -3   29.80    6.17
  -2  10  -3   24.66    6.30
   2 -10  -3   26.38    6.11
  -2  10   3   19.13    6.60
  -2  10   3   25.39    6.14
   2 -10   3   28.68    5.95
  -1  10  -3   36.60    6.37
   1 -10  -3   27.19    5.86
  -1  10  -3   25.19    6.63
   1 -10  -3   32.36    5.96
  -1  10   3   30.46    6.96
   1 -10   3   26.95    6.12
  -1  10   3   27.38    6.33
   0  10  -3    0.68    1.30
   0  10  -3    2.10    1.28
   0 -10  -3    0.82    0.95
   0 -10  -3    1.50    0.78
   0  10   3    0.34    1.34
   0  10   3   -0.67    1.45
   0 -10   3   -1.86    0.95
  -1 -10  -3   27.66    5.14
   1  10  -3   29.22    6.67
   1  10  -3   19.61    7.51
  -1 -10  -3   28.86    6.33
   1  10   3   25.32    8.53
   1  10   3   30.61    6.75
  -1 -10   3   19.03    5.93
  -1 -10   3   23.53    5.67
   2  10  -3   27.98    6.89
   2  10  -3   29.89    8.60
  -2 -10  -3   28.63    4.61
  -2 -10   3   29.56    6.15
   2  10   3   22.41    7.65
   2  10   3   25.36    9.76
  -2 -10   3   28.07    5.08
   3  10  -3   12.72    5.45
  -3 -10  -3   10.39    2.85
   3  10  -3   10.97    4.53
   3  10   3   15.92    6.23
   3  10   3    7.43    6.12
  -3 -10   3   13.32    2.81
   4  10  -3   18.42    9.87
   4  10  -3   25.89    6.95
   4  10   3    7.17    8.80
  -4 -10   3   25.34    3.84
   5  10  -3   28.78    7.48
   5  10  -3   25.59    8.07
  -6  11   3   -0.21    0.93
  -5  11   3    7.77    2.30
   4 -11  -3   11.10    2.26
  -4  11  -3    9.92    2.69
  -4  11   3   11.35    2.59
   4 -11   3    7.63    2.41
  -4  11   3    8.81    2.71
   3 -11  -3   20.48    3.73
  -3  11  -3   14.03    4.42
  -3  11  -3   16.27    4.42
  -3  11   3   15.17    4.79
  -3  11   3   23.80    4.40
   3 -11   3   20.15    3.95
  -2  11  -3    1.13    1.37
   2 -11  -3    1.48    0.92
   2 -11  -3    0.77    0.77
  -2  11  -3    0.52    1.33
   2 -11   3    1.66    1.00
  -2  11   3    0.27    1.30
  -2  11   3    0.95    1.22
  -1  11  -3   -1.40    1.32
  -1  11  -3   -0.71    1.20
   1 -11  -3    0.51    0.61
   1 -11  -3   -0.20    0.85
   1 -11   3    0.46    0.94
  -1  11   3   -0.32    1.25
  -1  11   3   -1.91    1.63
   0  11  -3   63.89   12.19
   0  11  -3   52.08   12.06
   0  11   3   48.13   13.93
   0  11   3   53.90   11.97
  -1 -11  -3   -0.44    0.83
   1  11  -3   -1.30    1.72
   1  11  -3   -0.76    1.68
  -1 -11  -3    0.25    1.16
  -1 -11   3    0.19    0.72
  -1 -11   3   -0.26    1.16
   1  11   3    0.91    1.80
   1  11   3   -2.63    2.54
   2  11  -3    0.88    2.09
   2  11  -3   -0.52    2.08
  -2 -11  -3    2.95    0.85
  -2 -11   3    0.44    0.77
   2  11   3    3.84    3.41
   2  11   3   -0.57    2.35
  -2 -11   3    0.26    1.04
   3  11  -3   11.30    7.11
   3  11  -3    8.27    5.50
  -3 -11  -3   24.33    3.21
   3  11   3    9.56    7.71
   3  11   3    9.67    7.21
  -3 -11   3   18.76    4.49
  -3 -11   3   18.17    3.46
   4  11  -3    2.55    5.92
   4  11  -3    8.50    4.81
   4  11   3    2.08    5.70
   5  11  -3    8.01    5.71
   5  11  -3    6.56    6.17
  -5 -11   3    9.98    1.74
   6  11  -3   -5.14    5.06
  -6 -11   3   -0.29    0.95
  -5  12  -3    6.61    2.00
   4 -12  -3    0.87    0.93
  -4  12  -3    0.52    1.25
   4 -12   3    1.22    0.95
  -4  12   3    0.80    1.22
  -4  12   3    0.44    1.21
   3 -12  -3    2.90    1.44
  -3  12  -3    6.63    1.82
  -3  12  -3    4.96    2.04
   3 -12   3    3.97    1.51
  -3  12   3    3.40    1.81
  -3  12   3    3.31    1.88
  -2  12  -3   11.45    3.00
   2 -12  -3    9.25    2.67
  -2  12  -3    9.17    3.01
   2 -12  -3   11.43    2.83
  -2  12   3   11.16    3.09
  -2  12   3    9.59    3.12
   2 -12   3   11.23    2.69
   1 -12  -3   35.45    7.30
   1 -12  -3   43.01    7.39
  -1  12  -3   32.18    8.37
  -1  12  -3   30.25    8.54
  -1  12   3   34.30    8.07
   1 -12   3   38.98    7.64
  -1  12   3   40.45    8.63
   0 -12  -3   -0.99    1.20
   0 -12  -3    0.23    0.89
   0  12  -3   -2.18    1.84
   0  12  -3    0.41    1.56
   0 -12   3    0.24    1.13
   0  12   3    0.41    1.62
   0  12   3   -1.36    2.15
   0 -12   3   -0.48    1.23
   1  12  -3   29.67    9.56
  -1 -12  -3   28.78    8.11
   1  12  -3   41.88    8.65
  -1 -12  -3   37.12    6.49
   1  12   3   36.03   11.02
  -1 -12   3   30.14    6.99
  -1 -12   3   23.85    6.83
   1  12   3   28.23    9.40
  -2 -12  -3   12.55    2.10
   2  12  -3   11.89    3.73
   2  12  -3    6.43    4.21
   2  12   3   14.39    4.94
   2  12   3    6.67    4.82
  -2 -12   3   10.60    2.78
  -2 -12   3   11.09    2.24
   3  12  -3    7.31    3.49
   3  12  -3    3.61    3.65
  -3 -12  -3    7.17    1.51
  -3 -12   3    6.96    1.42
   3  12   3   -1.16    6.02
  -3 -12   3    6.80    1.99
   3  12   3    4.62    3.74
   4  12  -3    0.92    3.48
   4  12  -3    1.66    4.05
  -4 -12   3    0.48    0.82
   4  12   3    0.95    3.61
   5  12  -3    9.85    5.43
  -5  13  -3   13.13    3.29
  -4  13  -3    3.55    1.90
   4 -13   3    8.69    1.67
  -3  13  -3   -0.92    1.41
  -3  13  -3   -0.49    1.69
   3 -13   3   -0.53    1.05
  -3  13   3   -0.43    1.55
  -3  13   3   -0.98    1.62
  -2  13  -3    1.40    1.95
   2 -13  -3    0.96    1.14
   2 -13  -3   -0.67    0.83
  -2  13  -3    0.65    1.46
   2 -13   3   -0.53    1.07
  -2  13   3    2.42    1.71
  -2  13   3    1.06    1.67
  -1  13  -3   -0.90    1.67
   1 -13  -3    0.24    0.90
   1 -13  -3    2.42    1.26
  -1  13  -3    2.53    1.62
   1 -13   3    0.28    1.20
  -1  13   3    0.40    1.72
  -1  13   3    1.23    2.02
   0  13  -3    6.22    2.96
   0 -13  -3    7.42    2.11
   0 -13  -3   11.00    1.86
   0  13  -3    2.76    2.67
   0 -13   3    5.91    2.13
   0  13   3    9.52    3.23
   0 -13   3    7.55    1.92
   0  13   3    9.72    3.22
  -1 -13  -3    1.26    0.97
   1  13  -3    4.05    2.30
   1  13  -3   -3.19    2.21
  -1 -13  -3    1.39    1.38
  -1 -13   3   -0.28    1.36
   1  13   3   -0.56    2.32
   1  13   3    4.22    3.42
  -1 -13   3    0.72    1.00
  -2 -13  -3   -0.31    1.52
   2  13  -3   -0.65    2.87
  -2 -13  -3    0.74    0.86
   2  13  -3    0.56    2.79
  -2 -13   3   -1.21    1.47
  -2 -13   3    0.25    0.84
   2  13   3    0.90    4.34
   2  13   3   -0.66    2.88
   3  13  -3    3.32    3.60
  -3 -13  -3   -0.59    0.90
   3  13   3    0.83    3.55
   3  13   3    2.49    5.59
  -3 -13   3    0.36    1.69
   4  13   3    3.16    5.26
   5  13  -3   -6.25    7.37
   6  13  -3    1.51    6.62
  -6 -13   3    3.65    1.28
  -3  14  -3    1.63    2.04
   3 -14   3    3.70    1.33
  -2  14  -3   -1.03    2.08
   2 -14   3    0.83    1.18
  -2  14   3   -0.83    2.13
  -2  14   3   -0.46    1.68
  -1  14  -3   -2.50    2.05
   1 -14  -3    1.80    1.16
   1 -14  -3    1.74    0.99
  -1  14   3   -0.98    2.59
  -1  14   3    3.29    2.04
   1 -14   3    0.87    1.36
   0 -14  -3    0.54    1.36
   0 -14  -3    0.24    0.96
   0  14   3   -1.17    3.02
   0  14   3   -2.84    2.45
  -1 -14  -3    0.88    1.36
  -1 -14  -3    1.84    0.98
   1  14   3   -4.11    4.28
   1  14   3    3.79    3.06
   2  14  -3    1.89    3.17
  -2 -14  -3    0.70    1.55
  -2 -14  -3    1.32    0.87
  -2 -14   3   -1.78    1.11
   2  14   3   -3.20    3.54
   2  14   3   -1.94    4.68
   3  14  -3   -3.13    3.86
  -3 -14  -3   -1.21    1.10
   3  14  -3   -1.67    3.30
  -3 -14   3    2.64    1.55
  -3 -14   3    0.26    1.02
   3  14   3   -0.93    4.26
   4  14  -3    2.05    6.17
   4  14  -3    2.08    6.13
  -4 -14   3   11.48    1.94
  -4 -14   3    8.15    3.08
   5  14  -3    4.10    7.12
   5  14  -3    7.69    6.67
  -5 -14   3    6.87    1.65
   6  14  -3    5.75   14.62
  -5  15  -3    3.88    2.27
  -4  15  -3    5.20    1.68
   4 -15   3    2.68    1.25
  -3  15  -3    0.60    1.94
  -3  15  -3   -1.77    1.57
   3 -15   3   -0.30    1.26
  -2  15  -3    5.21    2.53
  -2  15  -3    1.59    1.88
   2 -15   3    2.63    1.55
  -1  15  -3   -3.97    2.36
  -1  15  -3    1.62    1.79
   1 -15   3   -2.44    1.53
   1 -15   3    1.65    1.09
   0 -15  -3    1.74    1.50
   0 -15  -3    1.34    1.05
   0  15  -3    0.59    2.50
   0  15  -3    1.86    2.21
   0 -15   3   -1.57    1.51
   0  15   3   -1.69    2.31
   0  15   3   -0.70    3.54
   0 -15   3   -0.79    1.06
   1  15  -3    2.25    2.70
  -1 -15  -3   -1.24    1.50
   1  15  -3    0.64    2.70
   1  15   3    2.58    2.71
  -1 -15   3    1.59    1.45
  -1 -15   3    1.11    1.26
   2  15  -3   -2.74    3.02
   2  15  -3   -1.55    3.36
  -2 -15   3    0.26    1.16
  -2 -15   3    2.25    1.55
   3  15  -3    0.91    3.74
   3  15  -3   -3.60    4.73
  -3 -15  -3   -0.90    1.06
   3  15   3   11.41    6.11
  -3 -15   3   -0.56    0.93
  -3 -15   3    0.37    1.70
   4  15  -3    5.65    5.22
   4  15  -3   -1.17    4.88
  -4 -15   3    0.26    1.03
  -4 -15   3   -2.56    1.90
   4  15   3   -1.13    4.52
   5  15  -3   -4.42    7.24
   5  15  -3    3.79    5.94
  -5 -15   3   10.81    2.90
  -5 -15   3    6.93    1.47
   6  15  -3    1.52    6.59
  -6 -15   3    0.29    1.00
  -4  16  -3   -1.90    1.84
   4 -16   3    0.32    1.26
  -3  16  -3    6.94    2.42
  -3  16  -3    3.34    2.45
   3 -16   3    4.94    1.71
  -2  16  -3   -3.27    2.31
  -2  16  -3    1.86    2.14
   2 -16   3   -0.89    1.28
   2 -16   3   -1.25    1.28
  -1  16  -3    3.69    2.38
  -1  16  -3    0.47    2.10
   1 -16   3   -0.29    1.29
   1 -16   3   -0.60    1.25
   0  16  -3   -1.30    2.60
   0  16  -3   -0.54    2.54
   0 -16   3   -2.28    1.63
   0 -16   3   -0.88    1.27
   1  16  -3   -0.63    3.11
   1  16  -3    3.48    2.79
   1  16   3   -0.97    4.22
   1  16   3    8.63    3.30
  -1 -16   3   -0.56    1.12
  -1 -16   3    1.66    1.56
   2  16  -3    5.38    3.76
   2  16  -3    0.87    3.66
  -2 -16  -3   -1.28    1.12
  -2 -16  -3    0.70    1.69
   2  16   3   -0.84    3.60
  -2 -16   3    1.96    1.20
   2  16   3   -1.15    5.66
  -2 -16   3    0.71    1.77
   3  16  -3    2.02    4.68
  -3 -16  -3    1.52    1.21
   3  16  -3   -1.03    5.26
  -3 -16  -3    2.86    2.20
  -3 -16   3   -0.38    1.92
   3  16   3   -3.00    6.65
  -3 -16   3    6.82    1.47
   3  16   3    8.03    4.76
  -4 -16  -3    0.92    2.13
   4  16  -3   -7.04    5.05
   4  16  -3   -2.42    5.96
  -4 -16   3    1.64    1.73
  -4 -16   3    2.48    1.01
   4  16   3    1.14    4.77
  -5 -16   3    0.49    2.12
   6  16  -3    1.66    6.79
  -6 -16   3    1.80    1.20
  -6 -16   3    7.56    2.75
  -5  17  -3    4.09    1.97
  -4  17  -3   -1.95    2.05
   4 -17   3   -1.67    1.31
  -3  17  -3    1.54    2.79
  -3  17  -3    2.95    2.13
   3 -17   3   -0.71    1.44
  -2  17  -3    4.86    2.60
  -2  17  -3    7.36    2.51
   2 -17   3    2.20    1.45
   2 -17   3    6.79    1.82
  -1  17  -3    0.51    2.37
  -1  17  -3    0.69    2.68
   1 -17   3    0.66    1.52
   1 -17   3    1.15    1.18
   0  17  -3   10.07    4.09
   0  17  -3    6.92    3.76
   0 -17   3   10.76    2.69
   0 -17   3    7.03    2.31
   1  17  -3    0.77    3.46
   1  17  -3    0.68    3.27
  -1 -17   3   -0.61    1.34
  -1 -17   3    0.35    1.65
   2  17  -3    2.75    4.15
   2  17  -3    4.05    4.27
  -2 -17   3    3.28    1.40
   2  17   3   -1.36    6.44
  -2 -17   3   -1.43    1.81
  -3 -17  -3   -0.33    1.15
  -3 -17  -3   -0.40    2.06
   3  17  -3    4.17    4.48
   3  17  -3   -1.10    5.47
  -3 -17   3    0.29    1.10
   3  17   3   11.46    4.86
   3  17   3   12.66    6.84
  -3 -17   3    3.71    1.96
   4  17  -3    8.72    5.38
  -4 -17  -3    1.39    2.26
   4  17  -3   -1.28    5.51
  -4 -17   3   -1.73    2.08
   4  17   3   -2.56    5.37
  -4 -17   3   -1.76    1.02
   5  17  -3    4.23    5.84
   5  17  -3   -1.72    8.66
  -5 -17   3    0.46    2.12
  -5 -17   3   -1.29    1.05
   6  17  -3    3.27    6.95
  -6 -17   3    0.54    2.59
  -6 -17   3    0.62    0.98
  -3  18  -3   -0.48    2.44
  -3  18  -3   -1.68    2.64
   3 -18   3    0.36    1.57
   3 -18   3    2.13    1.47
  -2  18  -3    1.56    2.74
  -2  18  -3    3.68    2.72
   2 -18   3    2.55    1.80
   2 -18   3    2.67    1.61
  -1  18  -3    1.58    2.94
  -1  18  -3    1.12    2.70
   1 -18   3    2.29    1.37
   0  18  -3    2.57    3.03
   0  18  -3   -3.20    3.29
   0 -18   3   -0.37    1.63
   0 -18   3    1.30    1.35
   1  18  -3   -3.51    3.93
   1  18  -3    4.63    3.83
  -1 -18   3    2.69    1.25
  -1 -18   3    1.14    1.75
   2  18  -3   -1.87    4.24
   2  18  -3   -1.89    3.93
  -2 -18   3    4.18    1.95
  -2 -18   3    3.19    1.43
   3  18  -3    5.92    5.05
   3  18  -3   11.26    5.88
  -3 -18   3    0.60    1.02
  -3 -18   3    4.15    2.04
   4  18  -3   -1.31    5.22
   4  18  -3    5.41    6.24
   4  18   3   -4.75    5.10
  -4 -18   3    0.66    1.14
  -4 -18   3    5.18    2.33
   5  18  -3  -13.80    8.53
   5  18  -3   -8.94   10.61
  -5 -18   3   -3.05    2.91
  -5 -18   3   -3.95    1.53
   6  18  -3   -6.82    8.42
  -6 -18   3   -2.79    2.77
  -2  19  -3   -2.69    2.51
  -2  19  -3   -2.64    3.11
  -1  19  -3   -0.88    3.21
  -1  19  -3   -4.92    3.35
   1 -19   3    0.36    1.48
   1 -19   3   -0.73    1.58
   0  19  -3   -3.56    3.47
   0  19  -3   -0.71    3.58
   0 -19   3    0.37    1.74
   0 -19   3   -0.35    1.49
   1  19  -3   -1.89    3.72
   1  19  -3   -4.40    4.39
  -1 -19   3    0.34    1.36
  -1 -19   3   -1.94    2.01
   2  19  -3    1.14    5.21
   2  19  -3   -8.16    4.33
  -2 -19   3   -0.33    1.18
  -2 -19   3    2.83    2.00
   3  19  -3   -2.66    6.44
   3  19  -3   -3.66    4.84
  -3 -19   3   -3.31    1.95
  -3 -19   3    3.39    1.40
   4  19  -3    7.82    6.79
   4  19  -3   -4.28    6.13
  -4 -19   3   -1.81    2.20
  -4 -19   3   -0.32    1.16
   5  19  -3   12.77    9.47
   5  19  -3   -4.97    7.38
  -5 -19   3    1.27    1.06
  -5 -19   3    1.50    2.23
   6  19  -3   -3.42    6.47
  -6 -19   3    1.08    2.41
   0  20  -3   -0.97    3.51
   0  20  -3    3.98    3.96
   0 -20   3    2.50    1.64
   0 -20   3    0.33    1.28
   1  20  -3   -1.05    4.09
   1  20  -3   -2.82    4.84
  -1 -20   3   -3.02    2.03
  -1 -20   3    2.07    1.35
   2  20  -3   -3.42    5.22
   2  20  -3    4.84    5.60
  -2 -20   3    1.31    1.12
  -2 -20   3   -2.10    1.93
   3  20  -3    2.47    5.68
   3  20  -3   -1.40    6.31
  -3 -20   3   -1.31    2.01
  -3 -20   3    2.60    1.17
   4  20  -3   -9.44    6.82
   4  20  -3   -1.80    8.00
  -4 -20   3    0.47    2.03
  -4 -20   3    1.36    1.13
   5  20  -3   -1.55    6.51
  -5 -20   3    1.43    2.28
   2  21  -3   -6.13    5.16
  -2 -21   3    0.44    1.99
   0   0  -4  465.02   98.08
   0   0   4  430.74  115.48
   0   1  -4   -0.17    0.17
   0   1  -4    0.06    0.13
   1   0  -4   -0.07    0.20
   0   1  -4   -0.11    0.16
   0  -1  -4   -0.16    0.11
   1   0  -4   -0.14    0.14
  -1   0   4   -0.05    0.15
   0  -1   4    0.04    0.11
   0  -1   4   -0.09    0.23
   0   1   4    0.10    0.26
   1   1  -4    5.08    1.36
   1   1  -4    7.80    1.28
   1   1  -4    6.67    1.29
   1  -1  -4    5.85    1.45
   1  -1  -4    4.09    1.25
   1   1  -4    6.54    1.45
  -1  -1   4    6.35    1.27
  -1  -1   4    4.06    1.50
  -1   1   4    6.14    1.30
   1  -2  -4    4.76    1.07
   2   1  -4    5.28    0.97
   2   1  -4    5.92    1.02
   1  -2  -4    2.74    0.89
   2   1  -4    5.57    0.96
   2   1  -4    3.48    1.44
  -2  -1   4    3.05    1.26
  -2  -1   4    4.11    1.12
  -1   2   4    4.98    1.05
   2   0  -4  125.12   21.50
   0  -2  -4  107.79   24.36
   0   2   4  106.82   32.23
   2  -1  -4    2.35    0.93
   1   2  -4    4.32    1.12
   1   2  -4    7.54    1.10
   1   2  -4    4.63    1.09
   1   2  -4    4.36    0.93
  -1  -2   4    3.41    1.15
  -2   1   4    5.06    1.09
  -1  -2   4    5.39    1.08
   2   2  -4   83.63   15.99
   2  -2  -4   73.43   15.19
   2   2  -4   76.21   15.16
   2   2  -4   65.05   18.65
   2   2  -4   83.50   14.63
  -2   2   4   75.84   16.01
  -2  -2   4   69.41   18.96
   3   2  -4   72.47   16.83
   3   2  -4   73.27   24.43
  -3  -2   4   66.04   19.52
  -2   3   4   73.69   15.20
  -1   3  -4   15.57    4.17
   1  -3  -4   15.71    3.91
   1  -3  -4   15.12    3.16
   3   1  -4   15.96    4.23
   1  -3  -4   14.49    3.50
  -1   3   4   16.91    3.48
  -3  -1   4   15.56    4.65
  -1   3   4   17.64    3.27
  -1   3   4   15.45    2.97
   0  -3  -4   -0.06    0.17
   3   0  -4   -0.70    0.43
   3   0  -4   -0.64    0.58
   0   3  -4   -0.22    0.30
   0   3  -4   -0.65    0.31
   0  -3  -4   -0.20    0.30
  -3   0   4   -0.16    0.49
   0  -3   4    0.51    0.25
   0   3   4    0.25    0.40
   1   3  -4   14.66    3.61
   1   3  -4   17.40    3.43
   1   3  -4   16.16    3.50
   3  -1  -4    8.81    3.46
  -1  -3   4   14.01    3.48
  -1  -3   4   14.88    3.80
  -3   1   4   18.35    4.12
   2   3  -4   69.92   14.33
   3  -2  -4   72.37   15.38
  -2  -3   4   69.85   15.00
   3   3  -4  140.86   33.77
   3   3  -4  151.57   35.63
   3  -3  -4  141.28   28.09
   3   3  -4  136.83   36.20
  -3  -3   4  135.03   28.48
   3  -4  -4  100.47   20.95
   3  -4  -4  106.38   20.85
  -3   4   4  109.46   24.88
   2  -4  -4   52.01   12.11
   2  -4  -4   61.24   13.95
   2  -4  -4   61.10   11.07
  -2   4   4   67.27   14.34
  -2   4   4   63.05   14.38
  -2   4   4   66.18   16.24
  -1   4  -4    4.79    1.22
  -1   4  -4    3.91    1.12
   1  -4  -4    4.10    1.11
   1  -4  -4    4.38    0.97
   1  -4  -4    2.87    0.79
   1  -4  -4    5.60    1.05
   1  -4   4    4.16    1.04
  -1   4   4    3.78    1.15
  -1   4   4    5.21    1.00
  -1   4   4    4.39    0.91
   0  -4  -4  177.93   41.14
   0  -4  -4  212.26   48.06
   0  -4   4  234.10   48.90
   0   4   4  262.70   48.11
   0   4   4  191.50   53.23
   1   4  -4    4.47    1.20
   1   4  -4    4.23    0.98
   1   4  -4    4.76    1.01
  -1  -4   4    3.20    1.04
  -1  -4   4    5.01    1.15
  -1  -4   4    4.67    1.14
  -1  -4   4    4.40    0.86
   3   4  -4  107.76   27.14
   4  -3  -4  111.08   27.44
   3   4  -4  108.80   26.09
   4   4  -4  153.48   44.34
  -4  -4   4  149.24   29.88
   3  -5  -4   15.31    3.07
   3  -5  -4   14.38    3.00
  -3   5   4   14.77    3.35
  -3   5   4   12.97    3.74
   2  -5  -4   54.30   10.42
  -2   5   4   48.35   11.98
  -2   5   4   52.92   12.32
  -2   5   4   48.37   12.27
   1  -5  -4  135.67   32.00
   1  -5  -4  118.21   28.28
   1  -5  -4  129.39   25.38
  -1   5   4  140.14   31.43
   0  -5  -4   -0.13    0.27
   0  -5  -4    0.12    0.42
   0  -5  -4    0.21    0.43
   0   5   4    0.85    0.90
   0   5   4   -0.13    0.46
   0   5   4    0.32    0.64
   3   5  -4   12.15    4.50
   3   5  -4   15.69    3.81
   3   5  -4   15.15    3.61
  -3  -5   4   12.71    2.97
   4   5  -4    9.39    3.55
   4   5  -4    3.15    3.39
  -4  -5   4   10.37    2.04
  -4   6   4    5.87    1.48
   3  -6  -4    2.24    0.82
   3  -6  -4    2.12    0.51
   3  -6  -4    1.03    0.59
  -3   6   4    1.50    0.61
  -3   6   4    1.47    1.14
   2  -6  -4  293.80   50.88
  -2   6  -4  292.35   63.22
  -2   6   4  258.02   64.00
  -2   6   4  269.91   61.59
  -2   6   4  274.37   58.83
   1  -6  -4   -0.32    0.42
  -1   6  -4    0.15    0.59
   1  -6  -4    0.09    0.35
   1  -6  -4    0.34    0.27
  -1   6  -4   -0.40    0.64
   1  -6  -4   -0.10    0.46
   1  -6   4    0.14    0.50
  -1   6   4    0.43    0.54
  -1   6   4   -0.27    0.64
  -1   6   4    0.14    0.57
  -1   6   4   -0.39    0.59
   0  -6  -4   62.91   14.11
   0  -6  -4   57.97   12.66
   0  -6  -4   61.63   13.41
   0   6  -4   59.95   14.53
  -1  -6  -4    0.37    0.58
   1   6  -4    0.63    0.80
   1   6  -4   -0.65    0.72
   1   6   4   -0.53    1.89
  -1  -6   4   -0.15    0.55
   1   6   4    0.30    1.19
   2   6  -4  246.51   58.16
   3   6  -4    0.40    1.54
   3   6  -4    1.04    1.05
   4   6  -4    6.11    3.26
   4   6  -4    6.23    2.95
  -4  -6   4    5.92    1.33
   5   6  -4    9.59    8.78
  -5  -6   4   25.10    4.37
   5  -7  -4   16.46    4.02
   3  -7  -4    8.38    1.96
  -3   7  -4    8.19    2.18
   3  -7  -4    7.54    1.83
  -3   7   4    9.74    2.67
   3  -7   4    8.44    2.06
  -3   7   4    7.35    2.35
  -3   7   4    9.15    2.08
   2  -7  -4   -0.24    0.53
  -2   7  -4    1.36    0.92
   2  -7  -4   -0.13    0.52
   2  -7  -4    0.70    0.37
  -2   7  -4    0.35    0.73
   2  -7   4    0.32    0.60
  -2   7   4    0.27    0.64
  -2   7   4    1.12    0.91
  -2   7   4   -0.16    0.69
   1  -7  -4    9.13    2.09
   1  -7  -4    9.74    2.52
  -1   7  -4   11.22    2.56
   1  -7  -4   12.36    1.95
  -1   7  -4   11.12    2.50
   1  -7  -4    8.22    2.17
  -1   7   4   10.52    2.47
  -1   7   4   10.57    2.80
  -1   7   4   10.07    2.90
  -1   7   4   10.28    2.27
   1  -7   4    8.08    2.57
   0  -7  -4    0.69    0.53
   0   7  -4    0.23    0.82
   0  -7  -4    0.18    0.36
   0   7  -4    1.03    0.97
   0  -7   4    0.16    0.69
   0   7   4   -1.11    0.97
   0   7   4    0.18    0.71
   1   7  -4    8.13    2.56
   1   7  -4   12.07    2.65
  -1  -7  -4   11.65    2.36
  -1  -7   4    8.09    2.42
   2   7  -4    2.37    1.18
   2   7  -4    0.34    1.23
  -2  -7   4    1.23    0.59
   2   7   4    0.50    1.85
   3   7  -4    6.52    3.18
   3   7  -4   13.70    2.56
   5   7  -4   19.48    7.69
   5   7  -4   12.62    6.94
  -5  -7   4   18.60    3.32
   5  -8  -4   26.25    5.43
  -5   8   4   24.58    5.47
   4  -8  -4   22.23    4.38
  -4   8   4   18.68    4.60
  -3   8  -4    1.00    0.93
  -3   8  -4    2.13    0.99
   3  -8  -4    2.63    1.12
  -3   8   4    2.40    1.56
   3  -8   4    0.71    0.70
  -3   8   4    2.40    0.90
   2  -8  -4   16.04    4.52
  -2   8  -4   24.29    5.36
   2  -8  -4   25.50    4.92
  -2   8  -4   24.64    5.69
   2  -8   4   24.46    5.24
  -2   8   4   23.50    7.24
  -2   8   4   25.18    5.48
   2   8  -4   22.86    5.55
  -2  -8  -4   23.94    4.82
   2   8  -4   19.74    6.23
   2   8   4   20.47    8.45
   2   8   4   13.78    7.82
  -2  -8   4   25.62    5.40
  -2  -8   4   21.73    4.72
   3   8  -4    2.91    2.10
   3   8  -4    4.19    2.09
  -3  -8   4    2.13    0.77
   3   8   4    4.73    3.28
   4   8  -4   14.54    6.57
   4   8  -4    8.25    5.73
  -4  -8   4   17.68    3.24
   5   8  -4   14.22    8.82
   5  -9  -4   12.70    2.89
  -5   9   4   10.04    2.98
   4  -9  -4  125.23   25.03
  -4   9   4  114.52   27.08
  -3   9  -4   24.85    6.44
   3  -9  -4   27.95    5.58
  -3   9  -4   23.87    6.44
  -3   9   4   26.22    6.19
  -3   9   4   31.87    6.26
   3  -9   4   26.68    6.24
   2  -9  -4   31.73    6.16
  -2   9  -4   36.19    7.49
   2  -9  -4   35.76    7.13
   2  -9  -4   31.24    6.49
  -2   9  -4   30.96    7.42
  -2   9   4   29.12    8.72
  -2   9   4   33.78    9.54
  -2   9   4   30.32    8.00
   2  -9   4   31.53    6.92
  -2   9   4   30.40    7.24
  -1   9  -4   -0.29    1.04
   1  -9  -4    0.09    0.41
   1  -9  -4    0.13    0.62
   1  -9  -4    0.28    0.54
   1  -9  -4    0.97    0.79
  -1   9  -4   -0.23    0.93
  -1   9   4    0.73    1.13
   1  -9   4    1.41    0.84
  -1   9   4   -0.49    0.72
  -1   9   4   -0.99    1.11
  -1   9   4   -0.19    0.96
   0  -9  -4   -0.50    0.61
   0  -9  -4    0.19    0.87
   0   9  -4   -0.25    1.03
   0  -9  -4    1.08    0.62
   0   9  -4   -0.88    1.06
   0   9   4    0.32    1.21
   0   9   4   -0.34    1.53
   0   9   4    0.24    0.84
   0   9   4    0.14    0.76
   0  -9   4   -1.00    0.85
  -1  -9  -4    0.19    0.61
   1   9  -4   -0.36    1.38
  -1  -9  -4    0.40    0.60
   1   9  -4    0.86    1.27
   1   9   4   -0.77    1.57
   1   9   4    0.52    2.16
  -1  -9   4    0.21    0.85
  -1  -9   4    1.89    0.80
   2   9  -4   25.47    7.81
  -2  -9  -4   36.94    6.30
   2   9  -4   33.36    9.46
  -2  -9  -4   39.68    7.44
   2   9   4   16.83   10.70
   2   9   4   36.63   11.09
  -2  -9   4   29.34    7.27
   3   9  -4   14.47    8.33
   3   9  -4   33.08    6.96
   3   9   4   12.51    9.81
  -3  -9   4   28.58    4.57
   4   9  -4   87.50   41.46
   4   9  -4  128.10   32.99
  -4  -9   4  125.40   19.33
   5   9  -4    8.62    5.43
   5   9  -4    8.66    5.97
  -5  -9   4   17.36    2.34
   6   9  -4   27.04    8.35
  -5  10   4   41.70    8.26
  -4  10  -4   13.55    3.61
   4 -10  -4   15.14    3.06
  -4  10   4   14.14    3.63
   3 -10  -4   19.66    4.13
  -3  10  -4   23.30    5.02
  -3  10  -4   10.79    5.04
  -3  10   4   26.81    4.83
  -3  10   4   21.10    4.81
   3 -10   4   17.53    4.52
   2 -10  -4    8.65    2.88
   2 -10  -4   10.64    2.75
  -2  10  -4   12.76    3.08
  -2  10  -4   14.09    3.09
  -2  10   4    9.92    2.92
   2 -10   4   12.14    2.68
  -2  10   4   18.26    3.01
  -1  10  -4    3.40    1.43
  -1  10  -4    4.53    1.52
   1 -10  -4    2.59    1.00
   1 -10  -4    3.60    1.21
  -1  10   4    4.51    1.52
  -1  10   4    5.07    1.52
   1 -10   4    2.63    1.21
   0  10  -4  107.93   24.85
   0  10  -4  110.49   23.92
   0 -10   4  114.93   22.43
   0  10   4  100.30   26.40
   0  10   4   93.36   24.01
   1  10  -4    1.53    1.64
   1  10  -4    3.35    1.71
  -1 -10  -4    2.66    1.01
  -1 -10   4    5.58    1.10
   1  10   4    1.74    2.64
   1  10   4    1.30    1.96
  -1 -10   4    2.62    1.32
   2  10  -4   11.60    3.89
   2  10  -4   15.90    3.62
  -2 -10  -4   13.69    2.30
  -2 -10   4   11.91    2.84
   2  10   4   12.81    4.62
   2  10   4    9.87    5.13
  -2 -10   4    8.80    2.50
   3  10  -4   12.44    7.22
   3  10  -4   21.41    5.74
  -3 -10   4   20.00    3.55
   3  10   4   19.68    8.83
   4  10  -4   12.65    6.06
   4  10  -4   11.72    5.45
  -4 -10   4   12.19    2.54
   5  10  -4   40.73   15.58
   5  10  -4   32.20   11.21
  -3  11  -4    7.39    2.43
   3 -11  -4    9.18    2.00
  -3  11  -4   14.72    2.82
   3 -11   4    8.58    2.30
  -3  11   4   11.09    2.44
  -3  11   4    9.99    2.47
  -2  11  -4   25.07    5.65
  -2  11  -4   21.35    5.72
   2 -11  -4   22.87    5.61
   2 -11  -4   26.66    5.38
   2 -11   4   22.40    5.14
  -2  11   4   23.63    5.75
  -2  11   4   25.53    5.73
   1 -11  -4   79.10   15.86
   1 -11  -4   86.35   15.65
  -1  11  -4   74.07   17.25
  -1  11   4   84.97   18.80
  -1  11   4   73.99   17.89
   0  11  -4    0.33    1.59
   0 -11  -4    0.22    1.10
   0  11  -4    1.11    1.48
   0 -11  -4   -0.38    0.69
   0  11   4    0.37    1.46
   0 -11   4   -0.23    1.06
   0  11   4   -1.70    1.89
   1  11  -4   75.08   17.75
   1  11  -4   68.33   19.16
  -1 -11  -4   66.78   12.86
   1  11   4   61.13   21.75
  -1 -11   4   63.86   15.23
  -1 -11   4   72.17   14.69
   1  11   4   69.53   19.70
   2  11  -4   16.47    7.14
   2  11  -4   22.98    6.12
  -2 -11  -4   21.07    4.05
  -2 -11   4   27.25    4.94
   2  11   4   22.43    8.14
   2  11   4   18.94    8.25
  -2 -11   4   24.60    5.12
   3  11  -4    5.65    3.81
  -3 -11  -4    8.39    1.93
   3  11  -4    5.37    3.32
  -3 -11   4    8.20    1.77
   3  11   4    0.75    4.51
  -3 -11   4    5.73    2.33
   5  11  -4    0.93    4.27
   5  11  -4    4.59    4.71
  -5 -11   4   -1.07    1.03
   6  11  -4    8.68    5.58
  -6 -11   4    3.73    1.36
  -4  12  -4    2.41    1.28
   4 -12   4    0.76    1.05
  -3  12  -4    3.13    2.05
  -3  12  -4    8.93    2.39
  -3  12   4   10.59    2.24
  -3  12   4    2.39    2.16
   3 -12   4    5.99    1.81
  -2  12  -4   24.87    5.61
   2 -12  -4   21.12    5.09
   2 -12  -4   21.62    5.34
  -2  12  -4   24.45    5.88
   2 -12   4   26.82    4.89
  -2  12   4   27.65    5.58
  -2  12   4   24.25    5.79
  -1  12  -4   -0.31    1.33
   1 -12  -4    2.00    1.03
  -1  12  -4    0.42    1.46
   1 -12  -4    0.44    0.83
  -1  12   4    1.43    1.55
  -1  12   4    0.38    2.15
   1 -12   4    0.79    1.19
   0 -12  -4   97.51   21.25
   0 -12  -4   98.59   17.78
   0 -12   4   94.11   20.74
   0  12   4  104.93   23.81
   0  12   4   88.00   28.46
  -1 -12  -4   -0.27    1.32
   1  12  -4    0.83    1.74
   1  12  -4    0.95    1.93
  -1 -12  -4    0.23    0.79
   1  12   4    2.80    2.51
  -1 -12   4   -0.21    0.88
   1  12   4    2.11    3.22
  -1 -12   4    0.54    1.28
   2  12  -4   24.99    6.45
  -2 -12  -4   20.27    3.91
   2  12  -4   17.09    7.19
  -2 -12   4   20.76    5.07
   2  12   4   17.69    8.29
   2  12   4   17.05    7.80
  -2 -12   4   20.45    4.46
  -3 -12  -4    9.20    1.58
   3  12  -4   10.20    3.68
   3  12  -4   11.80    4.43
  -3 -12   4    8.87    2.24
  -3 -12   4    6.34    1.51
   3  12   4    2.58    4.47
   4  12  -4   -0.94    3.76
   4  12  -4    0.84    3.55
  -4 -12   4    0.46    0.89
   4  12   4   -2.03    4.12
   5  12  -4    2.21    4.81
  -4  13  -4    0.30    1.27
   4 -13   4    0.80    1.09
  -3  13  -4    2.03    1.69
  -3  13  -4    3.57    1.61
   3 -13   4    2.15    1.23
  -2  13  -4    4.78    2.03
  -2  13  -4   -0.61    1.60
  -2  13   4   -0.40    1.49
   2 -13   4   -0.26    1.06
  -2  13   4   -2.63    1.78
  -1  13  -4   13.31    3.43
   1 -13  -4   12.09    2.54
   1 -13  -4    9.73    2.68
  -1  13  -4   10.91    3.30
   1 -13   4   13.99    2.83
  -1  13   4   10.94    3.47
  -1  13   4   11.89    3.52
   0 -13  -4    0.24    0.96
   0 -13  -4    0.94    1.16
   0  13  -4   -1.56    1.89
   0  13  -4   -1.44    1.72
   0  13   4   -1.75    2.93
   0 -13   4   -0.27    1.24
   0 -13   4   -0.26    0.99
   0  13   4    2.26    2.07
  -1 -13  -4    8.17    2.72
   1  13  -4    5.24    4.00
   1  13  -4   10.68    3.46
  -1 -13  -4   15.46    2.19
  -1 -13   4   10.74    2.69
   1  13   4    5.99    4.03
   1  13   4    9.91    4.79
  -1 -13   4    8.45    2.46
   2  13  -4   -0.66    3.00
  -2 -13  -4   -1.32    1.75
  -2 -13  -4    0.27    0.91
   2  13   4   -2.84    3.36
   2  13   4    1.02    4.86
  -2 -13   4   -1.20    1.30
   3  13  -4    1.49    3.49
  -3 -13  -4    2.93    1.08
   3  13   4    0.84    3.59
  -3 -13   4    1.27    1.61
   4  13   4   -4.02    4.32
   5  13  -4    4.21    5.23
   5  13  -4   -4.67    5.04
  -5 -13   4    1.62    0.94
   6  13  -4    1.42    7.28
  -6 -13   4    7.77    1.88
  -5  14  -4   11.09    4.83
  -4  14  -4    2.79    1.68
  -1  14   4   -2.10    2.86
   0 -14  -4    5.18    2.28
   0 -14  -4   10.27    2.03
   0  14   4    8.93    3.43
   0  14   4   12.41    4.15
  -1 -14  -4    1.79    1.48
  -1 -14  -4   -0.78    0.97
   1  14  -4   -3.98    2.42
   1  14   4   -4.94    3.86
   1  14   4    1.21    2.40
  -1 -14   4    0.52    1.46
  -2 -14  -4    4.75    1.86
  -2 -14  -4    3.35    1.15
   2  14  -4   -0.60    2.88
   2  14   4   -3.91    3.85
  -2 -14   4    0.50    1.08
   2  14   4    7.92    5.08
   3  14  -4    3.51    3.39
  -3 -14  -4    0.30    1.08
  -3 -14   4    1.45    1.55
  -3 -14   4    1.36    1.05
   4  14  -4    1.92    4.57
   4  14  -4    5.71    5.21
  -4 -14   4   -3.75    0.99
  -4 -14   4   -0.40    1.84
   5  14  -4   26.43   10.99
   5  14  -4    8.03    7.86
  -5 -14   4   28.54    5.03
  -5 -14   4   21.53    3.33
   6  14  -4    7.49    6.24
   6  14  -4    1.44    6.02
  -6 -14   4    0.57    0.92
  -5  15  -4    0.33    1.59
  -4  15  -4   -1.04    1.85
   4 -15   4    5.16    1.56
  -3  15  -4   -0.63    2.40
  -3  15  -4    5.36    2.23
   3 -15   4    7.05    1.80
  -2  15  -4   -0.57    2.27
  -2  15  -4   -1.58    1.95
   2 -15   4   -0.28    1.30
  -1  15  -4   -1.24    1.96
  -1  15  -4    1.11    2.03
   1 -15   4    0.30    1.15
   1 -15   4    0.28    1.31
   0  15  -4    5.33    2.86
   0  15  -4    1.85    2.60
   0 -15   4   -0.52    1.10
   0 -15   4   -0.93    1.49
  -1 -15  -4    1.27    1.52
  -1 -15  -4    0.55    0.98
   1  15  -4   -1.89    2.89
   1  15  -4    0.53    2.64
  -1 -15   4    0.29    1.14
   1  15   4   -3.35    3.32
  -1 -15   4    2.80    1.61
   2  15  -4   -0.63    3.16
   2  15  -4    1.51    3.48
  -2 -15   4    0.34    1.61
  -2 -15   4   -0.27    1.10
   3  15  -4    4.76    4.29
  -3 -15  -4    0.62    1.15
   3  15  -4    7.10    4.38
  -3 -15   4    3.28    2.05
  -3 -15   4    5.49    1.33
   4  15  -4    6.03    4.98
   4  15  -4    2.13    4.46
  -4 -15   4    5.79    2.18
   4  15   4    6.44    5.24
  -4 -15   4    4.82    1.24
   5  15  -4   -1.31    5.15
   5  15  -4    5.10    5.56
  -5 -15   4    2.93    1.14
  -5 -15   4    0.45    2.01
   6  15  -4    9.41   13.06
   6  15  -4    1.57   10.52
  -4  16  -4    0.37    1.85
   4 -16   4    1.29    1.31
  -3  16  -4   -1.13    1.71
  -3  16  -4    2.09    2.26
   3 -16   4    0.68    1.38
  -2  16  -4    0.81    1.96
  -2  16  -4   -1.25    2.62
   2 -16   4    2.86    1.41
   2 -16   4    1.55    1.31
  -1  16  -4   -3.21    2.42
  -1  16  -4   -1.25    2.28
   1 -16   4   -0.57    1.20
   1 -16   4   -1.46    1.35
   0  16  -4    6.40    2.90
   0  16  -4    2.59    3.05
   0 -16   4    6.09    1.70
   0 -16   4    4.29    2.06
   1  16  -4   -3.54    3.19
   1  16  -4    0.59    2.81
  -1 -16   4   -0.67    1.45
  -1 -16   4    0.30    1.22
   2  16  -4   -1.78    3.90
   2  16  -4    0.71    3.62
   2  16   4    4.16    3.67
  -2 -16   4    2.07    1.69
   2  16   4    2.86    6.26
  -2 -16   4    1.08    1.03
   3  16  -4   -0.95    4.21
  -3 -16  -4    0.41    1.94
  -3 -16  -4    0.63    1.04
   3  16  -4   -0.91    4.37
   3  16   4    1.09    5.04
  -3 -16   4    0.38    1.95
  -3 -16   4    1.77    1.08
   4  16  -4   -4.61    5.17
  -4 -16  -4    0.43    2.11
   4  16  -4   -2.34    4.92
  -4 -16   4    1.74    1.99
  -4 -16   4    0.28    1.01
   4  16   4   -3.52    4.58
   6  16  -4    3.27    7.97
   6  16  -4   -1.53    6.44
  -6 -16   4    3.12    1.29
  -6 -16   4    3.13    2.80
  -5  17  -4    3.08    2.07
  -4  17  -4    0.39    2.00
   4 -17   4    3.04    1.42
  -3  17  -4    5.88    2.34
  -3  17  -4    0.77    2.33
   3 -17   4    3.42    1.57
  -2  17  -4    9.97    3.45
  -2  17  -4    4.17    2.92
   2 -17   4    5.87    2.26
   2 -17   4   11.68    2.57
  -1  17  -4   11.05    3.83
  -1  17  -4    5.79    3.58
   1 -17   4    5.26    2.53
   1 -17   4   13.00    2.56
   0  17  -4   -2.26    2.90
   0  17  -4   -2.96    2.96
   0 -17   4    0.37    1.67
   0 -17   4    0.32    1.25
   1  17  -4    4.75    4.23
   1  17  -4   12.61    4.47
  -1 -17   4    5.01    2.03
  -1 -17   4   13.22    2.60
   2  17  -4    0.88    4.47
   2  17  -4    4.04    4.79
  -2 -17   4    9.46    1.90
  -2 -17   4    5.95    2.38
   3  17  -4   -3.21    4.88
   3  17  -4    2.15    5.26
  -3 -17   4    0.60    1.24
  -3 -17   4    2.42    1.97
   4  17  -4    1.28    6.36
  -4 -17  -4    0.90    2.11
   4  17  -4   -3.94    5.03
  -4 -17   4   -0.86    2.02
  -4 -17   4    0.28    1.02
   4  17   4    2.34    5.18
   5  17  -4    1.45    6.54
   5  17  -4   12.84    8.07
  -5 -17   4    1.17    1.14
  -5 -17   4    4.89    2.40
   6  17  -4  -12.69    8.68
  -6 -17   4    1.29    1.01
  -6 -17   4    1.08    2.43
  -5  18  -4    2.05    2.06
  -4  18  -4   -3.06    2.17
   4 -18   4    1.08    1.26
  -3  18  -4   -0.90    2.31
  -3  18  -4   -2.55    2.76
   3 -18   4    0.37    1.70
   3 -18   4    4.68    1.71
  -2  18  -4    0.80    2.76
  -2  18  -4   -0.98    2.28
   2 -18   4    1.74    1.50
   2 -18   4    0.33    1.28
  -1  18  -4    3.97    3.21
  -1  18  -4    5.78    2.77
   1 -18   4    0.98    1.43
   1 -18   4    2.17    1.66
   0  18  -4   -0.64    2.99
   0  18  -4    1.64    3.23
   0 -18   4   -0.65    1.28
   0 -18   4    1.10    1.68
   1  18  -4   -1.85    4.02
   1  18  -4    3.76    3.79
  -1 -18   4    1.26    1.24
  -1 -18   4    0.38    1.71
   2  18  -4    0.96    4.25
   2  18  -4    5.29    3.89
  -2 -18   4    0.31    1.20
  -2 -18   4    3.09    1.86
   3  18  -4    7.86    5.90
   3  18  -4   11.05    5.33
  -3 -18   4    1.63    2.02
  -3 -18   4    6.33    1.40
   4  18  -4   -2.64    6.00
   4  18  -4   -2.54    5.12
  -4 -18   4    0.42    1.81
  -4 -18   4    0.60    1.13
  -5 -18   4   -2.02    1.39
  -5 -18   4   -3.86    2.53
   6  18  -4   -6.61    6.73
  -6 -18   4   -0.62    1.11
  -6 -18   4    1.52    2.30
  -3  19  -4    7.25    3.40
  -3  19  -4    4.69    2.38
   3 -19   4   -1.21    1.71
  -2  19  -4    0.87    2.96
  -2  19  -4    3.31    2.82
   2 -19   4    0.64    1.33
   2 -19   4    0.35    1.44
  -1  19  -4   -0.89    3.36
  -1  19  -4   -1.77    2.79
   1 -19   4    0.71    1.36
   1 -19   4    1.82    1.61
   0  19  -4   -0.88    3.46
   0  19  -4    2.73    3.26
   0 -19   4   -5.25    1.56
   0 -19   4   -0.34    1.65
   1  19  -4    1.93    3.44
   1  19  -4   -1.61    3.68
  -1 -19   4   -0.39    1.75
  -1 -19   4    0.95    1.22
   2  19  -4   -1.06    4.54
   2  19  -4   -3.02    4.74
  -2 -19   4    0.81    1.72
  -2 -19   4   -0.33    1.22
   3  19  -4    1.18    5.04
   3  19  -4   -7.02    6.01
  -3 -19   4    2.19    1.16
  -3 -19   4    3.01    2.12
   4  19  -4    8.21    6.30
   4  19  -4    1.39    5.65
  -4 -19   4    0.93    2.04
  -4 -19   4   -0.33    1.27
   5  19  -4  -11.25    9.04
   5  19  -4   11.21    6.73
  -5 -19   4    0.51    2.54
  -5 -19   4    0.34    1.16
   6  19  -4    3.52    6.92
  -6 -19   4   -0.33    1.06
  -6 -19   4    2.24    2.63
  -2  20  -4   -1.09    2.62
  -1  20  -4    0.68    3.21
  -1  20  -4    0.94    3.22
   1 -20   4   -0.73    1.62
   1 -20   4   -1.52    1.65
   0  20  -4   -5.97    3.56
   0  20  -4    2.04    3.65
   0 -20   4   -0.35    1.31
   0 -20   4    4.85    1.83
   1  20  -4    0.89    4.37
   1  20  -4   -1.06    4.13
  -1 -20   4   -0.36    1.40
  -1 -20   4    1.26    1.88
   2  20  -4    1.19    5.02
   2  20  -4    6.05    4.82
  -2 -20   4    3.04    1.40
  -2 -20   4    1.73    1.97
   3  20  -4   -5.09    5.26
   3  20  -4    4.12    6.38
  -3 -20   4    0.32    1.15
  -3 -20   4   -3.98    2.21
   4  20  -4    1.56    6.30
  -4 -20   4   -2.36    1.23
  -4 -20   4   -0.46    2.37
   0  21  -4   -1.11    3.83
   0 -21   4    0.84    1.79
   1  21  -4    6.93    4.58
  -1 -21   4   -2.09    1.96
   0   0  -5    0.13    0.18
   0   0   5   -0.11    0.32
   0   1  -5   26.83    6.03
   1   0  -5   22.56    4.70
   0   1  -5   21.36    4.91
   0  -1   5    9.43    5.38
  -1   0   5   24.65    4.92
   0  -1   5   21.59    4.66
   1  -1  -5    0.10    0.24
   1   1  -5   -0.08    0.25
   1   1  -5   -0.07    0.17
   1   1  -5   -0.05    0.14
   1   1  -5   -0.12    0.19
  -1  -1   5   -0.05    0.17
   1  -2  -5   29.95    5.75
   2   1  -5   30.22    7.34
   2   1  -5   31.16    7.27
  -2  -1   5   29.62    7.67
  -2  -1   5   36.11    7.76
   0  -2  -5    0.07    0.19
   0   2  -5    0.11    0.25
   2   0  -5    0.27    0.24
   2   0  -5    0.08    0.27
   0  -2  -5    0.12    0.30
   2   0  -5   -0.33    0.61
   0   2  -5   -0.08    0.20
   2   0  -5    0.08    0.20
   0   2  -5    0.32    0.27
  -2   0   5   -0.08    0.24
   0   2   5   -0.13    0.33
   0  -2   5    0.07    0.18
   0  -2   5    0.12    0.30
  -2   0   5   -0.24    0.26
   1   2  -5   27.87    6.51
   1   2  -5   34.02    6.80
   2   2  -5    0.17    0.23
   2  -2  -5    0.31    0.33
   2   2  -5    0.16    0.24
   2   2  -5    0.89    0.40
   2   2  -5   -0.14    0.43
   2  -2  -5    0.08    0.27
  -2  -2   5   -0.09    0.25
  -2   2   5    0.10    0.31
  -2  -2   5   -0.08    0.31
   2  -3  -5    5.37    1.23
   3   2  -5    4.54    2.02
   3   2  -5    7.30    1.62
   2  -3  -5    5.93    1.22
   3   2  -5    6.20    1.38
   3   2  -5    7.45    1.84
  -2   3   5    4.81    1.35
  -3  -2   5    6.30    1.57
  -3  -2   5    7.07    1.55
   1  -3  -5   52.52   12.15
   3   1  -5   54.51   13.47
  -1   3  -5   53.17   14.35
  -1   3  -5   57.84   15.62
   1  -3   5   63.13   12.95
   3   0  -5    1.01    0.47
   0  -3  -5    0.95    0.46
   0   3  -5    1.00    0.46
   3   0  -5    1.20    0.51
   0  -3  -5    0.92    0.30
   0   3  -5    0.82    0.43
  -3   0   5    1.87    0.62
   0  -3   5    1.71    0.41
   0   3   5    1.22    0.52
   1   3  -5   60.54   11.85
   1   3  -5   62.74   13.59
   3  -1  -5   56.17   11.98
  -1  -3   5   52.71   11.67
  -1  -3   5   61.78   13.38
  -1  -3   5   48.82   14.21
  -3   1   5   61.21   13.96
   2   3  -5    3.54    1.37
   3  -2  -5    4.45    1.31
   2   3  -5    6.85    1.38
   2   3  -5    4.16    1.19
   3  -2  -5    5.08    1.33
   2   3  -5    5.52    1.21
  -3   2   5    8.53    1.57
  -2  -3   5    5.22    1.39
  -2  -3   5    4.99    1.13
   3   3  -5    0.31    1.12
   3  -3  -5    0.31    0.48
   3   3  -5    0.30    0.51
   3   3  -5   -0.28    0.89
   3  -3  -5    0.50    0.43
  -3  -3   5    1.17    0.47
  -3   3   5    1.45    0.65
  -3  -3   5    0.66    0.57
   3  -4  -5  188.52   41.65
  -3   4   5  218.62   50.05
   2  -4  -5   79.72   15.14
   2  -4  -5   56.99   17.57
   2  -4  -5   95.76   16.31
  -2   4   5   84.45   18.27
  -2   4   5   99.68   17.79
   1  -4  -5  209.66   39.96
   1  -4  -5  197.63   46.18
   1  -4  -5  246.23   52.04
  -1   4   5  194.51   40.73
   4   0  -5    0.31    0.82
   0   4  -5   -0.12    0.42
   0  -4  -5    0.15    0.22
   0  -4  -5    0.13    0.45
   0   4  -5    0.60    0.43
   0   4   5    0.14    0.43
   0   4   5    0.16    0.55
   0  -4   5   -0.11    0.38
  -4   0   5    0.24    0.72
   1   4  -5  205.38   45.93
   1   4  -5  222.10   46.76
  -1  -4   5  162.75   51.62
   4  -2  -5   99.04   18.58
  -4   2   5   78.36   19.62
  -2  -4   5   93.32   21.49
   3   4  -5  211.50   45.48
  -4   3   5  204.92   51.09
   4   4  -5   -0.59    2.30
  -4  -4   5   -0.21    0.64
   4  -5  -5    3.88    1.59
   3  -5  -5   27.02    4.97
  -3   5   5   23.59    6.58
  -3   5   5   22.39    5.66
  -2   5  -5   13.91    2.97
   2  -5  -5   13.15    2.26
   2  -5  -5    9.20    2.32
   2  -5  -5   10.93    2.57
  -2   5   5   13.09    3.08
  -2   5   5   13.13    2.75
  -2   5   5   12.46    2.82
   1  -5  -5   12.33    3.28
  -1   5  -5   16.34    3.53
   1  -5  -5   17.32    3.53
   1  -5  -5   16.08    3.18
  -1   5   5   14.07    3.42
  -1   5   5   12.74    2.94
  -1   5   5   14.00    4.24
  -1   5   5   16.70    3.17
   0  -5  -5   19.78    3.94
   0   5  -5   19.40    4.36
   0  -5  -5   17.44    3.36
   0  -5  -5   16.25    4.42
   0   5   5   23.26    4.69
   0   5   5   17.43    4.51
   0   5   5   11.84    4.56
   1   5  -5   16.73    3.31
   1   5  -5   15.31    3.81
  -1  -5   5   14.65    3.62
   2   5  -5   10.99    2.70
   2   5  -5   14.83    2.81
  -2  -5   5    9.81    2.49
  -2  -5   5   14.11    3.60
   3   5  -5   24.09    6.13
   3   5  -5   26.32    6.45
   3   5  -5   27.20    5.77
  -3  -5   5   26.76    4.79
   4   5  -5    7.78    2.86
   4   5  -5   10.23    2.75
  -4  -5   5    8.44    1.50
   5   5  -5   -1.80    3.28
   5  -5  -5    0.80    0.93
  -5  -5   5    0.27    0.85
   4  -6  -5   16.07    3.51
  -4   6   5   17.96    3.61
   3  -6  -5  275.25   54.75
  -3   6   5  270.32   57.87
  -2   6  -5    0.58    0.82
   2  -6  -5    1.63    0.47
   2  -6  -5    0.79    0.56
   2  -6  -5    0.44    0.45
  -2   6  -5    0.34    0.69
  -2   6   5    1.34    0.71
  -2   6   5    1.61    0.56
   2  -6   5   -0.15    0.58
  -2   6   5    0.64    0.56
   1  -6  -5   43.55    9.15
   1  -6  -5   42.11    9.14
   1  -6  -5   43.34    8.15
  -1   6  -5   46.79   10.31
  -1   6   5   35.75    8.61
  -1   6   5   41.91   11.59
  -1   6   5   43.65    9.40
  -1   6   5   46.26   11.04
   0   6  -5    0.39    0.66
   0  -6  -5   -0.14    0.49
   0  -6  -5   -0.09    0.34
   0  -6  -5   -0.13    0.52
   0   6  -5    0.33    0.71
   0   6   5    0.37    0.75
   0  -6   5    0.72    0.57
   0   6   5    0.18    0.70
   0   6   5   -1.28    1.49
   1   6  -5   37.88    9.49
   1   6   5   27.29   13.44
   2   6  -5    1.06    0.36
   2   6  -5    3.53    1.09
  -2  -6   5    0.53    0.75
   3   6  -5  269.98   68.39
   3   6  -5  231.05   59.17
   4   6  -5    9.67    4.85
   4   6  -5    3.64    5.63
   4   6  -5   12.06    4.76
  -4  -6   5   18.48    3.00
   5  -7  -5    2.57    0.97
   4  -7  -5   -1.20    1.50
   4  -7  -5    1.77    0.85
  -4   7   5   -1.12    1.85
  -4   7   5    2.74    0.72
   3  -7  -5    0.83    0.47
  -3   7  -5    0.92    0.69
  -3   7   5    0.65    0.75
  -3   7   5    0.51    0.65
  -2   7  -5   12.80    3.89
  -2   7  -5   14.76    4.08
   2  -7  -5   17.87    2.93
   2  -7  -5   14.90    3.67
  -2   7   5   17.42    3.66
  -2   7   5   24.44    4.20
   2  -7   5   17.02    3.61
  -2   7   5   20.35    3.73
   1  -7  -5   -0.37    0.47
  -1   7  -5    0.25    0.79
   1  -7  -5   -0.47    0.58
   1  -7  -5    0.08    0.35
   1  -7  -5   -0.63    0.60
  -1   7  -5   -0.18    0.77
  -1   7   5   -0.26    0.63
  -1   7   5   -0.33    0.63
   1  -7   5   -0.82    0.68
  -1   7   5   -1.09    0.83
  -1   7   5   -0.32    0.86
   0  -7  -5    1.98    0.67
   0   7  -5    2.04    0.93
   0   7  -5   -0.20    0.75
   0  -7  -5    0.10    0.43
   0   7   5    1.19    0.88
   0   7   5    0.43    0.90
   0  -7   5    1.64    0.71
   1   7  -5    0.89    0.91
  -1  -7  -5    0.46    0.67
   1   7  -5   -0.28    1.02
  -1  -7   5   -0.52    0.74
   2   7  -5   16.59    4.05
   2   7  -5   11.41    4.12
  -2  -7   5   17.10    3.56
   3   7  -5    1.24    0.56
   3   7  -5   -1.21    1.72
   4   7  -5   -0.59    2.80
   4   7  -5   -0.31    1.68
   4   7  -5    1.17    2.37
  -4  -7   5    1.98    0.82
   5   7  -5   -0.88    3.41
   5   7  -5   -3.49    3.55
  -5  -7   5    2.51    0.91
   6  -8  -5   36.12    9.47
   5  -8  -5    0.58    0.83
  -5   8   5    0.70    0.67
   4  -8  -5    2.67    0.88
  -4   8   5    3.31    2.12
   3  -8  -5   -0.31    0.51
  -3   8  -5    1.51    0.95
   3  -8   5    1.82    0.72
  -2   8  -5   15.95    3.66
   2  -8  -5   13.55    2.75
  -2   8  -5   15.39    3.53
  -2   8   5   17.39    4.06
   2  -8   5   11.62    3.40
  -1   8  -5    2.94    0.94
  -1   8  -5    2.68    1.21
   1  -8  -5    0.65    0.67
   1  -8  -5    0.40    0.93
   1  -8   5    1.31    0.89
  -1   8   5   -1.87    1.48
  -1   8   5    0.55    1.46
   0   8  -5    1.15    1.07
   0  -8  -5   -2.25    0.91
   0  -8  -5    3.78    0.87
   0   8  -5   -1.30    1.07
   0  -8   5   -0.18    0.88
   0   8   5   13.76    2.95
   0   8   5    0.23    1.47
  -1  -8  -5    1.51    0.98
   1   8  -5    2.68    1.29
   1   8  -5    0.31    1.52
  -1  -8  -5    0.46    0.83
   1   8   5   -6.44    4.25
   1   8   5   -1.06    2.10
  -1  -8   5    0.99    0.99
   2   8  -5   21.05    3.93
   2   8  -5   14.78    4.39
   2   8   5   16.13    5.37
  -2  -8   5   12.18    2.67
  -2  -8   5   11.84    3.36
   3   8  -5    0.46    1.83
   4   8  -5    3.14    2.35
   5   8  -5   -2.39    3.16
   5   8  -5    0.96    3.66
   6   8  -5   24.87   15.00
  -6  -8   5   47.56    6.78
   6  -9  -5   23.32    4.60
   5  -9  -5   57.58   11.55
   4  -9  -5    7.34    1.75
  -4   9   5    8.22    2.09
  -3   9  -5   14.83    3.43
   3  -9  -5   12.96    3.10
   3  -9  -5   14.18    2.95
  -3   9  -5   16.73    3.61
   3  -9   5   14.06    3.25
  -3   9   5   14.28    3.26
  -3   9   5   11.90    3.19
  -2   9  -5    4.54    1.74
   2  -9  -5    6.65    1.27
   2  -9  -5    5.14    1.49
   2  -9  -5    3.82    1.53
  -2   9  -5    3.58    1.70
  -2   9   5    6.82    1.71
   2  -9   5    7.24    1.54
  -2   9   5    6.95    1.73
   1  -9  -5    3.01    0.99
   1  -9  -5    3.18    0.95
  -1   9  -5    6.58    1.41
   1  -9  -5    4.28    1.11
  -1   9  -5    2.71    1.43
   1  -9  -5    1.62    1.02
   1  -9   5    3.93    1.28
  -1   9   5    3.04    1.42
  -1   9   5    5.64    1.44
  -1   9   5    2.28    1.40
  -1   9   5    4.05    1.53
   0   9  -5   12.02    3.14
   0   9  -5   17.70    2.95
   0  -9  -5   11.78    2.39
   0  -9  -5   12.41    2.78
   0  -9  -5   12.56    2.55
   0   9   5   13.10    3.27
   0  -9   5   12.19    2.66
   0   9   5    8.70    3.02
   0   9   5   10.86    3.44
   0   9   5    6.74    3.74
   1   9  -5    7.06    1.57
  -1  -9  -5    1.93    1.03
  -1  -9  -5    4.13    1.11
   1   9  -5    3.65    1.51
   1   9   5    4.49    2.00
  -1  -9   5    3.78    1.21
  -1  -9   5    4.84    1.21
   1   9   5    5.38    2.71
  -2  -9  -5    6.34    1.61
   2   9  -5    2.82    2.01
  -2  -9  -5    5.04    1.46
   2   9  -5    5.76    2.14
  -2  -9   5    7.31    1.71
  -2  -9   5    6.40    1.30
   2   9   5    4.87    3.16
   3   9  -5    7.61    4.67
   3   9  -5   14.49    4.07
  -3  -9   5   14.62    2.53
   3   9   5    1.67    6.14
   4   9  -5    4.55    3.52
   4   9  -5    4.24    3.37
  -4  -9   5    7.92    1.66
   5   9  -5   57.08   20.38
   6   9  -5   13.79    9.55
   6 -10  -5   36.69    6.46
   4 -10  -5  112.89   21.55
  -4  10  -5  104.36   25.25
  -4  10   5   98.00   24.50
  -3  10  -5    0.43    1.34
   3 -10  -5    1.09    0.72
  -3  10  -5   -0.95    0.92
   3 -10   5   -0.70    0.87
  -3  10   5   -0.42    0.95
  -3  10   5   -1.13    1.12
  -2  10  -5   12.82    3.93
   2 -10  -5   17.12    3.48
  -2  10  -5   16.47    4.11
   2 -10  -5   18.86    3.77
  -2  10   5   12.80    4.01
  -2  10   5   16.39    3.93
   2 -10   5   14.71    3.48
  -1  10  -5   52.53   15.95
   1 -10  -5   70.02   13.11
   1 -10  -5   63.34   14.79
  -1  10   5   72.54   16.21
   1 -10   5   73.15   14.62
  -1  10   5   62.52   15.07
   0  10  -5   -1.39    1.33
   0  10  -5    0.35    1.10
   0 -10  -5   -0.78    0.83
   0 -10  -5    0.21    0.95
   0  10   5   -3.85    2.21
   0  10   5   -0.35    1.48
   0 -10   5    2.01    0.99
   1  10  -5   68.38   15.68
   1  10  -5   69.79   16.47
  -1 -10  -5   69.59   11.40
   1  10   5   67.73   19.56
   1  10   5   61.08   17.30
  -1 -10   5   59.50   13.50
   2  10  -5   11.24    4.30
  -2 -10  -5   15.09    3.28
   2  10  -5   12.28    4.81
  -2 -10   5   16.50    3.35
  -2 -10   5   16.80    3.61
   2  10   5   17.00    6.25
   3  10  -5    0.55    1.81
   3  10  -5    0.48    2.23
  -3 -10   5    0.42    0.70
  -3 -10   5    0.85    1.24
   3  10   5    3.13    3.10
   4  10  -5  100.57   36.71
  -4 -10   5  110.74   18.31
   5  10  -5   -6.91    4.16
   5  10  -5    5.36    3.99
  -5 -10   5    1.38    0.74
   6  10  -5    1.27   13.06
  -4  11  -5    6.88    2.34
  -3  11  -5   36.32    8.05
  -3  11  -5   36.05    8.46
   3 -11   5   46.00    7.58
  -3  11   5   36.74    7.87
  -3  11   5   27.35    8.62
  -2  11  -5   93.12   17.28
  -2  11  -5   79.98   17.52
   2 -11  -5   79.34   16.04
   2 -11  -5   81.52   16.50
  -2  11   5   86.49   17.82
   2 -11   5   74.04   15.44
  -2  11   5   95.09   18.58
   1 -11  -5    9.50    2.58
  -1  11  -5    7.47    2.83
   1 -11  -5   11.66    2.40
  -1  11  -5   10.32    2.93
  -1  11   5   13.87    3.17
   1 -11   5   12.03    2.71
  -1  11   5    9.03    3.36
   0  11  -5  171.80   45.84
   0 -11  -5  219.80   37.17
   0 -11  -5  190.37   43.54
   0  11  -5  203.45   48.34
   0  11   5  201.06   53.80
   0 -11   5  198.67   42.30
   0  11   5  204.78   46.07
  -1 -11  -5   12.66    2.12
   1  11  -5    6.03    2.99
   1  11  -5    8.95    3.35
  -1 -11   5   12.56    2.49
   1  11   5   12.36    4.50
  -1 -11   5    7.49    2.58
   1  11   5   14.74    4.22
   2  11  -5   70.91   18.85
   2  11  -5   64.63   21.14
   2  11   5   53.77   27.69
  -2 -11   5   70.30   14.84
   2  11   5   79.36   23.92
   3  11  -5   39.30    8.92
   3  11  -5   38.85   12.30
  -3 -11   5   37.54    6.29
  -3 -11   5   31.63    7.87
   3  11   5   19.98   13.41
   4  11  -5    7.05    4.03
   4  11  -5   -1.65    5.29
  -4 -11   5   11.26    1.82
   5  11  -5   10.48    7.03
   5  11  -5    8.66    8.31
  -5 -11   5   19.82    3.07
   6  11  -5   -1.31    5.98
   6  11  -5    2.60    5.81
  -6 -11   5    2.81    1.13
  -4  12  -5    2.74    1.44
  -3  12  -5   11.55    2.77
  -3  12  -5    9.44    2.54
   3 -12   5   10.47    2.28
  -2  12  -5   -2.19    1.66
  -2  12  -5    0.60    1.37
   2 -12   5    1.71    1.09
  -2  12   5   -1.64    1.70
  -2  12   5   -1.03    1.64
  -1  12  -5   53.51   13.72
   1 -12  -5   53.84   11.26
  -1  12  -5   63.90   13.88
  -1  12   5   59.36   14.89
  -1  12   5   58.19   14.72
   1 -12   5   57.82   12.68
   0  12  -5    2.16    1.78
   0  12  -5   -1.39    1.83
   0 -12  -5   -0.46    1.05
   0 -12  -5   -0.69    0.92
   0  12   5    2.62    2.06
   0  12   5    2.75    2.68
   0 -12   5    0.51    1.19
   1  12  -5   49.14   16.97
  -1 -12  -5   53.64    9.82
  -1 -12  -5   61.29   13.98
   1  12  -5   66.47   14.27
   1  12   5   54.63   18.73
  -1 -12   5   60.90   12.24
  -1 -12   5   62.41   12.00
   1  12   5   56.49   16.67
   2  12  -5   -0.45    2.15
   2  12  -5    1.79    2.42
  -2 -12  -5    1.12    0.93
   2  12   5   -1.12    5.09
   2  12   5    2.51    2.70
  -2 -12   5    1.69    0.94
  -2 -12   5    0.28    1.28
   3  12  -5    4.14    3.63
   3  12  -5    6.80    4.00
  -3 -12   5    3.11    2.33
  -3 -12   5   10.54    1.84
   3  12   5    5.65    4.91
   4  12  -5   -1.67    3.48
   4  12  -5    6.09    3.68
  -4 -12   5    3.68    2.09
  -4 -12   5    3.72    1.12
   4  12   5    3.11    4.30
   6  12  -5   -1.39    6.01
  -6 -12   5   -0.29    1.00
   4 -13   5    6.94    1.68
  -3  13  -5    2.87    1.44
  -3  13  -5    1.62    1.80
   3 -13   5    2.89    1.34
  -2  13  -5   36.53    8.21
  -2  13  -5   28.03    8.34
   2 -13   5   32.07    6.87
  -1  13  -5   -2.08    1.71
  -1  13  -5    1.42    1.84
  -1  13   5    0.47    2.26
   1 -13   5   -0.55    1.23
   0  13  -5   43.43    9.24
   0 -13  -5   36.37    8.96
   0 -13  -5   38.87    7.44
   0  13  -5   36.96    9.97
   0 -13   5   36.42    8.35
   0  13   5   39.52   11.07
   0 -13   5   41.02    9.10
   0  13   5   40.96   10.63
  -1 -13  -5   -0.25    0.91
  -1 -13  -5   -0.28    1.30
   1  13  -5    2.08    2.17
  -1 -13   5    1.97    1.41
   1  13   5    1.11    2.24
   1  13   5   -0.87    4.08
  -2 -13  -5   36.82    6.05
   2  13  -5   27.68   10.40
  -2 -13   5   37.87    7.10
   2  13   5   48.24   12.83
   2  13   5   45.42   13.57
   3  13   5   -1.58    3.33
   4  13  -5   -5.16    4.72
   4  13   5   12.35    5.15
  -4 -13   5    3.06    1.29
   5  13  -5    8.32    6.88
   5  13  -5   -1.08    5.98
  -5 -13   5   11.50    2.03
  -4  14  -5   -0.64    1.62
  -2  14  -5   -1.71    1.88
  -1  14  -5    0.40    2.92
   0  14  -5    0.39    1.67
   0 -14   5   -0.79    1.05
  -1 -14  -5   11.42    2.56
  -1 -14  -5    9.93    1.85
   1  14  -5    1.83    3.06
   1  14   5   11.15    3.86
  -1 -14   5    9.58    2.14
   1  14   5   12.22    4.90
   2  14  -5   -4.96    3.85
  -2 -14  -5    0.62    1.10
  -2 -14  -5    0.32    1.62
   2  14  -5   -1.11    3.04
   2  14   5   -1.45    3.35
  -2 -14   5    0.32    1.28
   2  14   5   -9.08    6.35
  -2 -14   5    1.34    1.17
   4  14  -5    2.90    4.60
   4  14  -5    7.01    4.60
   4  14   5   -2.13    4.93
  -4 -14   5    3.91    1.92
  -4 -14   5    3.16    1.11
   5  14  -5    3.42    5.23
   5  14  -5   -7.09    5.10
  -5 -14   5   -3.07    2.23
  -5 -14   5    0.26    0.98
   6  14  -5    6.20   12.47
   6  14  -5   19.44   15.20
  -6 -14   5   30.31    4.41
   7  14  -5  -12.97    7.72
  -5  15  -5   12.38    3.04
  -4  15  -5   -0.69    1.60
   4 -15   5    2.15    1.32
  -3  15  -5    6.21    2.15
  -3  15  -5    3.90    2.36
   3 -15   5    5.49    1.70
  -2  15  -5   -1.15    1.77
  -2  15  -5   -1.15    2.16
   2 -15   5    0.30    1.36
  -1  15  -5   -0.40    1.94
  -1  15  -5    0.57    2.16
   1 -15   5    1.21    1.37
   1 -15   5    1.32    1.19
   0  15  -5   -0.89    2.21
   0  15  -5    1.77    2.38
   0 -15   5    1.42    1.06
   0 -15   5   -0.93    1.54
   1  15  -5    0.53    2.80
   1  15  -5    1.97    3.32
  -1 -15   5   -1.61    1.62
  -1 -15   5   -2.25    1.63
   2  15  -5    0.82    3.47
   2  15  -5    1.28    3.22
  -2 -15   5    1.99    1.79
  -2 -15   5   -2.14    0.95
   2  15   5   -3.17    3.50
   3  15  -5   -0.78    3.69
   3  15  -5   -2.70    4.30
  -3 -15   5    1.87    1.98
  -3 -15   5    3.45    1.43
   4  15  -5   -3.04    4.53
   4  15  -5    4.28    4.34
  -4 -15   5    0.27    0.98
  -4 -15   5    1.99    1.81
   4  15   5    4.12    4.24
   5  15  -5    4.82    6.81
   5  15  -5   11.47    7.46
  -5 -15   5    8.52    1.86
  -5 -15   5    5.53    3.08
   6  15  -5    6.43    6.26
   6  15  -5    1.62    7.33
  -6 -15   5   -0.31    1.06
  -6 -15   5   -2.08    2.37
  -4  16  -5   -0.76    1.87
   4 -16   5   -0.32    1.28
  -3  16  -5    2.29    1.84
  -3  16  -5   -0.71    2.37
   3 -16   5   -0.33    1.40
  -2  16  -5    1.96    2.69
  -2  16  -5   -1.28    2.16
   2 -16   5    0.99    1.42
  -1  16  -5    8.89    3.14
  -1  16  -5    3.29    3.37
   1 -16   5   13.72    2.51
   1 -16   5    5.96    2.39
   0  16  -5    2.01    2.45
   0  16  -5    3.34    2.66
   0 -16   5    0.35    1.55
   0 -16   5    0.27    1.07
   1  16  -5    5.77    3.88
   1  16  -5    3.41    3.58
  -1 -16   5    7.97    2.29
  -1 -16   5    8.40    2.45
   2  16  -5   -0.81    3.29
   2  16  -5   -2.01    3.54
  -2 -16   5    5.99    1.43
  -2 -16   5    4.21    1.84
   3  16  -5   -0.95    3.49
   3  16  -5    7.52    4.12
  -3 -16   5    0.29    1.26
  -3 -16   5    1.81    1.82
   4  16  -5   -1.18    4.89
   4  16  -5    7.52    5.01
  -4 -16   5    5.38    1.95
  -4 -16   5    1.36    1.17
   4  16   5   -6.77    5.50
   5  16  -5   -5.35    5.92
   6  16  -5    1.70    7.75
   6  16  -5    1.60    6.69
  -6 -16   5    5.97    1.34
  -6 -16   5   -1.04    2.56
   7  16  -5    3.68    7.98
  -7 -16   5    9.95    3.39
  -5  17  -5   -0.40    1.93
  -4  17  -5   -0.82    1.93
   4 -17   5    0.35    1.27
  -3  17  -5   10.15    2.84
  -3  17  -5    7.02    3.61
   3 -17   5    8.11    2.25
  -2  17  -5    4.78    2.36
  -2  17  -5    2.93    2.46
   2 -17   5    0.68    1.40
   2 -17   5    0.34    1.52
  -1  17  -5    1.42    2.51
  -1  17  -5    5.08    2.66
   1 -17   5    0.71    1.68
   1 -17   5    1.29    1.37
   0  17  -5    2.20    2.94
   0  17  -5    3.63    2.55
   0 -17   5   -0.70    1.55
   0 -17   5    1.26    1.32
   1  17  -5    2.48    3.30
   1  17  -5    4.07    3.48
  -1 -17   5    0.74    1.87
  -1 -17   5    2.84    1.33
   2  17  -5    4.33    3.95
   2  17  -5    0.76    3.57
  -2 -17   5    1.82    1.71
  -2 -17   5    4.02    1.26
   3  17  -5    7.67    5.82
   3  17  -5    2.87    5.42
  -3 -17   5    4.36    2.58
  -3 -17   5    8.29    1.93
   4  17  -5   -3.69    4.96
   4  17  -5   -5.70    5.91
  -4 -17   5   -2.25    2.13
  -4 -17   5    0.30    1.05
   5  17  -5   -9.88    6.59
   5  17  -5   -1.47    6.37
  -5 -17   5    3.75    1.24
  -5 -17   5    2.42    2.44
   6  17  -5   -1.69    7.60
   6  17  -5   10.50    8.70
  -6 -17   5    4.19    1.21
  -6 -17   5    2.15    2.65
  -7 -17   5    1.67    2.62
  -4  18  -5    3.05    2.26
  -3  18  -5   -0.84    2.69
  -3  18  -5   -0.44    2.13
   3 -18   5    2.31    1.57
  -2  18  -5    5.48    2.70
  -2  18  -5    7.94    3.29
   2 -18   5    7.58    1.81
   2 -18   5    1.34    1.78
  -1  18  -5   -1.61    2.96
  -1  18  -5    3.76    2.74
   1 -18   5    1.53    1.21
   1 -18   5   -2.46    1.68
   0  18  -5   -2.92    3.09
   0  18  -5    4.84    3.06
   0 -18   5    0.34    1.40
   0 -18   5    0.35    1.56
   1  18  -5   -2.88    3.44
   1  18  -5    4.34    3.50
  -1 -18   5   -0.75    1.71
  -1 -18   5    0.33    1.29
   2  18  -5   -3.78    4.09
   2  18  -5    0.87    4.41
  -2 -18   5    0.78    2.05
  -2 -18   5    5.30    1.50
   3  18  -5    1.14    4.85
   3  18  -5   -2.24    5.63
  -3 -18   5    0.31    1.24
  -3 -18   5    2.79    1.84
   4  18  -5    6.56    6.44
   4  18  -5   -5.33    6.23
  -4 -18   5    5.67    2.28
   6  18  -5   -5.37    7.29
   6  18  -5    1.71    6.88
  -6 -18   5    0.32    1.13
  -6 -18   5    3.57    2.42
  -4  19  -5    2.83    2.38
  -3  19  -5    1.01    2.50
  -3  19  -5   -2.71    2.93
   3 -19   5    0.81    1.65
   3 -19   5   -0.39    1.68
  -2  19  -5   -0.89    2.88
  -2  19  -5    7.16    2.86
   2 -19   5    0.36    1.57
   2 -19   5   -0.39    1.47
  -1  19  -5    1.10    2.62
  -1  19  -5    6.98    3.42
   1 -19   5    1.79    1.62
   1 -19   5    1.76    1.45
   0  19  -5   -0.65    3.26
   0  19  -5   -2.67    3.61
   0 -19   5   -2.12    1.43
   0 -19   5    0.69    1.64
   1  19  -5   -0.97    3.67
   1  19  -5   -0.79    3.94
  -1 -19   5   -0.65    1.38
  -1 -19   5    3.75    2.02
   2  19  -5    1.05    4.51
   2  19  -5    0.91    4.77
  -2 -19   5    2.31    1.49
  -2 -19   5   -1.60    1.94
   3  19  -5   -1.17    4.70
   3  19  -5   -9.33    5.07
  -3 -19   5   -2.15    2.04
  -3 -19   5   -0.63    1.25
   4  19  -5   -7.49    6.60
   4  19  -5   -2.77    6.78
  -4 -19   5    4.37    1.25
  -4 -19   5   -1.37    2.15
   5  19  -5   -1.54    6.39
   5  19  -5    1.79    8.54
  -5 -19   5   -3.31    2.30
  -5 -19   5    0.33    1.16
   6  19  -5   10.69    7.23
  -6 -19   5    2.13    2.52
  -6 -19   5    0.99    1.23
  -3  20  -5    2.11    2.87
  -2  20  -5    1.00    3.12
  -2  20  -5    0.56    2.60
   2 -20   5    1.08    1.53
   2 -20   5   -1.62    1.66
  -1  20  -5    5.00    3.00
  -1  20  -5   -3.87    3.87
   1 -20   5    0.38    1.68
   1 -20   5    4.18    1.69
   0  20  -5   -1.03    4.02
   0  20  -5    0.76    3.73
   0 -20   5   -2.09    1.38
   0 -20   5    1.27    1.89
   1  20  -5    1.05    4.00
   1  20  -5    0.86    4.02
  -1 -20   5    3.72    1.90
  -1 -20   5    0.33    1.21
   2  20  -5   -4.75    4.90
   2  20  -5    1.05    5.02
  -2 -20   5   -3.83    2.10
  -2 -20   5   -5.24    1.42
   3  20  -5   -2.42    5.82
   3  20  -5   -1.27    4.84
  -3 -20   5    5.62    1.56
  -3 -20   5    4.90    2.40
   4  20  -5    8.63    6.37
  -4 -20   5    0.47    2.21
  -1  21  -5    1.10    3.60
   1 -21   5    1.64    1.87
   0   0  -6    1.47    0.42
   0   0   6    1.55    0.57
   0   1  -6   -0.12    0.25
   1   0  -6   -0.04    0.19
   0   1  -6   -0.08    0.20
   0  -1  -6   -0.27    0.32
   1   0  -6    0.12    0.17
   0   1  -6    0.37    0.25
   1   0  -6    0.53    0.20
   1   0  -6   -0.10    0.26
  -1   0   6    0.03    0.11
   0  -1   6    0.05    0.15
   0  -1   6    0.14    0.37
  -1   0   6    0.11    0.31
   1   1  -6   32.25    6.96
   1  -1  -6   22.30    6.84
   1   1  -6   36.30    7.45
  -1  -1   6   36.68    7.44
  -1  -1   6   27.13    8.21
   2   1  -6    9.25    2.00
   1  -2  -6    9.26    2.38
   2   1  -6    8.64    2.31
   2   1  -6   12.78    2.04
   2   1  -6    9.50    2.07
  -2  -1   6    8.91    2.19
  -2  -1   6   10.63    2.31
  -1   2   6    6.46    2.60
   2   0  -6  148.55   35.01
   0   2  -6  165.20   34.93
   2   0  -6  156.63   31.89
   2   0  -6  162.67   29.96
   2   0  -6  175.69   28.38
   0   2  -6  154.78   38.90
   0  -2  -6  146.57   37.89
  -2   0   6  136.92   37.50
   0  -2   6  144.28   33.05
   0  -2   6  135.96   42.59
  -2   0   6  163.89   33.19
   1   2  -6   10.60    2.51
   1   2  -6   10.62    2.20
   1   2  -6    8.72    2.17
   2  -1  -6   12.24    2.24
   1   2  -6   11.97    2.31
  -2   1   6   10.17    2.14
  -1  -2   6    9.94    2.42
  -1  -2   6    7.78    2.65
   2   2  -6  488.91  108.40
   2   2  -6  465.40  114.38
   2   2  -6  476.47  106.08
   2  -2  -6  506.58   99.34
   2  -2  -6  466.21  111.24
  -2  -2   6  498.30  114.34
   3   2  -6   97.22   23.80
   3   2  -6   83.44   21.94
   3   2  -6   90.50   20.16
  -3  -2   6   98.59   21.52
  -2   3   6   81.13   19.52
  -3  -2   6   87.10   21.16
   1  -3  -6   36.75    6.24
   3   1  -6   37.37    7.07
  -1   3  -6   23.55    9.65
   3   1  -6   32.63   11.66
   1  -3  -6   37.32    7.85
   3   1  -6   32.37    7.13
  -1   3  -6   34.52    8.63
  -3  -1   6   28.97    9.78
   1  -3   6   33.39    8.01
  -3  -1   6   42.57    7.93
   3   0  -6    0.13    0.37
   0   3  -6   -0.14    0.36
   0   3  -6    0.53    0.33
   0  -3  -6    0.33    0.23
   0  -3  -6    0.55    0.44
   3   0  -6   -0.13    0.34
   0  -3   6   -0.10    0.32
  -3   0   6   -0.25    0.42
   0   3   6   -0.15    0.42
   3  -1  -6   34.48    7.45
   1   3  -6   42.45    7.22
   1   3  -6   37.03    8.45
   1   3  -6   34.83    7.69
  -3   1   6   40.11    7.79
  -1  -3   6   36.70    8.54
   3  -2  -6   84.16   18.94
   2   3  -6   90.26   19.70
   2   3  -6  100.47   21.17
   2   3  -6   93.36   18.27
  -2  -3   6   86.12   20.86
   3   3  -6    0.31    0.46
   3  -3  -6    0.52    0.49
   3   3  -6   -0.12    0.41
   3   3  -6   -0.51    0.87
   3   3  -6    0.25    0.90
   3  -3  -6    0.88    0.48
  -3  -3   6    0.41    0.56
  -3  -3   6   -0.13    0.39
  -3   3   6    0.44    0.60
   4   3  -6   50.22   13.58
   3  -4  -6   51.39    9.48
  -3   4   6   46.30   11.03
   2  -4  -6  143.60   27.57
   4   2  -6  147.92   33.35
   2  -4  -6  122.98   30.29
  -2   4   6  143.18   28.58
  -4  -2   6  112.87   39.10
  -2   4   6  154.55   33.59
   1  -4  -6  106.70   29.20
   4   1  -6   89.33   25.15
  -1   4  -6  111.17   25.89
   1  -4   6  119.67   23.26
  -1   4   6  106.95   27.91
  -1   4   6  129.31   22.03
  -4  -1   6  118.12   25.57
  -1   4   6   85.74   30.56
   0  -4  -6    8.57    1.61
   0   4  -6    8.77    1.92
   0  -4  -6    7.03    2.03
   4   0  -6    8.40    1.94
   0  -4   6    8.59    1.98
   0   4   6    7.60    2.18
  -4   0   6    4.75    2.12
   1   4  -6  117.66   25.95
   1   4  -6  122.45   22.39
   1   4  -6  122.85   25.54
  -1  -4   6  110.40   28.02
  -1  -4   6  117.49   25.35
  -1  -4   6   94.31   22.68
   2   4  -6  138.85   32.33
   2   4  -6  141.70   28.44
   2   4  -6  153.84   31.82
  -2  -4   6  149.31   29.94
  -2  -4   6  137.94   32.00
   3   4  -6   56.72   14.14
   3   4  -6   56.58   10.38
  -3  -4   6   55.66   12.91
   4   4  -6   27.03    9.61
   4   4  -6   21.70    8.95
   4   4  -6   37.01    8.11
  -4  -4   6   38.86    6.61
   4  -5  -6   59.10   10.68
  -3   5   6  280.18   61.02
   2  -5  -6  137.92   28.96
   2  -5  -6  149.31   30.63
   2  -5   6  151.96   34.12
  -2   5   6  140.67   30.26
  -2   5   6  155.58   37.55
  -2   5   6  154.90   33.39
   1  -5  -6   86.99   19.45
   1  -5  -6   81.43   18.65
   1  -5  -6   89.39   17.66
  -1   5   6   90.79   17.57
  -1   5   6   90.33   17.08
  -1   5   6   93.15   18.81
  -1   5   6   89.20   21.98
   0  -5  -6   -0.14    0.56
   0   5  -6   -0.30    0.65
   0  -5  -6   -0.21    0.35
   0   5  -6    0.17    0.37
   0   5   6   -0.37    0.85
   0   5   6    0.36    0.67
   1   5  -6   76.58   20.48
   1   5  -6   81.27   19.19
   1   5  -6   90.41   18.43
  -1  -5   6   77.27   17.77
   2   5  -6  156.69   34.68
   2   5  -6  174.50   41.99
   2   5  -6  146.01   34.06
   3   5  -6  264.38   61.43
   3   5  -6  278.73   58.93
  -5   3   6  293.29   69.70
   4   5  -6   53.48   11.89
   4   5  -6   52.29   13.54
   5  -4  -6   55.11   11.38
   4   5  -6   60.73   15.10
  -5   4   6   37.89   13.37
   5   5  -6    8.12    4.35
   5  -5  -6    9.80    2.35
   5   5  -6   19.74    4.96
  -5  -5   6    8.91    2.15
  -5   5   6    8.99    2.95
   5  -6  -6   -0.21    0.95
  -5   6   6   -1.65    1.81
   4  -6  -6   59.58   12.33
  -4   6   6   62.57   14.36
  -4   6   6   67.46   14.95
  -3   6   6   16.43    3.50
   2  -6  -6  182.62   41.31
  -2   6  -6  195.13   42.97
  -2   6   6  184.38   45.01
  -2   6   6  191.83   36.14
  -2   6   6  197.06   40.53
   1  -6  -6   -0.09    0.37
   1  -6  -6    0.44    0.45
  -1   6  -6   -0.24    0.72
  -1   6  -6    0.49    0.66
   1  -6  -6    0.70    0.49
   1  -6  -6    0.42    0.55
  -1   6   6    0.13    0.59
  -1   6   6   -0.17    0.66
  -1   6   6    0.19    0.88
   1  -6   6    1.14    0.71
  -1   6   6    0.75    0.57
   0  -6  -6   13.06    2.63
   0   6  -6   13.16    2.85
   0  -6  -6   13.14    2.95
   0  -6  -6   10.63    2.43
   0   6  -6    9.82    2.66
   0   6   6    9.74    3.04
   0   6   6   13.18    4.17
   0   6   6    9.66    3.26
   0  -6   6   11.22    2.69
   1   6  -6    0.10    0.24
   1   6  -6   -0.22    0.81
  -1  -6   6    0.41    0.47
  -1  -6   6    0.23    0.28
  -1  -6   6   -0.16    0.64
   2   6  -6  207.45   57.78
   2   6  -6  182.83   40.16
   2   6  -6  209.85   45.26
  -2  -6   6  171.47   36.44
  -2  -6   6  208.43   43.60
  -2  -6   6  178.91   40.72
  -2  -6   6  193.95   51.19
   3   6  -6   11.41    3.99
   3   6  -6   11.66    3.60
   3   6  -6   15.85    3.45
  -3  -6   6   12.63    2.92
   4   6  -6   50.26   16.06
   4   6  -6   63.01   14.49
   4   6  -6   67.06   17.94
  -4  -6   6   61.75   11.53
   5   6  -6   -2.97    3.51
   5   6  -6   -1.59    3.61
  -5  -6   6   -0.22    0.72
   6  -6  -6    9.19    2.46
   6  -7  -6    3.57    1.30
   5  -7  -6    7.12    1.81
  -5   7   6    7.24    1.62
  -5   7   6    6.16    2.70
   4  -7  -6   14.38    3.16
   4  -7  -6   15.65    3.28
  -4   7   6   13.72    4.12
  -4   7   6   17.74    3.62
  -2   7  -6   21.41    4.75
  -2   7  -6   25.72    4.49
   2  -7  -6   19.63    4.35
  -2   7   6   21.00    4.05
  -2   7   6   19.30    4.62
  -1   7  -6    8.33    1.90
   1  -7  -6    8.85    1.75
  -1   7  -6    9.81    2.02
   1  -7  -6    7.75    1.58
   1  -7  -6    6.01    1.71
  -1   7   6   12.13    1.91
  -1   7   6    8.68    2.22
  -1   7   6    8.37    2.05
   1  -7   6    5.61    1.69
  -1   7   6    6.66    1.88
   0   7  -6   -0.23    0.75
   0  -7  -6   -0.18    0.62
   0  -7  -6    0.29    0.64
   0  -7  -6    0.11    0.42
   0   7  -6    1.13    0.83
   0   7  -6   -0.05    0.23
   0  -7   6   -0.34    0.71
   0   7   6   -0.70    0.99
   0   7   6   -0.44    1.96
   0   7   6    0.47    1.09
  -1  -7  -6   11.76    1.94
   1   7  -6    8.22    2.01
   1   7  -6    6.61    2.01
  -1  -7   6    6.33    1.99
  -1  -7   6    8.93    1.72
   2   7  -6   21.05    5.03
   2   7  -6   16.06    5.26
  -2  -7   6   19.61    4.45
   4   7  -6    9.09    4.39
   4   7  -6   11.35    4.00
   4   7  -6   19.33    5.16
  -4  -7   6   13.40    2.91
   5   7  -6    1.70    4.09
   5   7  -6    6.61    3.68
  -5  -7   6    5.33    1.42
   6   7  -6   -1.04    3.98
  -6  -7   6    1.09    0.78
   6  -8  -6   10.88    3.10
   5  -8  -6   11.32    2.51
   4  -8  -6    3.45    1.03
   4  -8  -6    2.28    1.21
  -4   8   6    5.31    1.94
   3  -8  -6    3.23    1.00
  -3   8  -6    3.08    1.32
   3  -8  -6    5.42    1.21
   3  -8  -6    3.45    0.86
  -3   8   6    5.57    1.31
  -3   8   6    3.64    1.72
   3  -8   6    2.64    1.07
  -2   8  -6   19.71    3.88
  -2   8  -6   15.24    3.85
   2  -8  -6   15.38    3.76
   2  -8   6   14.42    3.41
  -2   8   6   18.20    3.80
  -1   8  -6    1.38    0.98
   1  -8  -6    1.78    0.74
  -1   8  -6    1.56    1.07
  -1   8   6    2.88    1.02
   1  -8   6    1.36    0.81
   0  -8  -6   21.65    5.83
   0   8  -6   31.75    7.19
   0   8  -6   36.13    6.63
   0   8   6   25.02    7.80
   0   8   6   25.93    9.22
   0  -8   6   37.08    6.74
   1   8  -6    1.52    1.13
  -1  -8  -6    1.22    0.84
   1   8  -6    2.68    1.17
  -1  -8  -6    1.85    0.93
   1   8   6    3.39    1.91
  -1  -8   6    1.49    0.90
   2   8  -6   12.79    4.14
  -2  -8   6   18.02    3.42
   2   8   6   11.01    6.27
   3   8  -6    3.29    2.14
   4   8  -6    6.89    2.70
   4   8  -6    5.97    2.33
  -4  -8   6    2.83    1.05
   5   8  -6   11.30    5.06
   5   8  -6    8.65    4.69
  -5  -8   6    8.07    2.05
   6   8  -6    5.50    5.85
   6   8  -6    7.21    5.86
  -6  -8   6   16.34    2.44
   6  -9  -6   49.62   10.29
   5  -9  -6   12.23    2.74
   4  -9  -6    4.06    1.76
   4  -9  -6    5.40    1.49
  -4   9   6    7.22    1.62
  -4   9   6    7.23    2.60
   3  -9  -6    4.88    1.46
   3  -9  -6    5.15    1.26
  -3   9  -6    5.25    1.62
  -3   9  -6    1.53    1.54
  -3   9   6   10.59    2.50
   3  -9   6    5.38    1.45
  -3   9   6    4.45    1.58
   2  -9  -6   12.05    2.93
   2  -9  -6   13.14    2.77
  -2   9  -6   14.30    3.13
   2  -9  -6   12.34    2.60
  -2   9  -6   15.28    3.22
   2  -9   6   15.11    2.95
  -2   9   6   10.27    3.12
  -2   9   6    9.54    3.78
   1  -9  -6    1.69    0.85
  -1   9  -6    3.14    1.21
  -1   9  -6    0.24    1.20
   1  -9  -6    0.83    0.76
   1  -9   6    2.01    0.93
  -1   9   6    2.15    1.11
  -1   9   6    4.03    1.52
   0  -9  -6   -0.37    0.92
   0  -9  -6    0.19    0.74
   0   9  -6   -0.92    1.15
   0   9  -6   -0.51    1.03
   0  -9  -6   -0.16    0.70
   0   9   6   -0.48    2.20
   0   9   6   -0.16    0.81
   0  -9   6    0.21    0.93
   0   9   6   -0.31    1.23
   1   9  -6    2.09    1.28
   1   9  -6    3.31    1.50
  -1  -9  -6    2.09    1.03
  -1  -9  -6    0.34    0.89
  -1  -9   6    2.59    0.92
   1   9   6    6.30    1.95
   1   9   6    2.51    3.53
   2   9  -6   12.53    3.67
   2   9  -6   22.26    3.60
  -2  -9  -6   11.29    2.96
  -2  -9   6    8.68    2.80
   2   9   6    9.03    4.62
  -2  -9   6   10.62    2.59
   3   9  -6    8.56    2.54
  -3  -9   6    5.92    1.35
  -3  -9   6    3.65    1.77
   4   9  -6    6.37    3.50
   5   9  -6   11.93    5.60
   5   9  -6   15.62    5.54
   6   9  -6   33.28   18.25
   6   9  -6   28.58   16.45
  -6  -9   6   47.11    7.70
   7 -10  -6    2.92    1.46
   6 -10  -6   32.18    5.86
   5 -10  -6   89.98   17.09
   4 -10  -6    1.47    0.75
   4 -10  -6    0.82    1.55
  -3  10  -6   83.97   20.73
  -3  10   6  102.15   19.20
  -3  10   6   92.84   20.09
   2 -10  -6    9.03    2.60
  -2  10  -6   14.90    3.00
   2 -10  -6   12.99    2.36
  -2  10  -6   10.81    2.87
  -2  10   6    9.32    2.99
   2 -10   6   10.14    2.61
  -2  10   6    9.06    2.73
   1 -10  -6   16.34    3.31
   1 -10  -6   13.63    3.01
  -1  10  -6   13.82    3.75
  -1  10  -6   16.41    3.75
  -1  10   6   14.43    3.89
   1 -10   6   13.38    3.45
  -1  10   6   16.74    3.98
   0 -10  -6   54.81   10.54
   0 -10  -6   62.78   14.11
   0  10  -6   57.47   13.75
   0  10   6   62.97   17.18
   0 -10   6   62.69   12.67
   0  10   6   43.45   14.97
  -1 -10  -6   14.02    3.11
   1  10  -6   10.48    4.24
   1  10  -6   12.26    3.90
   1  10   6    8.75    5.77
  -1 -10   6   14.82    3.42
   1  10   6   15.12    5.01
  -1 -10   6   18.11    3.54
   2  10  -6   12.87    3.40
   2  10  -6    8.52    3.46
   2  10   6    8.61    4.67
  -2 -10   6   10.33    2.63
  -2 -10   6   10.05    2.15
   3  10  -6   77.55   27.69
  -3 -10   6  112.84   19.03
  -3 -10   6  101.79   15.94
   3  10   6   47.55   29.77
   4  10  -6    3.43    2.74
   4  10  -6    3.64    3.04
  -4 -10   6    2.26    1.00
   5  10  -6   70.71   29.85
   6  10  -6    8.54   11.28
  -4  11  -6   26.67    6.97
  -2  11  -6    6.96    2.78
  -2  11  -6   10.06    2.72
  -2  11   6   10.06    2.78
   2 -11   6    8.25    2.38
  -2  11   6   15.77    2.87
   1 -11  -6  186.44   41.32
  -1  11  -6  209.09   45.00
  -1  11  -6  204.92   41.81
   1 -11  -6  174.84   34.26
  -1  11   6  218.83   47.35
   0  11  -6    1.55    1.59
   0  11  -6   -0.62    1.48
   0 -11  -6   -0.21    0.83
   0 -11  -6    0.43    0.80
   0  11   6    1.45    1.54
   0 -11   6   -0.24    1.08
   0  11   6    0.61    2.75
  -1 -11  -6  198.43   31.01
   1  11  -6  191.35   50.19
   1  11  -6  195.21   44.60
  -1 -11   6  192.31   37.30
   1  11   6  211.44   55.69
  -1 -11   6  165.77   41.83
   1  11   6  154.62   60.17
   2  11  -6   10.11    3.78
   2  11  -6   10.31    3.30
  -2 -11   6   11.44    2.18
   2  11   6    5.48    4.33
  -2 -11   6   10.19    2.48
   4  11  -6   26.89   11.54
   4  11  -6   30.08    8.47
  -4 -11   6   29.84    7.04
  -4 -11   6   34.48    5.20
   5  11  -6   14.01    4.46
   5  11  -6    4.77    4.33
  -5 -11   6    2.42    1.07
   6  11  -6    6.52    5.38
  -4  12  -6   19.61    4.63
  -3  12  -6    4.13    1.96
  -3  12  -6    4.35    1.43
   3 -12   6   -0.27    1.12
  -2  12  -6   81.14   15.50
  -2  12  -6   82.98   16.31
  -1  12  -6   -1.22    1.58
  -1  12  -6   -0.42    1.66
  -1  12   6    3.69    2.41
   1 -12   6    3.14    1.16
   0 -12  -6   97.93   21.51
   0 -12  -6  102.39   16.26
   0  12  -6   88.38   24.38
   0  12   6   78.99   26.25
   0 -12   6  101.17   20.34
   0  12   6  109.20   24.61
  -1 -12  -6    4.33    1.02
   1  12  -6    0.75    1.79
   1  12  -6    0.47    2.16
  -1 -12  -6   -0.27    1.35
  -1 -12   6    0.67    0.92
  -1 -12   6    2.38    1.27
   1  12   6    1.87    4.24
   1  12   6    0.99    2.17
  -2 -12  -6   78.40   11.67
   2  12  -6   65.77   16.84
   2  12  -6   63.43   19.35
  -2 -12   6   62.84   13.72
  -2 -12   6   64.49   14.42
   2  12   6   58.67   24.58
   3  12  -6   -4.70    2.76
   3  12  -6   -1.71    2.93
  -3 -12   6    0.30    1.36
  -3 -12   6    0.48    0.87
   3  12   6   -3.35    3.30
   4  12  -6   20.89    7.56
  -4 -12   6   18.58    4.30
   6  12  -6   -5.23    6.18
  -6 -12   6    1.30    0.98
   7  12  -6   -1.47    6.02
  -3  13  -6    8.89    2.94
   3 -13   6    8.74    2.36
  -2  13  -6    4.83    1.80
   2 -13   6    0.27    1.22
  -1  13  -6   58.77   12.82
   1 -13   6   52.09   10.11
   0  13  -6    0.51    2.10
   0 -13   6   -0.28    1.12
  -1 -13  -6   66.72    9.12
   1  13  -6   42.92   14.51
   1  13   6   60.01   17.53
   1  13   6   47.74   19.72
  -1 -13   6   52.06   11.33
  -2 -13  -6    1.22    1.11
   2  13   6   -0.71    3.23
   3  13  -6    8.33    4.03
   3  13   6    6.93    5.11
  -3 -13   6    9.63    2.09
   4  13  -6    2.30    4.01
   4  13  -6    2.98    4.69
  -4 -13   6    3.61    1.42
  -4 -13   6   12.32    2.52
   5  13  -6    2.26    4.76
   5  13  -6    1.03    4.52
  -5 -13   6    0.43    2.25
  -5 -13   6    5.89    1.26
   6  13  -6    6.91    9.73
   6  13  -6   10.83   10.99
  -6 -13   6   19.06    3.09
   7  13  -6    1.47    6.25
  -7 -13   6    2.84    1.20
  -4  14  -6   -0.68    1.55
   4 -14   6   -0.61    1.11
  -3  14  -6    1.81    2.22
  -3  14  -6    1.02    1.79
   3 -14   6   -1.79    1.40
  -1  14  -6   -1.04    2.15
  -1  14  -6   -1.56    1.92
   1 -14   6    1.60    1.32
   0  14  -6   10.57    4.32
   0  14  -6   14.44    4.42
   0 -14   6   11.55    3.69
   0 -14   6   22.21    3.44
   1  14  -6   -5.34    2.87
   1  14  -6   -4.24    2.66
  -1 -14   6   -1.20    1.17
  -1 -14   6    0.61    1.62
  -2 -14   6   11.99    3.30
   3  14  -6    2.02    3.23
   3  14  -6    0.85    4.09
  -3 -14   6   -0.25    1.05
  -3 -14   6    3.35    1.74
   3  14   6   -1.69    4.17
   4  14  -6   -6.02    4.03
   4  14  -6    6.80    3.82
   4  14   6   -3.03    4.25
  -4 -14   6    0.71    1.52
  -4 -14   6   -0.27    1.10
   5  14  -6    1.12    6.49
   5  14  -6   10.88    6.75
  -5 -14   6   10.18    3.46
  -5 -14   6   10.59    1.98
   6  14  -6   -1.50    5.55
   6  14  -6    2.96    6.39
  -6 -14   6    0.82    0.92
   7  14  -6   17.50   10.52
  -7 -14   6   12.91    2.64
  -4  15  -6    1.73    3.13
   4 -15   6   15.07    2.86
  -3  15  -6    0.66    2.09
  -3  15  -6   -0.36    1.75
   3 -15   6   -0.95    1.40
  -2  15  -6   -1.11    1.75
  -2  15  -6   -1.20    2.09
   2 -15   6    1.91    1.39
  -1  15  -6   -1.81    2.18
  -1  15  -6   -0.81    1.93
   1 -15   6   -1.27    1.60
   0  15  -6   -2.39    2.48
   0  15  -6   -2.72    2.17
   0 -15   6    0.55    1.21
   0 -15   6   -0.65    1.57
   1  15  -6   -3.84    3.07
   1  15  -6    1.44    2.49
  -1 -15   6    0.56    1.23
  -1 -15   6   -1.28    1.54
   2  15  -6    1.55    3.11
   2  15  -6   -2.93    3.47
  -2 -15   6    0.84    1.23
  -2 -15   6   -0.65    1.55
   3  15  -6    1.68    3.69
   3  15  -6    0.72    3.54
  -3 -15   6    1.07    1.13
  -3 -15   6    0.34    1.60
   4  15  -6    9.79    6.03
   4  15  -6   12.67    6.50
  -4 -15   6   16.49    2.41
  -4 -15   6    9.62    3.22
   5  15  -6    5.22    6.75
   5  15  -6    3.64    6.05
  -5 -15   6    1.83    2.63
   6  15  -6    7.85    8.81
   6  15  -6   10.28    8.80
  -6 -15   6   16.38    2.43
  -6 -15   6    8.32    3.81
  -3  16  -6    4.32    2.48
  -3  16  -6    3.82    2.01
   3 -16   6    2.04    1.74
  -2  16  -6    0.88    2.21
  -2  16  -6    3.36    2.23
   2 -16   6   -2.63    1.47
  -1  16  -6   -0.88    2.30
  -1  16  -6   -0.66    2.45
   1 -16   6    1.05    1.44
   1 -16   6    1.99    1.43
   0  16  -6   -3.07    2.80
   0  16  -6    2.02    2.44
   0 -16   6    3.78    1.26
   0 -16   6   -1.01    1.47
   1  16  -6   -1.44    3.14
   1  16  -6    5.58    2.83
  -1 -16   6    4.00    1.46
  -1 -16   6    2.69    1.63
   2  16  -6   12.32    3.70
   2  16  -6    0.80    3.15
  -2 -16   6    0.71    1.69
  -2 -16   6    2.57    1.28
   3  16  -6    1.91    4.43
   3  16  -6    5.77    4.19
  -3 -16   6    5.62    1.47
  -3 -16   6    1.91    1.92
   5  16  -6   -4.07    5.62
   5  16  -6    1.27    5.97
  -5 -16   6    6.12    2.25
  -5 -16   6    0.28    1.05
   6  16  -6    1.77    8.80
   6  16  -6   11.63    8.34
  -6 -16   6    9.40    2.09
  -6 -16   6   12.92    3.53
   7  16  -6    3.41    7.40
  -7 -16   6    1.15    2.68
  -7 -16   6    0.30    1.06
  -4  17  -6   -0.41    1.86
  -3  17  -6    1.27    2.13
  -3  17  -6   -0.77    2.46
   3 -17   6    0.74    1.42
  -2  17  -6   -0.87    2.15
  -2  17  -6    9.64    3.03
   2 -17   6    2.32    1.51
   2 -17   6    5.26    1.70
  -1  17  -6   -0.48    2.39
  -1  17  -6   -1.48    2.83
   1 -17   6   -0.62    1.29
   1 -17   6    2.72    1.55
   0  17  -6   -1.55    2.63
   0  17  -6    3.02    3.04
   0 -17   6   -1.40    1.66
   0 -17   6    0.31    1.24
   1  17  -6    3.15    3.18
   1  17  -6   -3.27    3.09
  -1 -17   6   -2.15    1.58
  -1 -17   6   -0.31    1.31
   2  17  -6    2.98    3.86
   2  17  -6   -1.80    3.81
  -2 -17   6    4.76    1.31
  -2 -17   6   -3.00    2.07
   3  17  -6    1.12    4.88
   3  17  -6    1.75    4.03
  -3 -17   6   -0.30    1.24
  -3 -17   6   -2.31    1.91
   4  17  -6    4.67    5.24
   4  17  -6   -2.26    5.00
  -4 -17   6    0.40    1.84
  -4 -17   6    0.29    0.93
   5  17  -6   -2.89    5.83
   5  17  -6   -3.96    6.23
  -5 -17   6   10.62    2.65
  -5 -17   6    3.54    1.36
   6  17  -6   -3.59    8.08
   6  17  -6    1.61    6.99
  -6 -17   6    2.91    1.20
  -6 -17   6    3.41    2.44
   7  17  -6  -11.76   10.58
  -7 -17   6    4.09    2.94
  -7 -17   6    5.08    1.33
  -4  18  -6    0.84    2.15
  -3  18  -6    1.66    2.71
  -3  18  -6    0.46    2.16
   3 -18   6    4.73    1.86
  -2  18  -6    0.80    2.64
  -2  18  -6    3.93    2.43
   2 -18   6    0.37    1.55
   2 -18   6    2.95    1.56
  -1  18  -6   -1.64    3.10
  -1  18  -6   -2.18    2.70
   1 -18   6   -0.70    1.64
   1 -18   6    3.93    1.52
   0  18  -6   -1.19    3.01
   0  18  -6    0.81    3.17
   0 -18   6   -0.34    1.43
   0 -18   6   -1.27    1.37
   1  18  -6    5.31    3.37
   1  18  -6    4.42    3.74
  -1 -18   6    0.76    1.91
  -1 -18   6    4.11    1.40
   2  18  -6   -4.89    4.26
   2  18  -6   -2.39    3.87
  -2 -18   6    0.31    1.19
  -2 -18   6    2.72    1.89
   3  18  -6   -2.19    5.04
   3  18  -6    1.00    4.92
  -3 -18   6    2.06    1.94
  -3 -18   6    3.90    1.38
   4  18  -6    7.13    6.61
   4  18  -6   -3.91    6.36
  -4 -18   6    1.23    1.31
  -4 -18   6    4.47    2.22
   5  18  -6   -6.16    7.34
   5  18  -6   -2.80    7.90
   6  18  -6   -9.27    8.32
   6  18  -6    1.74    7.43
  -6 -18   6    1.26    1.07
  -6 -18   6   -1.08    2.54
   7  18  -6    5.60    7.60
  -7 -18   6   -1.13    2.53
  -4  19  -6    2.03    2.28
  -3  19  -6    2.75    3.00
  -3  19  -6    3.74    2.42
   3 -19   6    0.39    1.64
   3 -19   6    0.39    1.80
  -2  19  -6   -0.51    2.61
  -2  19  -6    1.80    2.91
   2 -19   6   -2.52    1.50
   2 -19   6    1.87    1.62
  -1  19  -6    5.48    2.68
  -1  19  -6   -0.86    3.11
   1 -19   6    0.37    1.75
   1 -19   6    1.41    1.49
   0  19  -6   -6.58    3.80
   0  19  -6    1.27    3.31
   0 -19   6   -0.78    1.66
   0 -19   6    0.35    1.39
   1  19  -6   -2.94    4.32
   1  19  -6    2.13    3.23
  -1 -19   6    3.16    1.57
  -1 -19   6   -0.81    1.84
   2  19  -6    4.50    4.68
   2  19  -6    4.49    3.98
  -2 -19   6   -0.35    1.32
  -2 -19   6    0.42    1.85
   3  19  -6   -3.58    5.35
   3  19  -6    1.16    5.80
  -3 -19   6    6.17    1.44
  -3 -19   6    5.11    2.40
   4  19  -6   -7.44    6.40
   4  19  -6    1.36    6.04
  -4 -19   6    0.44    2.14
  -4 -19   6    0.93    0.99
   5  19  -6    3.25    7.11
   5  19  -6    1.64    7.43
  -5 -19   6    1.27    1.20
  -5 -19   6   -0.47    2.39
   6  19  -6    1.91    7.75
   6  19  -6    1.88    6.61
  -6 -19   6   -0.53    2.51
  -4  20  -6    9.34    3.29
  -3  20  -6   -4.57    2.85
  -3  20  -6    2.72    2.94
   3 -20   6    0.77    1.54
   3 -20   6    0.37    1.45
  -2  20  -6    1.03    3.46
  -2  20  -6    4.58    3.02
   2 -20   6   -0.83    1.76
   2 -20   6    4.77    1.61
  -1  20  -6    0.62    2.87
  -1  20  -6   -3.98    3.58
   1 -20   6    0.82    1.70
   1 -20   6    0.38    1.49
   0  20  -6    2.06    3.79
   0  20  -6   -3.48    3.40
   0 -20   6   -0.41    1.85
   0 -20   6    2.10    1.33
   1  20  -6   -1.07    3.57
   1  20  -6   -0.81    4.12
  -1 -20   6    0.67    1.23
  -1 -20   6   -0.41    1.71
   2  20  -6   -6.91    5.17
   2  20  -6    8.57    5.56
  -2 -20   6    3.41    2.23
  -2 -20   6    1.74    1.36
   3  20  -6  -10.46    5.96
  -3 -20   6   -0.32    1.29
  -3 -20   6   -2.67    2.08
   0   0  -7    0.20    0.25
   0   0   7    0.17    0.49
   1   0  -7   35.51    7.18
   0   1  -7   36.93    8.22
   1   0  -7   33.44    7.84
   0   1  -7   37.24    8.56
   1   0  -7   36.77    8.16
  -1   0   7   36.60    9.23
   1   1  -7   -0.07    0.23
   1   1  -7    0.09    0.28
   1   1  -7   -0.94    0.33
   1  -1  -7   -0.13    0.38
   1   1  -7   -0.07    0.28
  -1  -1   7    0.19    0.23
  -1  -1   7    0.37    0.44
   2   1  -7   51.35   10.00
   1  -2  -7   45.58   10.25
   2   1  -7   51.01   10.27
   2   1  -7   45.01    9.19
   1  -2  -7   44.56    9.75
   2   1  -7   29.84   10.71
  -2  -1   7   51.27   11.42
   0  -2  -7   -0.18    0.27
   2   0  -7    0.08    0.32
   2   0  -7    0.42    0.31
   2   0  -7    0.07    0.26
   0   2  -7   -0.16    0.37
   2   0  -7   -0.12    0.35
   0  -2  -7    0.16    0.46
   0   2  -7    0.11    0.26
   0   2  -7    0.19    0.29
  -2   0   7   -0.05    0.19
  -2   0   7    0.05    0.24
   0  -2   7   -0.08    0.22
   0  -2   7   -0.17    0.57
   0   2   7   -0.17    0.49
  -2   0   7    0.45    0.31
   1   2  -7   48.09   10.93
   1   2  -7   46.83   10.13
   1   2  -7   53.35   11.01
   2  -1  -7   47.77   10.70
  -2   1   7   47.69   10.12
   2   2  -7   -0.09    0.28
   2   2  -7    0.13    0.40
   2  -2  -7   -0.26    0.39
   2   2  -7   -0.11    0.33
   2   2  -7   -0.24    0.45
   2  -2  -7    0.39    0.32
  -2  -2   7    0.26    0.26
  -2   2   7   -0.10    0.42
  -2  -2   7   -0.08    0.35
  -2  -2   7    0.19    0.36
   3   2  -7  344.69   79.72
   3   2  -7  382.57   92.62
   2  -3  -7  404.92   80.23
   2  -3  -7  390.06   78.19
   3   2  -7  424.29   77.78
  -3  -2   7  394.31   83.26
  -2   3   7  360.77   85.48
  -3  -2   7  353.06   82.24
   3   1  -7   56.70   12.81
   3   1  -7   59.38   12.49
  -1   3  -7   67.48   13.89
   1  -3  -7   61.28   11.61
   1  -3   7   52.68   13.23
  -1   3   7   60.31   15.86
   3   0  -7  223.13   29.16
  -3   0   7  168.45   51.46
   0   3   7  172.55   38.54
   1   3  -7   57.58   13.34
   1   3  -7   58.83   13.90
   1   3  -7   62.70   13.48
  -1  -3   7   58.72   13.33
   2   3  -7  389.49   86.62
   2   3  -7  402.66   84.78
   2   3  -7  338.14   83.81
   2   3  -7  315.57   82.50
  -3   2   7  400.60   81.94
  -2  -3   7  421.15   82.57
  -2  -3   7  330.07   88.74
   3   3  -7    0.36    0.50
   3   3  -7   -0.22    0.72
   3   3  -7    0.13    0.42
   3   3  -7   -0.23    0.93
  -3  -3   7    0.12    0.39
  -3  -3   7    0.13    0.54
   4   3  -7  163.61   37.90
   4   3  -7  157.82   46.26
   4   2  -7    3.50    2.33
   4   2  -7    0.20    0.80
   4   2  -7    1.04    0.73
   4   2  -7    1.26    1.22
   2  -4  -7    0.28    0.53
  -4  -2   7    1.74    0.78
  -4  -2   7    1.88    0.85
  -2   4   7    2.56    0.59
   1  -4  -7    9.96    2.27
   4   1  -7    9.64    2.61
   1  -4  -7    6.75    1.97
  -1   4   7   11.85    2.08
  -1   4   7    9.47    2.77
  -4  -1   7    9.64    2.54
   0  -4  -7    0.20    0.34
   0  -4  -7    0.68    0.58
   0   4   7   -0.19    0.64
   1   4  -7   12.41    2.44
   1   4  -7   10.56    2.51
  -1  -4   7    7.18    2.54
   4  -2  -7    1.36    0.71
   2   4  -7    0.81    0.44
   2   4  -7    1.13    0.42
  -2  -4   7    0.09    0.45
   3   4  -7  183.85   38.70
   3   4  -7  178.05   35.37
  -4   3   7  204.96   40.52
   4  -4  -7    0.63    0.76
   4  -4  -7    0.52    0.66
   4   4  -7   -0.84    1.52
   4   4  -7    0.59    0.76
   4   4  -7    1.80    1.73
  -4  -4   7   -0.17    0.61
  -4   4   7    0.47    0.96
   5   4  -7  107.36   38.31
   4  -5  -7  124.10   23.66
   4  -5  -7  111.58   21.81
  -4   5   7  109.42   25.47
  -5  -4   7  110.24   24.33
  -4   5   7  133.28   27.61
   3  -5  -7  113.10   22.76
  -3   5   7  113.70   25.61
   5   2  -7  328.49   84.07
  -2   5   7  327.21   61.22
  -1   5  -7   12.20    3.18
  -1   5  -7   16.58    3.07
   1  -5  -7   13.98    2.91
   5   1  -7   12.19    3.43
   1  -5  -7   15.01    3.39
  -1   5   7    7.23    4.33
   1  -5   7   11.68    3.03
   0  -5  -7  568.86  120.51
   0  -5  -7  630.11  125.34
   0   5  -7  618.17  139.93
   5   0  -7  602.71  135.41
   0   5  -7  584.97  122.75
   0   5   7  553.12  156.61
   5  -1  -7   12.05    3.29
   1   5  -7   13.36    3.11
   1   5  -7   12.77    3.71
   1   5  -7   14.02    2.93
   1   5  -7   12.40    3.24
  -5   1   7   15.42    3.18
  -1  -5   7   13.06    2.97
  -1  -5   7   13.37    2.78
  -1  -5   7   14.42    3.28
   5  -2  -7  365.93   74.16
   2   5  -7  321.94   76.91
   2   5  -7  354.65   77.38
   2   5  -7  322.78   75.77
  -2  -5   7  333.15   75.83
  -5   2   7  285.55   79.66
  -2  -5   7  296.38   70.47
  -2  -5   7  344.01   77.56
   5  -3  -7  105.71   25.79
   3   5  -7  102.25   22.90
   3   5  -7  118.06   25.95
   5  -3  -7  106.65   23.76
   3   5  -7  109.77   24.51
  -3  -5   7  124.01   29.11
  -5   3   7   98.36   25.67
  -3  -5   7  106.32   22.58
   4   5  -7  118.21   29.12
   4   5  -7  110.60   24.47
   5  -4  -7  113.58   24.89
   5  -4  -7   89.47   23.11
  -4  -5   7   97.38   21.84
  -5   4   7  122.01   25.96
   5   5  -7    1.26    2.42
   5  -5  -7    0.31    0.99
   5  -5  -7    1.93    0.90
   5   5  -7   -0.75    2.85
  -5  -5   7    0.22    0.81
  -5   5   7   -0.34    1.11
   6   5  -7   -0.97    4.09
   5  -6  -7    3.99    1.68
   5  -6  -7    8.42    1.58
  -5   6   7    5.27    2.11
  -5   6   7    5.21    1.37
  -4   6   7   70.01   15.61
  -4   6   7   76.46   16.74
   3  -6  -7  144.74   31.71
  -3   6   7  156.97   34.82
  -3   6   7  154.01   37.97
   2  -6  -7  143.18   29.35
   2  -6  -7  128.09   28.27
  -2   6  -7  142.22   33.65
  -2   6   7  152.65   29.65
   2  -6   7  159.74   30.45
  -2   6   7  146.41   26.18
  -1   6  -7   43.30   11.17
   1  -6  -7   43.11   11.33
   1  -6  -7   48.14   10.24
   1  -6  -7   56.19   10.56
  -1   6   7   58.89   10.44
  -1   6   7   56.29   12.05
   0  -6  -7    0.33    0.60
   0   6  -7    0.23    0.80
   0   6  -7   -0.37    0.43
   0   6  -7    0.18    0.78
   0  -6   7   -0.48    0.67
   0   6   7   -0.44    0.95
   1   6  -7   49.64   11.20
   1   6  -7   49.66   11.20
  -1  -6  -7   45.89   11.61
   1   6  -7   57.23   10.54
  -1  -6   7   40.07   13.99
  -1  -6   7   48.51   10.45
  -1  -6   7   44.39   10.65
   2   6  -7  142.45   29.48
   2   6  -7  134.20   34.52
   2   6  -7  130.96   33.69
   2   6  -7  157.65   29.29
  -2  -6   7  128.82   26.77
  -2  -6   7  138.02   27.68
  -2  -6   7  146.53   33.47
  -2  -6   7  114.18   35.11
   3   6  -7  151.29   35.18
   3   6  -7  158.62   36.92
  -3  -6   7  166.36   30.56
   4   6  -7   53.45   18.33
   4   6  -7   58.88   15.95
   4   6  -7   68.36   15.59
  -4  -6   7   70.82   12.74
   6  -5  -7    7.86    1.93
   5   6  -7    2.90    3.26
   5   6  -7    6.16    3.31
  -5  -6   7    4.85    1.34
   6  -6  -7    1.65    1.19
   6   6  -7    7.28    4.43
  -6  -6   7    0.28    0.86
   6  -7  -7   25.77    5.92
   5  -7  -7    2.41    1.08
   5  -7  -7    4.12    1.37
  -5   7   7    4.79    1.79
  -5   7   7    2.73    0.81
   4  -7  -7   60.37   10.71
   4  -7  -7   53.29   11.37
  -4   7   7   56.55   12.60
  -4   7   7   58.57   13.71
   3  -7  -7   70.43   13.86
   3  -7  -7   80.34   15.96
  -3   7   7   81.59   18.23
  -3   7   7   71.34   16.16
  -3   7   7   69.94   19.07
  -2   7   7  186.00   47.11
   1  -7  -7    3.16    0.89
   1  -7  -7    2.56    0.98
  -1   7  -7    3.90    1.24
  -1   7  -7    1.93    1.04
   1  -7   7    3.34    1.06
  -1   7   7    4.84    1.69
  -1   7   7    3.99    1.11
   0  -7  -7    0.17    0.71
   0  -7  -7   -0.24    0.87
   0   7  -7    0.22    0.33
   0   7  -7    0.52    0.92
   0   7   7    0.47    0.91
   0  -7   7   -1.46    0.78
   1   7  -7    2.69    1.25
  -1  -7  -7    1.35    1.07
   1   7  -7    2.95    0.78
  -1  -7   7    2.18    1.06
   1   7   7    0.44    2.28
  -1  -7   7    4.51    0.89
   3   7  -7   74.72   18.03
   3   7  -7   82.13   20.36
  -3  -7   7   79.26   15.63
   4   7  -7   35.61   13.96
   4   7  -7   59.57   15.50
   4   7  -7   63.29   14.51
  -4  -7   7   45.22    9.73
   5   7  -7    2.18    2.99
   5   7  -7   -0.72    2.76
   5   7  -7    1.19    1.41
  -5  -7   7    1.69    0.87
   6   7  -7   19.95   10.08
   6   7  -7   23.19    9.83
  -6  -7   7   25.82    4.56
   7  -8  -7   62.38   13.85
   6  -8  -7    0.73    0.91
   5  -8  -7    3.77    1.50
   5  -8  -7    2.27    0.91
  -5   8   7   -1.40    2.13
   4  -8  -7   25.92    5.15
   4  -8  -7   25.64    5.48
  -4   8   7   25.02    5.76
  -4   8   7   20.21    7.03
  -3   8  -7    0.22    1.00
   3  -8  -7    1.32    0.55
   3  -8  -7    2.19    0.59
   3  -8  -7   -0.21    0.87
  -3   8   7    1.84    0.84
  -3   8   7    3.63    1.36
  -3   8   7    1.64    0.94
  -2   8  -7   68.11   14.97
   2  -8  -7   66.61   13.14
   2  -8  -7   65.14   13.40
  -2   8  -7   54.20   14.09
  -2   8   7   55.64   13.79
  -2   8   7   69.42   15.97
  -2   8   7   65.04   12.84
   1  -8  -7   21.52    4.75
  -1   8  -7   20.52    4.74
  -1   8  -7   20.78    4.81
   1  -8  -7   21.14    4.02
   1  -8   7   18.79    4.76
  -1   8   7   20.07    5.68
  -1   8   7   21.47    4.93
   0   8  -7   -0.45    0.99
   0   8  -7    0.86    1.04
   0  -8   7    2.44    0.96
   1   8  -7   14.38    5.21
  -1  -8   7   22.05    4.45
   1   8   7   15.27    6.57
   2   8  -7   68.02   14.95
   2   8   7   28.55   21.89
   3   8  -7    0.36    1.51
   3   8  -7    1.68    1.45
  -3  -8   7    1.55    0.83
  -3  -8   7    0.70    1.03
   4   8  -7   21.74    6.61
   4   8  -7   18.22    7.75
  -4  -8   7   24.83    4.33
   5   8  -7    2.08    3.12
   5   8  -7    4.64    3.19
  -5  -8   7    0.22    0.81
   6   8  -7    3.30    3.97
   6   8  -7   -5.55    4.55
  -6  -8   7    0.84    0.92
   7  -9  -7   11.58    2.66
   6  -9  -7   44.64   12.05
   5  -9  -7   27.83    6.75
  -5   9   7   26.11   10.47
   4  -9  -7    5.58    1.43
   4  -9  -7    2.18    0.83
  -4   9   7    0.41    2.08
   3  -9  -7    1.40    0.56
  -3   9  -7   -0.25    0.95
   3  -9  -7    0.85    0.90
  -3   9   7    0.73    0.95
  -3   9   7   -0.63    1.57
   3  -9   7   -0.21    0.73
  -2   9  -7    0.23    1.07
  -2   9  -7    1.46    1.24
   2  -9  -7   -0.16    0.63
   2  -9  -7    2.40    0.90
   2  -9  -7    0.12    0.52
   2  -9   7    0.60    0.75
  -2   9   7    0.52    1.28
  -2   9   7    0.46    1.10
  -2   9   7    0.64    0.96
   1  -9  -7    6.92    1.54
  -1   9  -7    6.12    1.74
   1  -9  -7    6.46    1.33
   1  -9  -7    4.09    1.35
  -1   9  -7    3.92    1.77
   1  -9   7    6.97    1.48
  -1   9   7    5.40    1.97
  -1   9   7    7.37    2.23
  -1   9   7    4.24    2.16
   0  -9  -7    1.65    0.65
   0  -9  -7    2.08    0.89
   0   9  -7    3.12    1.21
   0   9  -7    1.62    1.31
   0   9   7   -3.69    2.84
   0   9   7    0.90    1.43
   0  -9   7    2.22    1.07
   0   9   7    2.29    1.32
   1   9  -7    4.11    1.96
   1   9  -7    6.38    1.96
  -1  -9   7    4.63    1.53
   1   9   7    9.56    2.62
   2   9  -7    2.02    1.64
   2   9   7   -1.69    2.31
  -2  -9   7   -0.46    0.96
   3   9  -7    0.53    1.98
  -3  -9   7    0.52    0.91
   4   9  -7    4.47    2.65
   4   9  -7    2.10    2.50
  -4  -9   7    2.85    0.94
   5   9  -7   31.86   12.29
   5   9  -7   42.89    9.91
  -5  -9   7   38.87    5.31
   6   9  -7   56.68   19.74
   6   9  -7   44.51   17.82
  -6  -9   7   62.47    8.05
   7   9  -7    4.15    7.30
   7 -10  -7   54.31   13.31
   6 -10  -7   23.50    5.78
   4 -10  -7   44.40    7.16
   3 -10  -7   -0.26    0.58
  -3  10  -7   -0.44    1.21
   3 -10  -7    1.34    1.10
  -3  10  -7    0.81    1.18
   3 -10   7    0.23    0.90
  -2  10  -7   17.60    4.15
  -2  10  -7   17.54    4.12
   2 -10   7   17.71    3.80
  -2  10   7   21.98    4.19
  -2  10   7   19.73    4.15
  -1  10  -7   42.77   10.49
  -1  10  -7   42.20   10.31
   1 -10  -7   47.29    9.14
   1 -10   7   45.19    8.85
  -1  10   7   39.78   10.63
   0 -10  -7   -0.67    0.84
   0  10  -7   -1.10    1.12
   0 -10  -7    0.58    0.87
   0  10  -7    1.66    1.32
   0 -10   7   -0.47    1.05
   0  10   7   -0.63    2.81
   0  10   7    0.98    1.39
   1  10  -7   41.50   11.56
  -1 -10  -7   50.17    8.61
   1  10  -7   46.36   11.65
   1  10   7   43.15   14.04
   2  10  -7   12.84    4.33
   2  10  -7   17.29    4.97
  -2 -10   7   14.74    3.50
   2  10   7   10.32    6.56
  -2 -10   7   14.14    3.63
   3  10  -7   -0.54    2.13
  -3 -10   7   -0.27    1.10
  -3 -10   7   -0.43    0.82
   4  10  -7   32.43   13.26
  -4 -10   7   40.49    8.41
   5  10  -7   12.19    5.42
   6  10  -7   24.54   11.22
   6  10  -7   28.26    9.75
  -6 -10   7   24.19    4.02
   7  10  -7   20.57   24.33
  -3  11  -7   26.59    5.77
  -3  11  -7   26.19    5.59
   3 -11   7   23.25    5.54
  -2  11  -7   87.62   17.57
  -2  11  -7   74.66   18.79
  -1  11  -7    3.91    1.72
  -1  11  -7    0.58    1.26
  -1  11   7    0.97    1.56
   1 -11   7    2.55    1.09
  -1  11   7    1.87    2.55
   0  11  -7  135.40   30.92
   0 -11  -7  124.62   21.92
   0  11  -7  133.57   29.27
   0 -11  -7  129.18   29.48
   0 -11   7  117.58   26.21
   0  11   7  120.97   32.35
   0  11   7  128.77   35.31
   1  11  -7    2.41    1.84
   1  11  -7    0.42    1.87
  -1 -11  -7    4.44    1.18
  -1 -11   7    3.01    1.38
   1  11   7   -0.47    1.97
  -1 -11   7    1.17    1.29
   2  11  -7   67.99   20.53
  -2 -11   7   82.19   15.28
   3  11  -7   16.09    7.26
   3  11  -7   19.89    6.53
  -3 -11   7   26.66    4.74
  -3 -11   7   21.41    4.47
   3  11   7   18.56    9.37
   4  11  -7   -3.72    2.86
   4  11  -7   -1.48    2.98
  -4 -11   7    0.96    1.52
  -4 -11   7    0.90    0.85
   5  11  -7   59.79   14.91
   6  11  -7    4.46    4.97
  -7 -11   7    2.59    1.33
  -4  12  -7   -0.29    1.19
  -3  12  -7   72.91   11.04
  -3  12  -7   64.28   11.41
  -2  12  -7    3.10    1.61
  -2  12  -7    3.73    1.71
   2 -12   7    3.04    1.50
  -1  12  -7  163.20   35.24
  -1  12  -7  167.80   37.32
   0  12  -7    1.02    1.76
   0  12  -7   -1.77    1.87
   0 -12   7   -1.33    1.25
  -1 -12  -7  177.67   26.43
   1  12  -7  182.64   39.11
   1  12   7  177.04   48.27
  -1 -12   7  161.96   35.91
   1  12   7  159.42   52.80
   2  12  -7    5.10    2.78
   2  12  -7    6.01    2.47
  -2 -12   7    3.82    1.23
   2  12   7    4.85    3.07
  -2 -12   7    3.04    1.57
   3  12  -7   45.76   14.23
   3  12   7   21.06   16.78
   5  12  -7   -0.92    4.58
  -5 -12   7    5.30    1.37
   6  12  -7    3.67    5.01
   7  12  -7   -3.09    7.50
  -4  13  -7    0.62    1.39
   2  13  -7    5.50    5.70
  -2 -13   7   26.93    4.36
   2  13   7   21.59    7.98
   3  13  -7   -3.01    2.89
   3  13   7    2.55    3.73
  -3 -13   7    1.23    1.02
   4  13  -7    5.15    3.55
   4  13  -7   -3.53    3.62
  -4 -13   7   -0.68    1.64
  -4 -13   7   -1.07    1.03
   5  13  -7   -4.84    4.82
   5  13  -7    9.75    5.57
  -5 -13   7    1.97    2.37
  -5 -13   7    8.63    1.55
   6  13  -7   -1.37    5.94
   6  13  -7   -1.22    5.56
  -6 -13   7    1.13    0.96
   7  13  -7    1.54    6.08
  -4  14  -7   11.52    4.51
  -3  14  -7    3.65    1.80
  -3  14  -7    0.61    2.04
   3 -14   7    1.27    1.48
  -2  14  -7    3.39    2.27
  -2  14  -7   -1.75    1.92
   2 -14   7    0.92    1.64
   2  14  -7    7.16    3.74
  -2 -14   7    1.40    1.55
  -2 -14   7    7.97    2.40
   3  14  -7   -0.77    3.83
   3  14  -7    6.75    3.26
  -3 -14   7    3.03    1.19
   3  14   7   -0.85    3.83
  -3 -14   7    3.89    1.60
   4  14  -7    1.58    6.01
   4  14  -7   17.58    8.12
  -4 -14   7   12.38    4.18
   5  14  -7   -3.91    5.33
   5  14  -7   10.20    4.58
  -5 -14   7    1.05    1.11
  -5 -14   7    2.65    2.27
   6  14  -7    1.32    9.02
   6  14  -7    8.50   10.62
  -6 -14   7   22.58    3.29
  -6 -14   7   18.93    5.19
   7  14  -7    6.55    8.22
   7  14  -7    1.58    8.00
  -7 -14   7    8.75    1.80
  -4  15  -7   -0.34    1.59
  -3  15  -7   -1.10    1.84
  -3  15  -7   -2.63    2.30
   3 -15   7    0.34    1.23
  -2  15  -7   -1.86    2.22
  -2  15  -7   -1.51    1.81
   2 -15   7   -0.63    1.26
  -1  15  -7    0.60    2.01
  -1  15  -7   -0.84    2.05
   1 -15   7    0.98    1.47
   0  15  -7    0.43    2.04
   0  15  -7    1.84    2.37
   0 -15   7    0.30    1.31
   0 -15   7    0.65    1.56
   1  15  -7   -0.65    2.58
   1  15  -7    1.99    2.37
  -1 -15   7   -0.27    1.13
  -1 -15   7    4.10    1.74
   2  15  -7   -3.59    3.20
   2  15  -7   -2.88    3.37
  -2 -15   7   -0.67    1.78
  -2 -15   7    0.28    1.11
   3  15  -7    2.14    3.60
   3  15  -7   -3.59    3.89
  -3 -15   7   -2.15    1.62
  -3 -15   7    0.27    1.12
   4  15  -7   -0.88    4.43
   4  15  -7    8.77    4.05
  -4 -15   7    0.78    1.88
  -4 -15   7    2.55    1.12
   5  15  -7   14.39    5.81
   5  15  -7   -4.89    5.72
  -5 -15   7    6.13    2.35
  -5 -15   7    5.56    1.47
   6  15  -7   21.72   16.53
   6  15  -7   12.77   12.74
  -6 -15   7   22.03    7.54
  -6 -15   7   35.54    4.55
   7  15  -7   -1.81   10.39
  -3  16  -7    3.54    2.58
  -3  16  -7   -1.61    1.75
   3 -16   7   -1.45    1.51
  -2  16  -7    3.66    2.22
  -2  16  -7    5.37    2.51
   2 -16   7    4.04    1.52
  -1  16  -7   -1.73    2.10
  -1  16  -7   -4.75    2.74
   1 -16   7    0.33    1.39
   1 -16   7   -0.98    1.29
   0  16  -7   -1.88    2.34
   0  16  -7   -3.42    2.81
   0 -16   7   -1.56    1.42
   0 -16   7   -2.02    1.58
   1  16  -7    3.61    2.61
   1  16  -7   -0.77    3.10
  -1 -16   7    0.30    1.20
  -1 -16   7    5.50    1.75
   2  16  -7    5.49    3.77
   2  16  -7    5.04    3.33
  -2 -16   7    4.39    1.41
  -2 -16   7    1.70    1.74
   3  16  -7    1.03    4.21
   3  16  -7    5.39    3.89
  -3 -16   7   -1.85    1.90
  -3 -16   7    1.69    1.29
   5  16  -7    1.35    5.26
   5  16  -7    6.22    5.32
  -5 -16   7    1.67    1.15
  -5 -16   7    0.92    2.05
   6  16  -7   -1.56    7.44
   6  16  -7   -1.57    6.57
  -6 -16   7   -4.00    2.29
  -6 -16   7   -1.41    1.01
   7  16  -7    7.05    7.51
  -7 -16   7    4.11    1.36
  -7 -16   7    0.53    2.96
  -4  17  -7    2.74    2.17
  -3  17  -7    3.07    2.60
  -3  17  -7   -0.41    1.91
   3 -17   7    3.40    1.76
  -2  17  -7    0.89    2.18
  -2  17  -7   -0.73    2.44
   2 -17   7    4.10    1.61
  -1  17  -7   -0.75    2.64
  -1  17  -7    0.91    2.14
   1 -17   7    2.05    1.53
   1 -17   7    0.34    1.56
   0  17  -7   -2.19    2.61
   0  17  -7    1.59    2.52
   0 -17   7   -2.20    1.39
   0 -17   7   -0.29    1.26
   1  17  -7    3.16    3.29
   1  17  -7    4.65    2.96
  -1 -17   7    1.09    1.63
  -1 -17   7    4.65    1.59
   2  17  -7   -1.71    3.70
   2  17  -7   -1.41    3.64
  -2 -17   7    1.49    1.71
  -2 -17   7   -0.31    1.19
   3  17  -7    4.31    4.74
   3  17  -7   -1.01    4.15
  -3 -17   7    1.28    1.35
  -3 -17   7    4.59    2.03
   4  17  -7    1.25    5.52
   4  17  -7    4.52    5.16
  -4 -17   7    3.39    2.11
  -4 -17   7    5.85    1.43
   5  17  -7   10.63    6.15
   5  17  -7    1.51    6.05
  -5 -17   7    0.29    1.07
  -5 -17   7   -2.73    2.17
   6  17  -7   11.54    6.84
   6  17  -7    1.71    7.87
  -6 -17   7    0.31    1.38
  -6 -17   7    4.39    2.37
  -7 -17   7   -1.76    3.07
  -7 -17   7   -2.13    1.36
  -3  18  -7   -0.84    2.77
  -3  18  -7    2.46    2.50
   3 -18   7    1.87    1.45
  -2  18  -7   -0.46    2.42
  -2  18  -7    4.11    3.01
   2 -18   7    0.38    1.53
   2 -18   7    3.67    1.53
  -1  18  -7   -0.50    2.58
  -1  18  -7   -0.80    2.88
   1 -18   7   -1.05    1.52
   1 -18   7   -1.41    1.47
   0  18  -7   -1.59    2.66
   0  18  -7   -4.15    3.05
   0 -18   7    1.36    1.23
   0 -18   7   -1.80    1.39
   1  18  -7    0.90    3.29
   1  18  -7    0.65    3.10
  -1 -18   7   -3.22    1.97
  -1 -18   7   -1.02    1.48
   2  18  -7    3.13    3.79
   2  18  -7   -2.93    3.89
  -2 -18   7    2.19    1.34
  -2 -18   7   -0.78    1.88
   3  18  -7    6.37    4.79
   3  18  -7   -5.39    5.13
  -3 -18   7    0.64    1.18
  -3 -18   7   -0.81    1.95
   5  18  -7   -5.86    6.44
   5  18  -7   -1.38    6.56
  -5 -18   7    2.79    1.23
  -5 -18   7   -2.26    2.21
   6  18  -7    8.70    7.80
   6  18  -7  -11.00    8.28
  -6 -18   7   -0.52    2.24
  -6 -18   7    0.68    1.15
   7  18  -7    1.87    7.48
  -7 -18   7    0.63    1.12
  -7 -18   7   -2.10    2.27
  -4  19  -7    8.46    2.65
  -3  19  -7    0.96    2.41
  -3  19  -7    0.85    2.59
   3 -19   7    4.04    1.92
   3 -19   7   -0.38    1.52
  -2  19  -7    3.77    3.16
  -2  19  -7    3.61    2.72
   2 -19   7    5.19    1.91
   2 -19   7    2.47    1.66
  -1  19  -7    1.78    3.35
  -1  19  -7   -2.81    2.86
   1 -19   7    1.89    1.77
   1 -19   7    1.00    1.46
   0  19  -7   -1.84    2.99
   0  19  -7   -1.88    3.60
   0 -19   7    0.41    1.79
   0 -19   7   -0.74    1.40
   1  19  -7    4.85    4.08
   1  19  -7   -4.42    3.72
  -1 -19   7    0.67    1.37
  -1 -19   7   -0.40    1.75
   2  19  -7    2.19    4.89
   2  19  -7    0.85    4.06
  -2 -19   7    0.41    1.81
  -2 -19   7    1.29    1.40
   3  19  -7   -4.17    5.02
   3  19  -7   -2.34    4.91
  -3 -19   7    3.00    2.16
  -3 -19   7    2.36    1.31
   4  19  -7    4.92    6.42
   4  19  -7    8.16    6.26
  -4 -19   7    3.53    1.44
  -4 -19   7    0.45    2.51
   5  19  -7   -8.00    6.82
   5  19  -7   -1.45    6.27
  -5 -19   7   -1.98    2.43
  -5 -19   7   -0.34    1.26
   6  19  -7   -1.83    7.40
  -6 -19   7    1.66    2.45
  -4  20  -7   -0.97    2.40
  -3  20  -7    2.60    2.71
   3 -20   7    2.68    1.67
   3 -20   7    2.08    1.83
  -2  20  -7    3.17    3.76
  -2  20  -7    5.83    3.07
   2 -20   7    0.37    1.44
   2 -20   7   -0.40    1.64
  -1  20  -7   -1.21    3.19
  -1  20  -7   -1.02    3.29
   1 -20   7    2.65    1.69
   1 -20   7    0.40    1.71
   0  20  -7    4.17    3.68
   0  20  -7   -2.72    3.05
   0 -20   7    0.39    1.72
   0 -20   7    0.38    1.59
   1  20  -7   -2.13    3.87
   1  20  -7   -4.07    3.86
  -1 -20   7    0.35    1.43
  -1 -20   7    0.37    1.76
   2  20  -7   -3.50    4.58
  -2 -20   7   -1.30    1.85
  -2 -20   7   -1.43    1.48
   0   0  -8  201.65   44.13
   1   0  -8   -0.11    0.24
   1   0  -8    0.11    0.28
   1   0  -8   -0.55    0.39
   0   1  -8    0.11    0.31
   0  -1  -8    0.86    0.49
   0   1  -8    0.29    0.31
   1   0  -8   -0.09    0.27
  -1   0   8   -0.46    0.49
   0  -1   8   -0.41    0.53
  -1   0   8    0.05    0.17
   1   1  -8   53.66   10.76
   1  -1  -8   47.39   11.78
   1  -1  -8   53.23   11.32
  -1  -1   8   53.61   11.10
   1  -2  -8    2.33    0.88
   2   1  -8    2.66    0.66
   2   1  -8    3.93    0.82
   1  -2  -8    2.68    0.67
   2   1  -8    3.27    0.87
   2   1  -8    3.13    0.87
  -2  -1   8    1.96    0.82
  -1   2   8    1.29    0.94
  -2  -1   8    2.87    0.79
   0   2  -8    0.60    0.39
   2   0  -8   -0.08    0.26
   2   0  -8    0.58    0.31
   0   2  -8    0.49    0.37
   2   0  -8    0.57    0.47
   0  -2  -8    0.18    0.55
   2   0  -8    0.64    0.33
   0  -2  -8    0.12    0.35
   0   2  -8   -0.19    0.41
   0  -2   8    0.98    0.56
  -2   0   8    0.87    0.27
   0   2   8    0.20    0.58
  -2   0   8   -0.06    0.24
   0  -2   8    0.18    0.28
  -2   0   8    0.78    0.37
   1   2  -8    2.41    0.75
   2  -1  -8    2.52    0.85
   1   2  -8    4.46    0.80
   1   2  -8    2.86    0.86
   1   2  -8    3.78    0.85
  -1  -2   8    3.59    0.83
  -2   1   8    3.03    0.80
  -1  -2   8    3.19    0.91
   2   2  -8   24.47    5.22
   2   2  -8   25.56    5.00
   2   2  -8   26.54    5.14
   2  -2  -8   14.56    5.56
  -2  -2   8   25.78    5.00
  -2  -2   8   21.10    5.57
   3   2  -8    3.79    1.10
   3   2  -8    3.98    1.12
   3   2  -8    5.02    0.98
   3   2  -8    1.53    1.24
  -3  -2   8    2.51    0.98
  -3  -2   8    3.46    1.10
   3   1  -8  148.07   31.05
   3   1  -8  144.15   32.43
   0   3  -8   -0.18    0.44
   3   0  -8    0.49    1.06
   3   0  -8    0.14    0.46
   0  -3  -8   -0.18    0.53
   0  -3  -8   -0.12    0.38
   0   3  -8   -0.60    0.41
   3   0  -8    0.11    0.37
   0  -3   8   -0.43    0.70
   0   3   8   -0.62    0.68
  -3   0   8   -0.13    0.48
   0  -3   8    0.20    0.36
  -3   0   8    0.13    0.45
   1   3  -8  146.63   30.72
   1   3  -8  146.60   31.70
   1   3  -8  148.50   32.74
  -1  -3   8  126.57   32.60
  -1  -3   8  138.54   34.54
   2   3  -8    5.16    1.20
   2   3  -8    2.51    0.89
   2   3  -8    5.86    1.15
   2   3  -8    6.39    1.14
  -2  -3   8    5.20    1.03
  -2  -3   8    2.57    1.08
   3   3  -8  562.71  123.91
   3  -3  -8  542.69  116.92
   3   3  -8  555.26  130.46
   3   3  -8  569.86  122.62
   4   3  -8  107.45   32.79
  -4  -3   8  139.51   30.72
   4   2  -8   52.03   19.03
  -4  -2   8   63.97   17.59
   4   1  -8   11.61    2.25
  -1   4  -8    6.35    1.72
  -1   4   8    5.92    1.48
  -4  -1   8    4.79    2.32
   1   4  -8    7.90    1.81
   1   4  -8    8.92    1.85
  -1  -4   8    9.21    2.13
   2   4  -8   83.81   16.00
   2   4  -8   72.34   14.91
  -2  -4   8   73.50   15.80
   3   4  -8  131.09   28.31
   4  -3  -8  138.46   24.56
   3   4  -8  114.62   27.55
   3   4  -8  128.09   27.75
  -3  -4   8  131.33   29.16
  -3  -4   8  124.18   25.57
   4   4  -8  142.70   29.94
   4   4  -8  143.35   31.43
   4  -4  -8  131.81   23.92
   4  -4  -8  140.47   26.13
   4   4  -8  121.40   34.56
  -4  -4   8  117.23   32.21
  -4  -4   8  128.38   26.09
  -4   4   8  119.48   28.84
   5   4  -8    1.59    2.62
   5   4  -8    3.71    3.62
   4  -5  -8    6.79    1.43
   4  -5  -8    4.89    1.52
   5   4  -8    7.54    2.10
  -5  -4   8    6.45    1.69
  -4   5   8    7.49    1.70
  -4   5   8    9.56    1.97
   3  -5  -8  218.28   48.65
   3  -5  -8  250.14   48.31
  -3   5   8  240.67   52.59
  -3   5   8  277.31   62.20
   2  -5  -8   32.58    7.53
   2  -5  -8   30.91    7.88
   5   2  -8   34.30    8.94
   5   2  -8   37.62    7.84
  -2   5   8   30.38    9.07
  -2   5   8   42.04    7.66
  -2   5   8   33.44    7.47
  -1   5  -8  283.90   64.53
  -1   5  -8  271.56   62.02
  -1   5   8  295.99   57.41
   0   5  -8    0.63    0.51
   5   0  -8   -0.26    0.74
   0   5  -8    0.21    0.69
   0   5  -8   -0.51    0.70
   5   0  -8    1.29    0.81
   0  -5   8    0.44    0.54
  -5   0   8   -0.24    0.96
   1   5  -8  278.94   72.28
   5  -1  -8  234.38   62.32
   1   5  -8  273.02   55.98
   1   5  -8  274.67   64.87
   1   5  -8  304.19   58.32
  -5   1   8  297.04   58.22
  -1  -5   8  266.15   68.41
   2   5  -8   37.22    7.52
   2   5  -8   33.14    7.66
   2   5  -8   30.72    7.46
   5  -2  -8   37.79    7.19
   2   5  -8   30.92    8.06
  -2  -5   8   33.61    7.50
  -5   2   8   30.13    7.60
  -2  -5   8   38.07    8.11
   5  -3  -8  260.55   55.28
   3   5  -8  236.14   55.00
   3   5  -8  249.85   54.86
   5  -3  -8  244.03   55.97
   3   5  -8  246.15   61.81
  -3  -5   8  276.10   66.06
   4   5  -8    3.49    2.30
   5  -4  -8    7.89    1.85
   5  -4  -8    9.13    1.89
   4   5  -8    7.24    2.55
   4   5  -8    7.91    1.79
  -4  -5   8    5.91    2.15
  -4  -5   8    8.59    1.58
  -5   4   8    3.39    1.98
   6   5  -8   27.27   16.43
   5  -6  -8   45.14    9.28
  -5   6   8   51.08   10.69
  -6  -5   8   43.89    9.48
  -5   6   8   46.23   10.01
   4  -6  -8   56.57   11.14
   6   4  -8   42.76   18.09
  -4   6   8   51.02   11.75
  -4   6   8   54.00   11.47
   3  -6  -8  252.74   56.59
   3  -6  -8  260.35   53.16
  -3   6   8  273.90   65.05
  -3   6   8  240.26   52.43
  -2   6  -8  180.81   35.78
   2  -6  -8  157.29   32.48
   2  -6  -8  159.41   34.76
   2  -6  -8  151.30   35.33
   2  -6   8  144.39   33.83
  -2   6   8  170.88   36.99
  -2   6   8  160.84   30.89
  -2   6   8  158.73   34.64
  -2   6   8  155.56   41.74
  -1   6  -8   49.81   10.56
   1  -6  -8   37.40   11.59
   1  -6  -8   47.59    8.96
  -1   6   8   57.69   10.44
   0  -6  -8   10.56    2.26
   0   6  -8    9.32    2.55
   0   6  -8   10.51    2.61
   0   6  -8   12.80    2.67
   6   0  -8    6.01    3.08
   0   6   8   13.53    2.96
   0  -6   8    9.52    2.70
   1   6  -8   40.75   13.13
   1   6  -8   55.03   11.00
   6  -1  -8   42.25   10.77
   1   6  -8   52.79    9.94
  -1  -6   8   50.55    9.72
  -6   1   8   49.42   11.33
  -1  -6   8   43.33   13.14
   2   6  -8  161.01   34.78
   2   6  -8  148.29   36.09
   2   6  -8  170.01   35.60
  -2  -6   8  150.46   36.94
  -6   2   8  152.40   38.92
   6  -3  -8  236.26   63.36
   6  -3  -8  264.33   62.01
   3   6  -8  291.62   67.52
  -3  -6   8  265.26   55.35
  -3  -6   8  256.62   50.19
  -6   3   8  282.28   60.99
   4   6  -8   46.11   12.40
   6  -4  -8   31.76   11.64
   4   6  -8   39.26   13.10
   6  -4  -8   51.96   12.36
  -4  -6   8   48.18    9.07
  -6   4   8   62.21   12.09
   5   6  -8   52.33   12.51
   6  -5  -8   45.96    9.89
   6  -5  -8   41.57   10.02
   5   6  -8   31.72   13.67
  -5  -6   8   41.01    8.01
  -6   5   8   43.66   10.70
   6   6  -8   -1.69    1.66
   6   6  -8    6.01    4.14
   6   6  -8    0.89    3.25
   6  -6  -8   -1.51    1.04
   6  -6  -8    2.09    1.32
  -6  -6   8   -0.26    0.91
  -6   6   8   -0.46    1.72
   6  -7  -8    0.26    1.08
  -6   7   8    4.09    1.97
   5  -7  -8    0.65    1.11
   5  -7  -8    1.15    0.83
  -5   7   8   -0.37    1.63
   4  -7  -8  134.99   28.41
   4  -7  -8  154.39   30.94
  -4   7   8  140.77   32.61
  -4   7   8  167.66   36.51
   3  -7  -8   57.77   15.19
   3  -7  -8   62.25   12.16
   3  -7  -8   70.01   14.52
  -3   7   8   71.21   16.07
  -3   7   8   71.11   16.39
  -3   7   8   70.06   13.13
  -2   7  -8  183.89   40.77
   2  -7  -8  146.30   32.62
   2  -7  -8  171.16   31.44
   2  -7  -8  180.15   32.88
  -2   7   8  190.91   47.58
  -2   7   8  145.61   32.88
  -2   7   8  177.30   36.84
  -2   7   8  197.15   41.29
   2   7  -8  168.21   37.69
   2   7  -8  176.16   43.68
   2   7  -8  173.39   38.90
   2   7  -8  163.20   44.48
  -2  -7   8  159.09   35.39
  -2  -7   8  169.77   40.14
   3   7  -8   65.83   16.17
   3   7  -8   80.12   14.36
   3   7  -8   70.29   17.30
   4   7  -8  146.42   39.05
   4   7  -8  135.39   35.45
   5   7  -8    4.68    2.55
   5   7  -8    3.29    2.97
   6   7  -8    4.15    4.35
   7  -6  -8    2.36    1.39
   6   7  -8    0.99    3.49
   6   7  -8    3.22    1.96
  -6  -7   8    1.11    0.83
   7   7  -8   39.93   10.75
   7  -8  -8   -0.29    1.37
   6  -8  -8   32.39    7.87
  -6   8   8   34.43    9.70
   5  -8  -8    0.98    1.08
   5  -8  -8   -0.17    0.78
  -5   8   8   -1.71    1.88
   4  -8  -8    1.62    1.07
   4  -8  -8    0.43    0.63
  -4   8   8   -0.36    1.73
   3  -8  -8  139.39   28.04
   3  -8  -8  147.60   26.20
  -3   8   8  135.49   33.79
  -3   8   8  136.39   30.23
  -3   8   8  131.36   39.66
  -2   8  -8    1.52    1.22
   2  -8  -8    1.20    0.60
   2  -8  -8    1.30    0.64
  -2   8  -8   -0.23    0.96
   2  -8  -8    1.68    0.62
   2  -8  -8    4.38    0.96
  -2   8   8    1.57    0.87
   2  -8   8    2.12    0.87
  -2   8   8    0.45    1.19
  -2   8   8    1.79    1.09
  -2   8   8    1.41    1.24
   1  -8  -8   50.86   10.98
  -1   8  -8   56.08   12.74
   1  -8  -8   57.82   11.15
   1  -8  -8   55.36   12.53
  -1   8   8   65.32   13.78
   1  -8   8   49.87   12.24
  -1   8   8   57.34   14.66
   0  -8  -8   18.69    4.88
   0   8  -8   20.76    5.27
   0  -8   8   27.17    5.24
   0   8   8   24.67    7.09
   1   8  -8   53.77   12.30
  -1  -8   8   50.23   11.61
   2   8  -8    1.98    1.23
   2   8  -8    1.84    1.41
  -2  -8   8    1.04    0.94
  -2  -8   8    1.33    0.83
   3   8  -8  181.19   41.69
   4   8  -8   -1.10    1.94
   4   8  -8    0.48    2.09
  -4  -8   8   -0.78    0.69
   5   8  -8    1.41    2.96
   5   8  -8    0.74    2.86
  -5  -8   8   -0.21    0.76
   6   8  -8   26.33   11.24
   6   8  -8   27.41   12.16
  -6  -8   8   37.67    5.54
   7   8  -8    1.25    4.47
  -7  -8   8    1.19    0.89
   7  -9  -8   99.19   23.73
   6  -9  -8    8.43    2.84
   5  -9  -8    0.72    0.78
   5  -9  -8   -1.61    1.44
  -5   9   8    2.03    2.27
   4  -9  -8    8.43    2.45
   4  -9  -8   12.63    2.68
  -4   9   8   11.27    3.67
  -3   9  -8   10.09    2.57
   3  -9  -8    8.01    2.30
   3  -9  -8   11.34    2.26
  -3   9   8   13.88    3.27
  -3   9   8    7.97    3.27
   3  -9   8   14.00    2.50
   2  -9  -8   -0.19    0.76
  -2   9  -8    0.77    1.18
   2  -9  -8   -0.25    0.55
  -2   9  -8    0.24    0.99
   2  -9   8   -0.22    0.78
  -2   9   8   -0.24    1.19
  -2   9   8   -0.72    1.09
   1  -9  -8    5.60    1.43
   1  -9  -8    7.59    1.63
  -1   9  -8    2.79    1.83
   1  -9  -8    6.83    1.48
  -1   9  -8    6.27    2.00
   1  -9   8    4.21    1.80
  -1   9   8    7.11    2.19
  -1   9   8    6.91    2.20
  -1   9   8    4.01    2.80
   0  -9  -8    0.15    0.53
   0  -9  -8   -0.56    0.90
   0   9  -8   -1.96    1.14
   0   9  -8    1.04    1.11
   0  -9  -8    0.21    1.02
   0   9   8    0.36    1.23
   0  -9   8    0.87    0.92
   0   9   8    0.58    1.27
  -1  -9  -8    6.10    1.76
   1   9  -8    7.43    2.10
  -1  -9   8    8.11    1.68
   1   9   8    7.85    2.88
   2   9  -8    1.17    1.55
  -2  -9  -8   -0.23    0.94
  -2  -9   8   -0.24    1.10
   2   9   8    2.64    2.80
   3   9  -8   10.86    3.18
   3   9  -8    8.83    3.33
  -3  -9   8    9.52    2.14
  -3  -9   8    8.05    2.32
   4   9  -8   16.96    4.44
   4   9  -8   18.65    4.02
  -4  -9   8   12.62    2.79
  -4  -9   8    5.15    2.05
   5   9  -8   -0.77    2.65
   5   9  -8   -1.51    3.49
  -5  -9   8    1.13    0.78
   6   9  -8   18.67    5.67
   6   9  -8    5.91    5.97
  -6  -9   8   15.42    2.35
   7   9  -8   79.15   40.37
  -7  -9   8  113.40   15.37
   7 -10  -8   13.38    2.95
   6 -10  -8   25.54    6.32
   5 -10  -8   48.48    9.28
   5 -10  -8   42.34   10.09
  -5  10   8   56.23   13.91
   4 -10  -8    4.42    1.51
   4 -10  -8    3.51    1.10
  -4  10   8    7.17    2.62
  -3  10  -8    0.41    1.16
  -3  10  -8    0.26    0.93
   3 -10  -8    0.45    0.93
   3 -10  -8    0.13    0.60
   3 -10   8    0.69    0.89
   2 -10  -8   35.00    7.00
  -2  10  -8   34.00    7.77
   2 -10  -8   39.74    6.68
  -2  10  -8   25.13    7.41
   2 -10   8   29.95    7.02
  -1  10  -8   -0.77    1.39
   1 -10  -8   -0.49    0.75
   1 -10  -8   -0.40    0.85
  -1  10  -8   -0.26    1.06
   1 -10   8   -0.75    0.96
   0 -10  -8   48.49    8.96
   0 -10  -8   52.02   11.41
   0  10  -8   33.35   10.64
   0  10  -8   52.68   10.96
   0  10   8   47.52   14.93
   0  10   8   51.61   13.59
   0 -10   8   47.47   10.03
   1  10  -8   -1.72    1.57
   1  10  -8    0.38    1.29
   1  10   8   -0.45    2.10
  -1 -10   8    0.94    1.08
   2  10  -8   20.98    8.12
  -2 -10   8   29.97    6.31
   2  10   8   26.21   11.76
   3  10  -8    1.57    2.00
  -3 -10   8   -0.26    1.05
   4  10  -8    3.90    2.73
   4  10  -8    1.28    2.76
  -4 -10   8    3.01    1.11
  -4 -10   8    2.06    1.43
   5  10  -8   47.36   13.66
   5  10  -8   25.63   16.31
  -5 -10   8   53.61    7.56
   6  10  -8   16.34   11.79
   6  10  -8   40.87    9.73
  -6 -10   8   32.94    4.66
   7  10  -8    6.94    7.28
  -3  11  -8   13.47    3.50
  -3  11  -8    9.09    3.43
   3 -11   8   13.91    3.07
  -2  11  -8   16.64    3.27
  -2  11  -8   17.35    3.25
   2 -11   8    7.41    2.59
   2  11  -8    9.72    3.45
   2  11  -8   13.70    4.11
  -2 -11   8    8.27    2.85
   2  11   8   10.13    4.65
  -2 -11   8   11.51    2.66
   3  11  -8   16.21    4.49
  -3 -11   8   11.57    3.00
  -3 -11   8   13.69    2.84
   4  11  -8   21.61    8.92
  -4 -11   8   25.25    5.05
   5  11  -8    9.51    4.19
  -5 -11   8    2.50    1.95
   7  11  -8    4.20    8.29
  -7 -11   8   10.85    2.39
  -3  12  -8    1.05    1.90
  -3  12  -8    7.25    1.98
   3 -12   8    7.49    1.74
  -2  12  -8   96.94   19.33
  -2  12  -8   88.10   19.10
   2 -12   8  100.92   16.85
  -1  12  -8   -0.66    1.38
  -1  12  -8    1.87    1.46
   1 -12   8    0.57    1.28
   0  12  -8  201.43   48.61
   0 -12   8  206.16   42.94
   1  12  -8    0.37    1.63
   1  12  -8    2.42    1.74
  -1 -12   8    1.27    1.14
  -1 -12   8    0.27    1.30
   2  12  -8   89.09   23.91
  -2 -12   8   81.80   16.68
   2  12   8   63.51   31.54
   3  12  -8    2.73    3.27
   3  12   8   -0.77    3.72
  -3 -12   8    4.18    1.76
   6  12  -8   -3.75    4.67
  -4  13  -8    0.95    1.60
  -3  13  -8    5.30    2.41
  -2  13  -8    0.67    1.46
  -1  13  -8   29.24    6.97
   0  13  -8    0.41    1.91
   1  13  -8   26.46    6.68
   2  13  -8   -4.14    2.59
  -2 -13   8   -0.25    0.97
   3  13  -8   10.44    3.97
   3  13  -8    8.89    3.62
  -3 -13   8    8.28    1.87
  -3 -13   8    8.97    2.25
   3  13   8    2.41    4.38
   4  13  -8    6.14    3.73
   4  13  -8    5.68    3.48
  -4 -13   8    3.92    1.79
  -4 -13   8    1.98    1.10
   5  13  -8    3.90    5.17
   5  13  -8    3.50    5.92
  -5 -13   8    3.66    2.17
  -5 -13   8    4.32    1.35
   6  13  -8    9.60    6.31
  -6 -13   8    4.61    2.34
   7  13  -8   -1.52    5.97
  -4  14  -8    0.69    1.69
  -3  14  -8    4.35    1.73
  -3  14  -8    4.87    2.46
   3 -14   8    5.66    1.80
  -2  14  -8   -1.07    1.66
  -2  14  -8    0.58    2.02
   2 -14   8    0.87    1.33
  -1  14  -8    1.12    2.08
  -1  14  -8    0.37    1.87
   1 -14   8   -1.22    1.43
   0  14  -8    0.80    2.49
   0  14  -8    2.77    2.64
   0 -14   8    5.53    1.91
   0 -14   8    8.29    1.92
   1  14  -8   -0.45    2.35
   1  14  -8   -2.35    2.48
  -1 -14   8    0.30    1.63
  -1 -14   8    0.28    1.12
   2  14  -8    1.94    2.78
   2  14  -8   -5.66    4.54
  -2 -14   8   -1.27    1.99
  -2 -14   8    1.37    1.22
   3  14  -8    3.22    3.07
   3  14  -8   -1.26    3.05
  -3 -14   8    3.39    1.26
  -3 -14   8    0.66    1.78
   4  14  -8    3.14    3.88
   4  14  -8   -0.96    4.05
  -4 -14   8    0.85    1.19
  -4 -14   8    2.94    1.80
   5  14  -8   17.31    7.06
   5  14  -8    5.56    6.95
  -5 -14   8   18.03    3.85
  -5 -14   8   12.39    2.53
   6  14  -8   16.41    9.21
   6  14  -8    6.05    7.67
  -6 -14   8   13.78    4.23
  -6 -14   8   15.41    2.64
   7  14  -8   11.62    7.05
  -4  15  -8   -0.35    1.63
  -3  15  -8   -0.39    1.72
  -3  15  -8   -1.97    2.07
   3 -15   8   -2.43    1.45
  -2  15  -8    4.71    2.58
  -2  15  -8    6.79    2.74
   2 -15   8    8.70    1.85
  -1  15  -8   -3.74    2.31
  -1  15  -8   -0.88    2.07
   1 -15   8    1.25    1.38
   0  15  -8   -1.87    2.46
   0  15  -8   -1.82    2.44
   0 -15   8   -0.32    1.41
   0 -15   8   -0.32    1.25
   1  15  -8   -1.03    2.71
   1  15  -8    0.70    2.64
  -1 -15   8    0.82    1.22
  -1 -15   8   -0.33    1.73
   2  15  -8    0.70    3.41
   2  15  -8    8.29    3.48
  -2 -15   8    9.02    2.01
  -2 -15   8    2.26    2.00
   3  15  -8   -2.69    3.91
   3  15  -8   -3.89    3.57
  -3 -15   8    4.63    1.86
  -3 -15   8    2.34    1.15
   4  15  -8    3.09    4.80
   4  15  -8   -0.84    3.87
  -4 -15   8    3.09    1.31
  -4 -15   8    0.40    1.91
   5  15  -8   -5.41    4.71
   5  15  -8   -7.52    5.68
  -5 -15   8    3.46    1.18
  -5 -15   8    1.29    2.03
   6  15  -8   12.54    6.49
   6  15  -8   -4.82    6.98
  -6 -15   8    1.76    1.17
  -6 -15   8    7.01    2.64
   7  15  -8   18.76   11.77
   7  15  -8   12.91   12.58
  -7 -15   8   22.86    5.88
  -7 -15   8   19.53    3.28
  -4  16  -8    1.59    2.08
  -2  16  -8    1.64    2.01
  -2  16  -8    6.77    2.75
   2 -16   8    4.80    1.79
  -1  16  -8   -0.69    2.81
  -1  16  -8    6.49    2.47
   1 -16   8    3.91    1.71
   1 -16   8    4.40    1.70
   0  16  -8    0.48    2.28
   0  16  -8   -1.33    2.79
   0 -16   8    2.18    1.47
   0 -16   8    2.71    1.41
   1  16  -8    0.72    2.77
   1  16  -8   -0.52    2.65
  -1 -16   8    4.10    1.94
  -1 -16   8    4.86    1.48
   2  16  -8   -0.64    3.14
   2  16  -8    4.76    3.63
  -2 -16   8    2.45    1.39
  -2 -16   8    4.23    1.73
   4  16  -8    1.09    4.67
   4  16  -8    4.52    4.28
  -4 -16   8    2.68    1.34
  -4 -16   8    1.87    1.79
   5  16  -8    1.35    5.01
   5  16  -8    1.12    5.24
  -5 -16   8   -2.62    2.08
  -5 -16   8    0.29    1.09
   6  16  -8    4.57    6.93
   6  16  -8    2.83    8.07
  -6 -16   8    6.43    2.70
  -6 -16   8    7.66    1.72
   7  16  -8  -10.57    8.06
   7  16  -8    1.93    8.33
  -7 -16   8   -0.55    2.60
  -7 -16   8    4.12    1.23
  -4  17  -8    0.80    1.89
  -3  17  -8   -1.25    1.99
  -3  17  -8    0.78    2.54
   3 -17   8    1.81    1.60
  -2  17  -8    3.27    2.17
  -2  17  -8    0.76    2.60
   2 -17   8    3.54    1.67
  -1  17  -8    1.94    2.51
  -1  17  -8   -0.73    2.35
   1 -17   8    3.29    1.49
   1 -17   8    2.18    1.61
   0  17  -8    1.49    3.07
   0  17  -8    0.54    2.59
   0 -17   8    1.60    1.55
   0 -17   8    0.32    1.23
   1  17  -8    0.80    3.20
   1  17  -8    0.59    3.03
  -1 -17   8   -3.36    1.78
  -1 -17   8    0.33    1.38
   2  17  -8    2.02    3.24
   2  17  -8   -1.77    4.17
  -2 -17   8    5.81    1.51
  -2 -17   8    1.10    1.79
   3  17  -8   -0.99    3.99
   3  17  -8    0.81    3.70
  -3 -17   8    2.77    1.82
  -3 -17   8    1.48    1.19
   4  17  -8   -6.40    5.39
   4  17  -8   -4.82    5.15
  -4 -17   8    0.42    1.98
  -4 -17   8    0.62    1.15
   5  17  -8   -1.30    5.76
   5  17  -8   -5.62    5.91
  -5 -17   8    1.91    2.27
  -5 -17   8    0.87    1.16
   6  17  -8   -4.65    6.79
   6  17  -8  -11.50    7.53
  -6 -17   8    0.51    2.46
  -6 -17   8    0.30    1.01
   3 -18   8   -4.40    1.77
  -2  18  -8   -3.27    2.47
  -2  18  -8   -5.07    2.85
   2 -18   8   -0.38    1.64
   2 -18   8   -0.38    1.73
  -1  18  -8   -1.54    2.36
  -1  18  -8    3.27    3.07
   1 -18   8    1.03    1.44
   1 -18   8    1.42    1.65
   0  18  -8    1.09    2.52
   0  18  -8    3.46    3.22
   0 -18   8    1.34    1.58
   0 -18   8   -1.15    1.66
   1  18  -8   -2.66    3.56
   1  18  -8    0.63    3.34
  -1 -18   8    3.85    1.87
  -1 -18   8    0.34    1.33
   2  18  -8   -2.08    3.91
   2  18  -8    8.50    3.93
  -2 -18   8    0.33    1.34
  -2 -18   8   -3.56    2.06
  -3 -18   8   -1.01    1.75
  -3 -18   8   -0.83    2.12
   4  18  -8   -8.08    6.56
   5  18  -8    8.28    6.70
   5  18  -8   -4.58    6.58
  -5 -18   8   -1.80    1.11
  -5 -18   8    0.92    2.14
   6  18  -8   -1.84    7.43
   6  18  -8    1.74    7.42
  -6 -18   8   -0.50    2.38
  -6 -18   8    1.22    1.14
   7  18  -8   -7.87    8.27
  -7 -18   8    0.99    1.14
  -7 -18   8   -1.69    2.85
  -4  19  -8   -0.47    2.28
  -3  19  -8    0.95    2.29
  -3  19  -8    4.92    2.88
   3 -19   8   -1.11    1.63
  -2  19  -8   -2.46    2.43
  -2  19  -8   -0.97    3.08
   2 -19   8    0.39    1.66
   2 -19   8    1.60    1.81
  -1  19  -8    2.79    3.31
  -1  19  -8   -1.73    2.72
   1 -19   8    3.13    1.72
   1 -19   8    0.69    1.45
   0  19  -8    0.62    3.13
   0  19  -8   -2.87    3.49
   0 -19   8    0.77    1.81
   0 -19   8    0.36    1.58
   1  19  -8   -1.97    3.40
   1  19  -8   -4.13    3.41
  -1 -19   8    0.38    1.67
  -1 -19   8   -0.69    1.43
   2  19  -8    4.82    4.02
   2  19  -8    1.06    4.46
  -2 -19   8   -2.07    1.88
  -2 -19   8    0.32    1.24
   3  19  -8    1.21    4.87
   3  19  -8    8.77    5.22
  -3 -19   8    5.41    1.61
  -3 -19   8    5.54    2.19
   4  19  -8   -6.76    5.84
   4  19  -8   -7.30    6.13
  -4 -19   8   -0.92    2.30
  -4 -19   8   -0.31    1.27
   5  19  -8   17.22    8.14
  -5 -19   8    2.41    2.53
  -5 -19   8    4.18    1.37
  -3  20  -8   -0.53    2.27
   3 -20   8    1.59    1.42
   3 -20   8   -0.86    1.85
  -2  20  -8   11.65    4.52
   2 -20   8    4.10    2.28
   2 -20   8   12.02    2.87
  -1  20  -8    3.03    3.53
   1 -20   8   -0.38    1.65
   1 -20   8   -1.50    1.69
   0  20  -8   -6.37    3.87
   0 -20   8    3.14    1.76
   1  20  -8   -3.22    4.28
  -1 -20   8   -2.25    1.87
   0   0  -9   -0.62    0.40
   0   0  -9   -0.19    0.61
   0   0   9   -0.22    0.64
   1   0  -9  324.53   64.85
   1   0  -9  314.96   69.61
   0  -1  -9  335.17   74.95
   0   1  -9  310.78   76.46
   1  -1  -9    0.26    0.25
   1   1  -9    0.10    0.36
   1   1  -9    0.13    0.38
   1   1  -9   -0.15    0.50
   1   1  -9   -0.08    0.31
   1  -1  -9   -0.32    0.51
  -1  -1   9    0.17    0.54
  -1  -1   9   -0.07    0.28
   2   1  -9    4.70    1.09
   2   1  -9    6.18    1.24
   2   1  -9    3.51    1.00
   2   1  -9    5.45    1.25
  -2  -1   9    3.72    1.04
  -2  -1   9    3.65    1.11
   0   2  -9    0.11    0.38
   0  -2  -9    1.20    0.70
   0   2  -9    0.21    0.47
   2   0  -9    0.15    0.50
   2   0  -9    0.30    0.35
   0   2  -9   -0.28    0.38
   2   0  -9   -0.08    0.32
  -2   0   9    0.33    0.28
  -2   0   9   -0.11    0.42
   0  -2   9    0.19    0.29
   0  -2   9   -0.45    0.74
   1   2  -9    6.11    1.24
   1   2  -9    4.10    1.13
   1   2  -9    5.84    1.08
   1   2  -9    5.57    1.17
   2  -1  -9    4.81    1.30
   2  -1  -9    5.46    0.98
  -2   1   9    4.63    1.11
  -1  -2   9    5.43    1.18
  -2   1   9    3.56    1.01
  -1  -2   9    5.06    1.46
   2   2  -9    0.43    0.44
   2  -2  -9    0.65    0.40
   2   2  -9    0.40    0.47
   2   2  -9    0.93    0.45
   2   2  -9   -0.13    0.57
  -2  -2   9   -0.16    0.69
  -2  -2   9   -0.29    0.44
  -2  -2   9    0.19    0.43
   3   2  -9    9.73    2.85
   3   2  -9   11.92    2.77
   3   2  -9   11.83    2.87
   2  -3  -9   12.72    2.42
  -3  -2   9    8.37    2.76
  -3  -2   9   11.06    2.72
  -2   3   9   13.03    3.34
   3   1  -9   24.57    4.66
   3   1  -9   22.35    4.22
  -3  -1   9   16.58    4.53
   0   3  -9   43.24   10.44
   0   3  -9   47.09   10.06
   3   0  -9   45.57   11.28
   0  -3   9   41.22    8.84
   0  -3   9   47.56   12.57
   1   3  -9   21.30    4.67
   1   3  -9   21.17    4.61
   1   3  -9   23.54    4.65
   3  -1  -9   20.34    3.74
  -1  -3   9   18.46    4.98
  -3   1   9   17.83    4.71
   2   3  -9   14.07    3.10
   3  -2  -9    8.64    2.51
   2   3  -9   11.65    2.56
   2   3  -9   13.07    2.77
   3  -2  -9   14.73    2.70
  -3   2   9   12.20    2.88
  -2  -3   9    9.81    2.93
  -2  -3   9   14.75    2.74
  -2  -3   9   10.58    2.89
   3   3  -9    0.15    0.53
   3  -3  -9    1.87    0.72
   3  -3  -9    0.95    0.48
   3   3  -9    0.48    0.51
  -3  -3   9    0.97    0.53
  -3   3   9    0.33    0.66
  -3  -3   9    0.28    0.61
   3  -4  -9   83.83   16.31
   3  -4  -9   79.75   15.73
  -4  -3   9   74.26   16.46
  -3   4   9   80.16   17.40
   4   2  -9    1.22    1.03
   4   2  -9    1.70    0.69
   2  -4  -9    1.27    0.75
   4   2  -9    0.37    1.65
   2  -4  -9    1.99    0.55
  -2   4   9    0.71    0.68
  -2   4   9    0.37    0.81
  -4  -2   9    0.33    0.61
  -1   4  -9   18.14    3.77
   1  -4  -9   14.61    3.28
   4   1  -9   20.76    3.79
   4   1  -9   13.15    6.31
   4   1  -9   19.01    3.36
  -1   4  -9   18.32    4.28
  -4  -1   9   16.13    4.93
  -1   4   9   12.20    4.10
   1  -4   9   13.88    3.63
   0   4  -9   -0.31    0.56
   4   0  -9    0.51    0.60
   0  -4  -9   -0.13    0.42
   4   0  -9   -0.38    0.76
   4   0  -9   -0.53    0.77
   0   4  -9   -0.15    0.62
   0   4   9    0.26    0.99
  -4   0   9   -0.50    0.71
   4  -1  -9   14.06    3.36
   4  -1  -9   16.27    3.54
   1   4  -9   14.82    3.86
   4  -1  -9   17.37    3.78
   1   4  -9   21.74    3.61
   1   4  -9   17.32    3.85
  -1  -4   9   11.73    4.01
  -4   1   9   15.40    3.53
   4  -2  -9    1.16    0.69
   4  -2  -9    1.17    0.69
   2   4  -9    0.97    0.53
   2   4  -9    3.87    0.89
   2   4  -9    1.12    0.52
  -2  -4   9    1.04    0.77
  -4   2   9    1.09    0.92
  -2  -4   9    0.53    0.47
   3   4  -9   73.61   17.24
   3   4  -9   62.69   17.32
  -3  -4   9   63.36   17.85
  -4   3   9   92.25   16.79
   4   4  -9    2.09    1.47
   4  -4  -9    0.16    0.58
   4   4  -9    0.34    1.11
   4  -4  -9    0.21    0.74
  -4   4   9   -0.20    0.90
  -4  -4   9    0.32    0.48
   4  -5  -9  102.39   18.91
   5   4  -9   99.21   21.92
   5   4  -9   96.85   27.86
  -5  -4   9  104.82   19.77
  -4   5   9  102.40   21.68
  -5  -4   9  101.99   26.36
  -4   5   9  114.58   23.50
   3  -5  -9  157.32   29.14
   5   3  -9  144.67   40.30
   3  -5  -9  157.43   29.77
   5   3  -9  140.11   32.08
   3  -5  -9  121.66   31.82
  -5  -3   9  157.42   34.26
  -3   5   9  158.51   33.50
  -5  -3   9  135.95   36.08
   5   2  -9   97.19   24.44
   2  -5  -9  102.56   21.99
   5   2  -9   98.74   21.70
  -5  -2   9   91.16   23.63
  -2   5   9   82.93   26.47
   1  -5  -9   84.13   18.05
  -1   5  -9   72.78   19.78
   1  -5  -9   82.01   15.55
  -5  -1   9   88.64   18.02
  -1   5   9   82.59   16.52
  -1   5   9   85.89   22.76
   0   5  -9  130.04   25.89
   0   5  -9  122.49   28.02
   0   5  -9  124.54   26.18
   5   0  -9  101.17   27.14
   0   5   9  120.92   31.75
   1   5  -9   77.01   21.53
   1   5  -9   81.68   18.31
   5  -1  -9   84.29   17.52
  -1  -5   9   89.44   17.66
  -1  -5   9   67.19   20.06
   2   5  -9  104.56   23.63
   2   5  -9  102.18   23.97
   5  -2  -9   92.41   23.00
   2   5  -9   99.29   22.44
   2   5  -9  113.64   22.44
  -2  -5   9  110.47   23.86
  -2  -5   9  105.27   21.81
  -2  -5   9   98.65   22.69
   3   5  -9  164.42   33.75
   3   5  -9  155.43   33.30
   5  -3  -9  127.40   32.64
   3   5  -9  146.61   33.55
   3   5  -9  170.59   34.15
  -5   3   9  185.61   33.26
  -3  -5   9  158.73   30.62
  -3  -5   9  157.77   34.63
   5  -4  -9   65.03   21.20
   5  -4  -9   96.24   21.85
   4   5  -9   86.46   24.80
   4   5  -9   59.78   24.14
  -4  -5   9  106.29   23.72
  -5   4   9  109.43   22.46
  -4  -5   9   89.15   17.70
   5   5  -9   -1.77    2.86
   5   5  -9    0.50    1.12
   5   5  -9    0.50    1.80
   5  -5  -9   -0.41    0.79
   5  -5  -9   -1.15    0.89
  -5   5   9    0.30    1.21
  -5  -5   9   -0.21    0.62
   5  -6  -9    4.65    1.18
   6   5  -9   -1.88    3.70
   5  -6  -9    1.67    0.90
   6   5  -9    2.22    1.73
   6   5  -9    2.31    2.96
  -5   6   9    1.62    1.41
  -6  -5   9    2.67    1.03
   4  -6  -9  158.42   29.68
   6   4  -9  156.87   36.83
  -4   6   9  131.40   33.69
  -2   6  -9  144.97   33.17
   6   2  -9  129.39   35.35
   2  -6  -9  158.44   29.93
   2  -6  -9  143.96   31.70
   2  -6  -9  136.37   37.99
   2  -6   9  144.48   32.10
  -2   6   9  162.71   31.78
  -2   6   9  157.53   34.26
  -1   6  -9   87.57   17.35
  -1   6  -9   81.52   17.68
  -1   6   9   81.79   21.42
  -6  -1   9   74.28   19.54
   0   6  -9   -0.26    0.84
   0   6  -9   -0.19    0.70
   6   0  -9    0.35    1.05
   0   6  -9    0.26    0.50
   0  -6  -9    0.41    0.75
   0  -6  -9   -0.42    0.48
   6   0  -9    0.67    1.14
  -6   0   9    1.23    1.11
   0  -6   9    0.34    0.69
   0   6   9    0.88    1.10
   0   6   9   -1.40    1.20
   1   6  -9   64.44   20.79
   6  -1  -9   71.50   18.38
   1   6  -9   79.19   17.58
   1   6  -9   86.82   16.47
   6  -1  -9   91.42   17.65
   1   6  -9   81.26   17.78
  -6   1   9   80.79   16.73
  -1  -6   9   85.58   15.97
   2   6  -9  142.95   31.99
   2   6  -9  140.40   35.20
   6  -2  -9  142.92   33.82
  -2  -6   9  156.10   31.63
  -2  -6   9  144.46   35.04
   4   6  -9  152.69   33.27
   4   6  -9  159.88   37.40
   6  -4  -9  149.12   32.78
  -6   4   9  145.21   32.89
  -4  -6   9  158.93   41.09
   5   6  -9   -1.22    2.61
   5   6  -9    1.12    2.26
   6  -5  -9    2.93    1.48
   6  -5  -9    2.63    1.21
  -6   5   9    3.40    1.74
  -5  -6   9    2.85    0.83
   6  -6  -9    0.74    0.99
   6   6  -9    0.85    3.04
   6  -6  -9    0.39    1.20
   6   6  -9   -2.95    3.78
   6   6  -9    0.37    1.48
  -6  -6   9   -0.28    0.90
  -6   6   9    1.26    1.66
   6  -7  -9    0.25    0.98
   7   6  -9    5.22    3.68
   6  -7  -9   -0.41    1.42
  -6   7   9    2.63    2.02
   5  -7  -9   48.89   11.35
   5  -7  -9   65.61   12.20
  -5   7   9   69.69   14.13
   4  -7  -9    1.72    0.65
   4  -7  -9    0.47    0.96
  -4   7   9    0.28    1.16
   3  -7  -9  520.23   86.91
  -3   7   9  516.29  121.62
  -3   7   9  520.70   91.33
  -3   7   9  519.84  121.81
   2  -7  -9   10.83    2.56
   2  -7  -9   11.11    2.68
  -2   7  -9   13.37    3.34
   2  -7  -9   10.86    2.64
   2  -7  -9   12.65    2.72
   2  -7   9   12.77    2.92
  -2   7   9   14.08    2.78
  -2   7   9   11.86    3.63
  -2   7   9   16.65    3.17
  -2   7   9   13.51    3.66
   1  -7  -9  148.22   30.28
  -1   7  -9  146.65   33.40
   1  -7   9  151.38   31.68
  -1   7   9  143.29   40.91
  -1   7   9  165.89   39.15
   0   7  -9    0.83    1.04
   0   7  -9    2.76    0.62
   0  -7  -9    0.88    0.59
   0   7  -9   -0.66    0.98
   0  -7  -9    1.86    0.91
   0  -7   9    0.58    0.89
   0   7   9    0.54    1.21
   0   7   9    0.32    1.32
   1   7  -9  153.92   38.03
   1   7  -9  155.48   31.99
  -1  -7  -9  156.92   33.85
  -1  -7   9  155.13   36.45
  -1  -7   9  155.56   30.98
   2   7  -9    9.07    3.18
   2   7  -9    7.22    2.95
   2   7  -9   13.65    3.60
   2   7  -9   11.53    2.94
  -2  -7   9   13.43    3.40
  -2  -7   9   13.61    2.71
  -2  -7   9   12.32    2.92
   3   7  -9  488.93  124.08
   3   7  -9  445.29  119.99
   3   7  -9  536.64  111.70
   3   7  -9  477.33  115.79
  -3  -7   9  488.22  121.03
  -3  -7   9  476.89   80.34
  -3  -7   9  426.84   95.87
   7  -4  -9    1.77    1.27
   4   7  -9    1.68    1.78
   4   7  -9    0.93    1.79
   4   7  -9    0.15    0.74
  -4  -7   9    1.16    0.73
   7  -5  -9   61.23   13.96
   5   7  -9   62.16   16.45
   5   7  -9   37.23   17.46
   6   7  -9   -0.71    1.67
   6   7  -9   -1.81    3.79
   6   7  -9    0.81    2.88
   7  -6  -9    2.76    1.23
  -6  -7   9   -0.50    0.86
   7  -7  -9   -0.30    1.11
   7   7  -9   -1.09    4.13
   7  -8  -9   94.88   23.61
   6  -8  -9   11.80    3.21
   6  -8  -9   12.98    3.19
  -6   8   9   10.91    4.17
   5  -8  -9    1.02    1.32
   5  -8  -9   -0.37    0.76
  -5   8   9    2.87    1.73
   4  -8  -9   11.16    2.53
   4  -8  -9    6.33    2.06
  -4   8   9   12.17    3.11
   3  -8  -9   10.06    1.96
   3  -8  -9   10.86    1.95
  -3   8   9   10.71    2.80
  -3   8   9    9.38    2.61
   2  -8  -9   75.94   16.76
   2  -8  -9   84.65   16.04
  -2   8   9   86.98   18.83
  -2   8   9   73.51   22.64
   1  -8  -9   22.17    5.72
   1  -8  -9   26.58    5.23
   1  -8  -9   28.02    5.33
  -1   8  -9   20.83    5.74
   1  -8  -9   23.58    5.99
  -1   8   9   21.81    7.60
  -1   8   9   25.89    6.73
   1  -8   9   27.30    5.27
  -1   8   9   25.90    6.73
   0  -8  -9   -0.33    0.63
   0   8  -9    0.31    1.11
   0  -8  -9   -0.21    0.79
   0   8  -9    1.41    1.06
   0   8   9   -0.81    1.31
   0   8   9    1.67    1.38
   0  -8   9   -0.22    0.92
  -1  -8  -9   24.35    5.74
   1   8  -9   21.50    5.56
   1   8  -9   31.52    6.11
  -1  -8   9   24.39    5.17
   2   8  -9   75.28   18.78
   3   8  -9    7.71    2.57
   3   8  -9    5.60    2.64
  -3  -8   9    5.49    1.72
  -3  -8   9    4.12    1.93
   4   8  -9   11.60    3.53
   4   8  -9   10.11    3.84
  -4  -8   9   10.62    2.14
  -4  -8   9    7.57    2.61
   5   8  -9    1.28    2.74
   5   8  -9   -1.33    2.44
  -5  -8   9    0.67    0.72
   6   8  -9   12.34    5.91
   6   8  -9    7.84    5.21
  -6  -8   9   14.78    2.41
   7   8  -9   77.65   39.54
  -7  -8   9  131.52   17.75
   8  -9  -9   68.18   15.17
   7  -9  -9    0.27    1.16
   6  -9  -9    3.31    1.19
   5  -9  -9   17.86    3.98
   5  -9  -9   17.36    4.12
  -5   9   9   17.75    5.31
   4  -9  -9   48.19   10.06
   4  -9  -9   42.23   10.03
  -4   9   9   49.58   14.51
   3  -9  -9    0.99    0.65
   3  -9  -9    1.13    0.95
  -3   9   9   -0.25    1.19
  -3   9   9    0.29    1.38
  -2   9  -9    2.12    1.42
  -2   9  -9    2.00    1.13
   2  -9  -9    1.71    0.80
   2  -9  -9    4.13    1.05
   2  -9   9    1.19    1.00
  -2   9   9    1.99    1.33
  -2   9   9    1.08    1.48
   1  -9  -9    3.46    0.82
  -1   9  -9    1.46    1.19
   1  -9  -9    0.87    0.98
  -1   9  -9    1.85    1.25
  -1   9   9    1.35    1.23
  -1   9   9    0.55    1.21
   1  -9   9    3.29    1.01
   0  -9  -9    8.66    2.21
   0  -9  -9   10.95    1.90
   0   9  -9    4.80    2.32
   0   9   9   10.41    3.19
   0  -9   9    9.05    2.30
   0   9   9    5.29    2.79
  -1  -9  -9    2.06    1.08
   1   9  -9    5.20    1.48
   1   9   9    0.46    1.93
  -1  -9   9    2.25    1.10
   2   9  -9    2.51    1.46
   2   9  -9    0.40    1.60
  -2  -9  -9    3.26    1.11
  -2  -9   9    2.70    1.14
  -2  -9   9    2.53    0.96
   2   9   9    0.54    2.15
   3   9  -9   -0.47    1.80
   3   9  -9    2.60    1.83
  -3  -9   9    0.20    0.78
  -3  -9   9    1.00    1.14
   4   9  -9   42.17   13.16
   4   9  -9   34.97   14.79
  -4  -9   9   56.29    9.09
  -4  -9   9   53.77   10.37
   5   9  -9   18.35    6.02
   5   9  -9   11.54    6.65
  -5  -9   9   18.57    3.37
   7   9  -9   -5.10    5.06
   7   9  -9   -1.21    4.75
  -7  -9   9    0.27    0.85
   8 -10  -9    6.10    2.12
   7 -10  -9   27.94    6.29
   6 -10  -9   72.77   13.20
  -6  10   9   72.89   17.67
   5 -10  -9    4.59    1.63
   5 -10  -9    3.59    1.23
  -5  10   9    9.91    3.14
   3 -10  -9    1.74    0.85
   3 -10  -9    2.10    1.22
  -3  10  -9    4.53    1.37
  -3  10   9    2.14    2.06
   3 -10   9    1.70    0.98
  -3  10   9    0.85    1.53
   2 -10  -9    0.65    0.91
   2 -10  -9   -0.59    0.67
  -2  10  -9    0.86    1.24
  -2  10  -9    0.53    1.27
  -2  10   9   -0.59    1.52
   2 -10   9    0.24    0.89
  -2  10   9   -0.61    1.28
   1 -10  -9   36.56    7.55
  -1  10  -9   25.32    7.76
  -1  10  -9   33.64    8.11
   1 -10  -9   32.00    6.79
   1 -10   9   33.65    7.15
   0  10  -9    0.60    1.18
   0  10  -9    0.77    1.29
   0 -10  -9    0.64    0.93
   0 -10   9   -0.26    1.23
  -1 -10  -9   35.98    7.11
   1  10  -9   32.77    8.11
   1  10   9   21.50   10.71
  -1 -10   9   34.63    6.97
   2  10  -9    1.31    1.70
  -2 -10   9    0.25    1.14
   2  10   9    4.94    2.75
   3  10  -9    3.58    2.28
   3  10  -9    4.69    1.98
  -3 -10   9    2.88    1.41
  -3 -10   9    1.53    0.91
   5  10  -9   -0.70    3.44
   5  10  -9    2.51    3.68
  -5 -10   9    2.88    1.11
   6  10  -9   38.27   22.40
   6  10  -9   72.94   18.49
   7  10  -9   47.44   13.27
  -3  11  -9   -0.29    1.36
  -3  11  -9    2.69    1.42
   3 -11   9    0.51    0.99
  -2  11  -9   48.86   10.39
  -2  11  -9   44.89    9.83
   2 -11   9   45.38    9.45
  -1  11  -9    2.97    1.46
  -1  11  -9    2.19    1.54
   1 -11   9   -1.03    1.09
   0  11  -9   84.45   20.72
   0  11  -9   76.33   21.64
   0 -11   9  109.16   19.41
   1  11  -9   -0.42    1.67
   1  11  -9    2.57    1.83
  -1 -11   9   -1.28    1.25
   2  11  -9   43.94   12.24
   2  11   9   35.62   15.15
  -2 -11   9   45.11    8.56
   3  11  -9    0.61    2.17
  -3 -11   9    0.28    1.26
   4  11  -9    4.06    3.00
   4  11  -9   -4.92    2.81
  -4 -11   9    1.49    1.32
  -4 -11   9    0.72    0.97
   5  11  -9    2.51    4.05
  -5 -11   9   10.36    2.46
   7  11  -9    8.65    7.26
   7  11  -9    7.52    5.51
  -3  12  -9    4.09    2.01
   3 -12   9    4.72    1.55
  -2  12  -9    4.42    2.39
   2 -12   9    9.91    2.14
  -1  12  -9  100.46   22.01
   0  12  -9   -0.93    1.83
   0 -12   9    0.28    1.11
   1  12  -9   81.51   23.46
  -1 -12   9   93.22   18.97
   2  12  -9    4.52    3.24
  -2 -12   9    8.41    2.16
   5  12  -9    6.15    4.15
   5  12  -9   -0.83    3.80
  -5 -12   9    2.29    1.87
   6  12  -9    1.11    5.12
   6  12  -9    1.23    4.62
  -6 -12   9    1.50    0.86
  -6 -12   9    0.41    1.97
   7  12  -9   -1.48    6.92
   7  12  -9   -2.75    6.27
  -7 -12   9   -0.30    1.06
   8  12  -9    6.47    6.74
  -3  13  -9    2.35    1.81
  -3  13  -9    2.27    1.99
   3 -13   9    4.45    1.43
  -2  13  -9    3.94    2.50
   2 -13   9   16.75    2.41
  -1  13  -9    1.02    1.61
   0  13  -9    7.64    2.67
   1  13  -9   -0.54    2.06
   1  13  -9   -0.43    2.00
  -1 -13   9    2.84    1.19
  -1 -13   9   -0.30    1.29
   2  13  -9    6.17    3.18
   2  13  -9    8.75    3.65
  -2 -13   9    8.08    2.30
  -2 -13   9    4.71    1.91
   3  13  -9    3.42    3.03
   3  13  -9    4.24    3.29
  -3 -13   9    2.49    1.62
  -3 -13   9    2.34    1.20
  -4 -13   9   -1.71    1.66
   5  13  -9    8.18    5.30
  -5 -13   9    7.63    2.47
   6  13  -9    7.31    5.58
  -6 -13   9    3.47    2.20
   7  13  -9    1.54    6.16
   7  13  -9   -1.56    6.59
  -7 -13   9    2.47    1.13
   8  13  -9    1.68    6.60
  -8 -13   9    1.22    1.01
  -3  14  -9    0.62    2.09
  -3  14  -9   -2.06    1.57
   3 -14   9    1.27    1.37
  -2  14  -9    5.78    2.21
  -2  14  -9    1.46    1.89
   2 -14   9    0.63    1.39
  -1  14  -9   -0.75    1.83
  -1  14  -9    0.58    2.29
   1 -14   9   -0.30    1.46
   0  14  -9    1.23    1.99
   0  14  -9    1.15    2.00
   0 -14   9   -0.92    1.33
   1  14  -9    2.53    2.74
   1  14  -9    5.21    2.29
  -1 -14   9   -1.56    1.31
  -1 -14   9   -0.27    1.20
   2  14  -9   -0.63    2.58
   2  14  -9    2.45    2.79
  -2 -14   9    5.26    1.46
  -2 -14   9    1.22    1.55
   3  14  -9    4.13    3.13
   3  14  -9   -0.77    3.49
  -3 -14   9    0.83    1.21
  -3 -14   9   -1.34    1.69
   4  14  -9   -5.78    4.20
   4  14  -9   -1.47    3.76
  -4 -14   9    1.80    1.74
  -4 -14   9    0.26    0.99
   5  14  -9   -6.16    5.01
   5  14  -9   -3.32    5.06
  -5 -14   9    0.28    0.99
  -5 -14   9    0.78    1.70
   6  14  -9   -1.48    6.37
  -6 -14   9    4.63    2.39
   7  14  -9    6.57    7.14
  -7 -14   9   11.04    3.33
  -4  15  -9    0.73    1.80
  -3  15  -9   -0.76    1.99
  -3  15  -9    3.29    2.16
   3 -15   9   -0.33    1.23
  -2  15  -9   -1.28    2.22
  -2  15  -9    0.40    1.98
   2 -15   9    2.00    1.34
  -1  15  -9   -1.22    2.08
  -1  15  -9   -0.63    1.96
   1 -15   9    0.62    1.43
   0  15  -9    4.87    2.56
   0  15  -9   -0.43    2.19
   0 -15   9    1.44    1.36
   0 -15   9    2.88    1.61
   1  15  -9   -0.49    2.39
   1  15  -9    2.61    2.58
  -1 -15   9    1.50    1.25
  -1 -15   9    2.28    1.46
   2  15  -9   -1.13    2.76
   2  15  -9    2.15    2.86
  -2 -15   9    1.79    1.28
  -2 -15   9    0.33    1.57
   3  15  -9   -2.70    3.84
   3  15  -9    6.08    3.74
  -3 -15   9    2.06    1.77
  -3 -15   9    3.90    1.21
   4  15  -9   -1.66    3.86
   4  15  -9    1.91    3.88
  -4 -15   9   -0.29    1.07
  -4 -15   9   -1.77    1.67
   5  15  -9    2.39    5.11
   5  15  -9   -2.17    4.96
  -5 -15   9   -4.14    2.07
  -5 -15   9    1.08    1.08
   7  15  -9   16.88    8.21
  -7 -15   9    4.23    2.68
   8  15  -9   -1.97    8.50
  -8 -15   9    4.04    2.69
  -4  16  -9    1.91    1.94
  -3  16  -9   -2.00    1.91
  -3  16  -9    2.13    2.12
   3 -16   9   -0.34    1.33
   1 -16   9    3.22    1.66
   0  16  -9   -0.68    2.44
   0 -16   9    1.53    1.54
   3  16  -9    4.23    3.40
   3  16  -9   -3.60    3.88
  -3 -16   9    5.58    1.94
  -3 -16   9    0.61    1.20
   4  16  -9   -4.39    4.52
   4  16  -9    2.17    4.72
  -4 -16   9    0.89    1.28
  -4 -16   9    1.61    2.04
   5  16  -9    8.02    5.27
   5  16  -9    1.36    5.16
  -5 -16   9   -0.43    2.05
  -5 -16   9   -0.28    1.06
   6  16  -9    1.56    7.40
   6  16  -9    1.33    6.68
  -6 -16   9    6.33    1.45
  -6 -16   9    4.84    2.72
   7  16  -9   -3.73    7.65
   7  16  -9   18.09    8.51
  -7 -16   9    2.87    1.27
  -7 -16   9    2.19    2.52
   8  16  -9   -1.92    7.44
  -8 -16   9   -1.14    2.85
  -4  17  -9   -0.42    2.03
  -3  17  -9    2.18    2.33
  -3  17  -9   -0.42    1.93
   3 -17   9    1.75    1.34
  -2  17  -9   -1.56    2.76
  -2  17  -9    2.89    2.40
   2 -17   9   -0.37    1.57
  -1  17  -9    2.73    2.52
  -1  17  -9    2.25    2.63
   1 -17   9    0.74    1.49
   1 -17   9    2.74    1.48
   0  17  -9    1.58    2.87
   0  17  -9   -4.53    2.75
   0 -17   9   -1.47    1.71
   0 -17   9   -0.68    1.32
   1  17  -9    4.08    3.28
   1  17  -9    4.35    2.81
  -1 -17   9    0.33    1.32
  -1 -17   9    2.62    1.72
   2  17  -9   -3.25    3.16
   2  17  -9   -1.82    3.75
  -2 -17   9   -4.57    2.01
  -2 -17   9    0.33    1.38
   3  17  -9   -1.95    4.21
   3  17  -9    1.55    3.85
  -3 -17   9    0.29    1.14
  -3 -17   9    2.63    1.70
   4  17  -9    6.42    5.22
   4  17  -9   -4.83    5.10
  -4 -17   9    0.31    1.03
  -4 -17   9    0.41    1.89
   5  17  -9   -1.34    5.44
   5  17  -9    4.66    5.84
  -5 -17   9    0.59    1.03
  -5 -17   9    1.26    2.09
   6  17  -9   -9.84    7.80
   6  17  -9  -22.01    8.82
  -6 -17   9   -1.95    2.84
  -6 -17   9   -1.95    1.43
   7  17  -9  -13.06    8.91
   7  17  -9   -5.49    7.53
  -7 -17   9    0.31    1.18
  -7 -17   9   -1.51    2.28
  -4  18  -9    0.47    2.05
   2 -18   9   -0.39    1.83
   2 -18   9    1.56    2.09
  -1  18  -9   -5.05    3.47
  -1  18  -9   -0.48    2.57
   1 -18   9   -1.53    1.83
   1 -18   9    0.35    1.67
   0  18  -9   -6.17    3.17
   0  18  -9   -0.87    3.36
   0 -18   9   -1.51    1.78
   0 -18   9   -1.94    1.59
   1  18  -9   -3.67    3.13
   1  18  -9   -2.74    3.80
  -1 -18   9   -3.05    1.99
  -1 -18   9   -1.08    1.93
  -2 -18   9    3.26    1.57
  -2 -18   9   -1.96    2.02
   4  18  -9   -8.87    5.50
   4  18  -9   -2.49    5.21
  -4 -18   9    0.64    1.30
  -4 -18   9   -3.04    2.09
   5  18  -9    1.48    6.25
   5  18  -9   -2.70    5.82
  -5 -18   9    0.30    1.17
  -5 -18   9    0.47    2.33
   6  18  -9   17.15    7.80
   6  18  -9    3.22    7.76
  -6 -18   9   -1.59    1.18
  -6 -18   9   -0.53    2.32
   7  18  -9    7.54    8.38
   7  18  -9   -1.92    8.10
  -7 -18   9    4.37    2.57
  -3  19  -9    0.99    2.53
   3 -19   9    1.93    1.61
  -2  19  -9    1.95    3.26
  -2  19  -9    3.68    2.60
   2 -19   9    1.67    1.95
   2 -19   9   -0.39    1.53
  -1  19  -9   -3.44    2.87
  -1  19  -9   -2.83    3.37
   1 -19   9    1.48    1.49
   1 -19   9    1.90    1.66
   0  19  -9   -4.00    2.91
   0  19  -9   -0.97    3.59
   0 -19   9    0.37    1.58
   0 -19   9    0.38    1.65
   1  19  -9    8.74    4.30
   1  19  -9    4.78    3.51
  -1 -19   9   -0.35    1.60
   2  19  -9    2.44    4.15
   2  19  -9    6.43    4.45
  -2 -19   9    0.67    1.39
  -2 -19   9   -0.85    1.78
   3  19  -9    3.61    5.16
   3  19  -9    0.91    4.69
  -3 -19   9    2.13    2.00
  -3 -19   9    0.34    1.31
   4  19  -9    6.68    5.44
  -4 -19   9    1.58    1.34
  -4 -19   9    4.79    2.24
  -5 -19   9    0.47    2.12
   3 -20   9    0.40    1.45
  -2  20  -9   -2.09    3.68
   2 -20   9    0.86    1.71
  -1  20  -9    2.03    3.61
   1 -20   9   -0.82    1.73
   1   0 -10    0.15    0.33
   0   1 -10   -1.00    0.66
   0   1 -10    0.12    0.46
   1   1 -10   54.03   10.79
   1   1 -10   50.04   12.97
   1   1 -10   39.76   11.19
  -1  -1  10   50.95   10.61
   2   1 -10   16.28    4.02
  -1   2  10   16.96    5.06
   2   0 -10  557.43  116.47
   0   2 -10  567.11  123.93
   2   0 -10  599.78  137.94
   0   2 -10  559.70  135.41
  -2   0  10  572.48  122.23
   0  -2  10  512.60  125.29
   1   2 -10   17.25    4.36
   1   2 -10   18.22    4.04
   2  -1 -10   21.90    3.83
   1   2 -10   19.26    4.59
   2  -1 -10   21.87    5.32
  -2   1  10   17.11    4.01
  -2   1  10   16.15    4.53
   2  -2 -10  170.15   38.93
   2   2 -10  192.57   46.87
   2   2 -10  192.42   42.98
  -2   2  10  208.15   50.02
  -2   2  10  202.39   42.70
   2  -3 -10   73.07   17.82
   3   2 -10   83.15   17.17
   3   2 -10   84.71   18.43
   3   2 -10   81.09   17.27
  -3  -2  10   73.63   18.06
   3   1 -10   24.12    4.64
   1  -3 -10   25.82    4.91
   3   1 -10   24.33    4.65
   3   1 -10   28.25    4.58
  -1   3  10   21.44    6.18
  -3  -1  10   23.75    4.73
   0  -3 -10    0.43    0.83
   3   0 -10   -0.10    0.38
   3   0 -10    0.33    0.54
   0  -3 -10    0.14    0.49
   3   0 -10   -0.15    0.72
   3   0 -10   -0.14    0.48
   0   3 -10   -0.37    0.55
  -3   0  10   -0.14    0.62
   0  -3  10    0.27    0.85
  -3   0  10   -0.46    0.41
   0   3  10    0.27    0.98
  -3   0  10    0.14    0.38
   3  -1 -10   21.62    6.87
   1   3 -10   17.86    5.10
   3  -1 -10   21.94    4.49
   1   3 -10   18.39    4.91
   3  -1 -10   27.60    4.68
  -3   1  10   17.42    6.72
  -1  -3  10   19.89    5.93
  -3   1  10   23.67    4.53
   2   3 -10   76.89   18.98
   3  -2 -10   68.75   16.67
  -2  -3  10   79.65   16.34
  -3   2  10   73.78   16.68
   3  -3 -10    7.07    1.72
   3  -3 -10    6.48    1.79
  -3   3  10    7.69    1.90
   4   3 -10    1.19    0.74
   4   3 -10   -0.92    0.67
   3  -4 -10   -0.12    0.45
   4   3 -10   -1.27    1.35
   3  -4 -10   -0.19    0.62
  -3   4  10    0.94    0.85
  -4  -3  10    1.69    0.60
   4   2 -10    7.54    2.15
   4   2 -10    8.30    1.91
   2  -4 -10    6.95    2.13
   2  -4 -10   10.12    1.67
   4   2 -10    8.87    2.13
  -4  -2  10    6.77    2.04
  -2   4  10    7.24    2.64
  -2   4  10    9.91    2.14
  -1   4 -10   41.57    9.93
   4   1 -10   42.70    8.16
   4   1 -10   39.48    9.30
   4   1 -10   42.92   12.73
   1  -4 -10   42.70    8.57
   4   1 -10   43.52    8.65
  -4  -1  10   39.99    9.70
  -4  -1  10   43.10   11.00
  -1   4  10   43.68   11.85
   0   4 -10    0.18    0.64
   0  -4 -10    0.71    0.51
   0   4 -10   -0.32    0.70
   4   0 -10    0.18    0.62
   0   4 -10    0.23    0.71
   0  -4 -10   -0.23    0.83
   4   0 -10   -0.14    0.57
   4   0 -10   -0.31    0.58
   0  -4  10    0.27    0.54
  -4   0  10    0.82    0.72
   0   4  10   -0.28    0.96
   1   4 -10   45.69   10.15
   4  -1 -10   38.46    9.16
   4  -1 -10   45.17    8.09
   1   4 -10   44.49   10.01
  -1  -4  10   33.35   10.50
  -4   1  10   37.73    9.11
   2   4 -10    7.08    2.10
   4  -2 -10    9.99    2.04
   4  -2 -10    9.45    1.58
   2   4 -10   10.46    2.14
   2   4 -10    6.89    2.05
   2   4 -10    6.38    2.26
  -2  -4  10    6.69    2.22
  -4   2  10    8.53    2.09
  -2  -4  10    7.60    2.03
  -2  -4  10    7.97    2.08
   3   4 -10    1.10    0.96
   4  -3 -10    0.41    0.65
   4  -3 -10    0.16    0.62
   3   4 -10    0.48    0.92
   3   4 -10   -0.78    0.59
  -4   3  10    1.35    0.92
  -3  -4  10   -0.14    0.63
  -3  -4  10    0.78    0.68
  -3  -4  10   -0.14    0.54
   4   4 -10   87.14   21.79
   4  -4 -10   92.70   19.47
   4  -4 -10   87.84   19.04
   4   4 -10   96.80   22.57
  -4   4  10   81.75   20.82
  -4  -4  10   83.64   17.89
   5   4 -10   93.89   28.82
   5   4 -10  101.30   26.92
   5   4 -10  115.12   25.00
  -5  -4  10  111.61   24.49
   5   3 -10   34.26   11.19
   3  -5 -10   37.20    7.39
   5   3 -10   41.01    8.82
   5   3 -10   32.01    9.60
   5   3 -10   36.62    7.62
   3  -5 -10   34.08    7.41
  -5  -3  10   38.03    8.31
  -3   5  10   42.28    8.71
  -5  -3  10   28.95    8.36
   5   2 -10  124.45   27.41
   2  -5 -10  118.53   24.76
   5   2 -10  120.38   23.60
   2  -5 -10  114.56   21.46
  -2   5  10  116.65   25.39
  -5  -2  10  116.97   25.00
  -2   5  10  109.52   31.31
   5   1 -10    5.13    1.34
   5   1 -10    3.77    1.57
  -1   5 -10    4.42    1.31
  -1   5 -10    3.82    1.52
   1  -5 -10    3.88    1.23
   5   1 -10    4.50    1.47
   1  -5 -10    3.54    1.00
   1  -5  10    5.72    1.33
  -1   5  10    6.03    1.17
  -1   5  10    4.75    1.68
  -5  -1  10    2.94    1.40
   0   5 -10    0.89    0.67
   0  -5 -10   -0.29    0.47
   5   0 -10   -0.93    1.15
   5   0 -10    0.50    0.82
   5   0 -10    0.22    0.74
   0   5 -10    0.16    0.58
   0   5 -10    0.26    0.76
   0  -5 -10    0.46    0.89
   0  -5  10   -0.47    0.54
   0   5  10   -0.59    0.96
  -5   0  10    0.70    0.84
   5  -1 -10    4.41    1.44
   1   5 -10    5.12    1.37
   1   5 -10    2.84    1.34
   5  -1 -10    4.08    1.29
   1   5 -10    4.88    1.28
   1   5 -10    4.59    1.20
  -1  -5  10    4.57    1.31
  -1  -5  10    3.05    1.46
  -5   1  10    6.84    1.41
   2   5 -10  123.12   24.75
   2   5 -10  110.41   26.24
   2   5 -10   94.11   27.32
   2   5 -10  117.04   24.37
  -2  -5  10  109.87   23.91
  -2  -5  10   98.19   24.98
   5  -3 -10   32.85    7.58
   3   5 -10   35.69    7.93
   3   5 -10   32.85    7.76
   3   5 -10   35.80    8.05
   3   5 -10   31.60    7.97
   5  -3 -10   32.75    7.05
  -3  -5  10   37.13    8.07
   4   5 -10   96.69   24.44
   5  -4 -10   96.18   20.19
   5  -4 -10  116.65   21.63
   5  -5 -10    3.93    1.02
   5   5 -10    8.57    2.68
   5  -5 -10    0.84    1.08
   5   5 -10    3.12    1.36
   5   5 -10    1.39    1.98
   5   5 -10    1.27    1.24
  -5  -5  10    4.53    1.27
  -5   5  10    2.88    1.45
  -5  -5  10    2.77    0.93
   5  -6 -10   32.96    6.16
   5  -6 -10   34.30    6.68
   6   5 -10   35.86    7.28
   6   5 -10   27.06   11.43
   6   5 -10   18.14    9.84
  -6  -5  10   29.86    6.28
  -5   6  10   27.37    7.53
   6   4 -10    3.83    2.98
   4  -6 -10    3.51    1.46
   6   4 -10    3.16    1.98
   4  -6 -10    4.57    1.53
  -4   6  10    9.37    2.09
  -6  -4  10   10.16    1.81
   6   3 -10  403.91   94.78
   3  -6 -10  411.71   77.54
   6   3 -10  380.18  127.61
   3  -6 -10  431.57   85.42
  -6  -3  10  410.54  107.55
   6   2 -10   84.38   15.94
   2  -6 -10   77.58   15.81
   6   2 -10   51.53   20.59
   2  -6 -10   74.84   15.99
   6   2 -10   65.67   19.30
   2  -6 -10   58.92   14.45
  -2   6  10   71.97   19.01
  -2   6  10   77.65   15.62
  -2   6  10   66.40   19.97
   0  -6 -10   36.41    9.49
   6   0 -10   41.38    9.44
   0   6 -10   46.01   10.29
   0   6 -10   44.90    9.43
   0   6 -10   43.18    9.34
   0   6  10   40.94   12.13
  -6   0  10   44.11    9.56
   2   6 -10   67.63   17.13
   2   6 -10   67.03   16.32
   2   6 -10   76.83   16.56
   6  -2 -10   71.85   16.98
  -2  -6  10   71.32   15.22
  -2  -6  10   72.84   16.95
  -2  -6  10   73.81   17.16
   3   6 -10  447.11  103.79
   6  -3 -10  446.50   96.15
   3   6 -10  415.79   95.35
   3   6 -10  446.85   94.64
   6  -3 -10  446.50   96.40
   3   6 -10  376.41   98.54
  -3  -6  10  434.80   92.19
  -6   3  10  444.91   93.15
  -3  -6  10  421.29   82.94
  -3  -6  10  407.58   79.96
  -3  -6  10  379.13  102.10
   4   6 -10    4.11    2.35
   6  -4 -10    6.11    1.97
   6  -4 -10    8.43    1.96
   4   6 -10    8.05    2.36
  -6   4  10    6.11    2.14
  -4  -6  10    6.35    1.72
  -4  -6  10    6.67    1.90
  -4  -6  10    7.10    1.40
   6  -5 -10   29.51    6.69
   6  -5 -10   27.46    7.04
   5   6 -10   30.31    7.29
   5   6 -10   26.48    8.56
   5   6 -10   31.70    8.10
  -6   5  10   22.79    6.83
  -5  -6  10   31.22    5.55
   6  -6 -10   -0.37    1.39
   6  -6 -10   -0.74    0.97
   6   6 -10   -0.99    1.51
   6   6 -10   -2.57    3.51
   6   6 -10   -3.42    2.94
  -6   6  10   -0.37    1.71
  -6  -6  10    0.49    0.76
   7   6 -10    4.22    2.47
   7   6 -10    5.50    4.00
   6  -7 -10    5.55    1.44
   6  -7 -10    4.40    1.65
  -6   7  10    2.15    2.40
   7   5 -10    0.92    5.85
   5  -7 -10   12.28    3.25
   7   5 -10   25.50    4.74
   5  -7 -10   13.02    3.47
  -5   7  10   10.18    4.19
   4  -7 -10  179.73   31.68
   4  -7 -10  166.32   36.74
   7   4 -10  118.05   51.78
   7   4 -10  147.03   44.03
  -4   7  10  172.10   39.60
   3  -7 -10   -0.22    0.86
   3  -7 -10    0.29    0.63
   7   3 -10   -0.45    1.98
  -3   7  10    1.23    1.17
  -3   7  10    2.10    1.14
  -2   7 -10  313.48   59.65
   7   2 -10  302.51   67.52
  -2   7 -10  298.43   67.14
   2  -7 -10  297.78   55.22
  -2   7  10  278.56   70.96
   2  -7  10  255.93   59.24
  -2   7  10  290.37   66.23
  -1   7 -10   51.14   12.36
   1  -7 -10   54.85    9.92
   1  -7 -10   50.93   11.20
   7   1 -10   45.10   13.02
  -1   7  10   52.21   14.73
  -1   7  10   57.04   12.41
   0  -7 -10   -0.45    0.87
   0   7 -10    1.72    1.06
   0   7 -10    0.23    1.03
   0   7 -10   -0.13    0.62
   7   0 -10    0.81    1.51
   0  -7 -10    0.16    0.64
   0   7  10   -0.36    1.36
  -7   0  10   -0.77    1.43
   0   7  10   -0.26    1.12
   0  -7  10   -0.17    0.77
   1   7 -10   50.57   12.45
   1   7 -10   55.62   12.30
   7  -1 -10   47.30   12.48
  -7   1  10   65.69   12.31
   2   7 -10  268.21   64.35
  -2  -7  10  267.57   69.36
  -7   2  10  302.44   64.28
  -2  -7  10  276.28   55.30
   3   7 -10   -0.17    0.73
   3   7 -10   -0.64    1.35
   7  -3 -10    0.43    1.70
   3   7 -10    0.68    0.70
   3   7 -10   -1.44    1.34
   7  -3 -10   -0.34    1.26
  -7   3  10    0.38    1.57
  -3  -7  10    1.06    0.89
  -3  -7  10    0.72    0.67
  -3  -7  10    0.44    0.73
  -3  -7  10    1.00    0.84
   4   7 -10  178.62   41.27
   4   7 -10  187.95   39.32
   7  -4 -10  175.93   38.26
  -4  -7  10  188.79   46.09
  -4  -7  10  169.97   30.59
   7  -5 -10   17.24    3.88
   7  -5 -10   18.24    3.89
   5   7 -10   11.24    4.70
   5   7 -10   18.97    4.88
  -7   5  10   18.40    4.07
  -5  -7  10   17.25    2.92
   7  -6 -10    3.32    1.92
   6   7 -10    8.31    4.03
   6   7 -10    7.61    3.44
   7  -6 -10    4.18    1.81
  -6  -7  10    4.01    1.18
  -7   6  10    4.75    2.18
   7  -7 -10    9.94    2.75
   7   7 -10    3.12    5.09
  -7  -7  10   13.23    2.15
  -7   7  10    5.51    3.22
   7  -8 -10   -0.28    1.15
  -7   8  10    2.97    2.44
   6  -8 -10    0.39    1.42
   6  -8 -10    2.85    1.13
  -6   8  10    0.47    2.03
   5  -8 -10    3.74    1.42
  -5   8  10    4.08    2.00
   4  -8 -10   61.61   11.43
  -4   8  10   63.43   13.85
   3  -8 -10   24.98    5.29
   3  -8 -10   23.13    4.75
  -3   8  10   24.78    7.02
  -3   8  10   20.90    7.07
  -2   8 -10   35.83    8.49
   2  -8 -10   33.89    7.04
  -2   8  10   29.21    9.87
  -2   8  10   39.18    9.11
  -1   8 -10   24.47    6.09
   1  -8 -10   29.50    5.30
   1  -8 -10   25.31    5.92
  -1   8 -10   22.65    6.41
  -1   8  10   31.86    7.65
   1  -8  10   26.78    5.81
  -1   8  10   28.54    7.10
   0  -8 -10   14.73    2.81
   0  -8 -10   14.20    3.01
   0   8 -10    9.16    3.08
   0   8 -10   11.21    3.17
   0   8  10   14.28    4.03
   0   8  10    9.42    3.45
   0  -8  10   12.35    2.91
   1   8 -10   16.28    6.22
   1   8 -10   21.23    6.09
  -1  -8 -10   32.02    6.15
  -1  -8  10   27.05    5.68
   2   8 -10   36.56    8.29
   2   8 -10   39.93    8.50
  -2  -8  10   31.67    7.10
   3   8 -10   24.95    6.44
   3   8 -10   26.12    6.58
  -3  -8  10   25.38    5.23
  -3  -8  10   22.54    4.74
   4   8 -10   49.79   13.60
   4   8 -10   49.27   15.78
  -4  -8  10   49.01   11.52
  -4  -8  10   47.68   10.12
   5   8 -10    1.27    2.14
   5   8 -10    1.76    2.27
  -5  -8  10    3.31    0.87
   6   8 -10    0.88    3.89
   6   8 -10   -3.29    3.30
  -6  -8  10    3.46    0.91
   8  -7 -10    1.38    1.52
   7   8 -10    1.05    4.37
   7   8 -10    1.23    5.68
  -7  -8  10    1.61    0.98
   8  -8 -10  102.88   22.75
   8  -9 -10    2.60    1.50
   7  -9 -10   21.80    5.86
   6  -9 -10   27.30    7.03
   6  -9 -10   34.34    7.58
  -6   9  10   42.54    9.26
   5  -9 -10   19.84    4.36
   5  -9 -10   14.63    4.62
  -5   9  10   27.17    5.95
   4  -9 -10    6.83    1.81
   4  -9 -10    7.93    1.79
  -4   9  10    4.78    2.74
   3  -9 -10   36.37    8.02
   3  -9 -10   36.24    7.90
  -3   9  10   41.10   11.45
  -3   9  10   39.25   10.82
   2  -9 -10   17.09    3.44
  -2   9 -10   17.43    4.44
   2  -9 -10   18.53    3.61
   2  -9  10   15.06    3.98
  -2   9  10   19.41    4.99
  -2   9  10   18.15    5.30
   1  -9 -10    4.20    1.04
  -1   9 -10    1.11    1.31
   1  -9 -10   -0.15    0.73
   1  -9  10    2.70    1.00
  -1   9  10    3.40    1.48
  -1   9  10    0.23    1.18
   0  -9 -10    0.85    0.63
   0   9 -10    1.07    1.28
   0  -9 -10    0.47    0.99
   0   9 -10   -0.36    1.38
   0  -9  10   -0.23    0.94
   0   9  10   -0.41    1.44
  -1  -9 -10    1.71    1.08
   1   9 -10    4.78    1.60
   1   9 -10    0.36    1.32
   1   9  10    1.23    1.90
  -1  -9  10    1.80    1.13
   2   9 -10   14.22    4.25
   2   9 -10   13.86    4.66
  -2  -9  10   16.71    3.79
  -2  -9  10   14.36    3.56
   3   9 -10   31.53   10.55
   3   9 -10   36.25    9.81
  -3  -9  10   36.02    7.81
  -3  -9  10   41.86    6.81
   4   9 -10    7.95    3.01
   4   9 -10    7.22    3.64
  -4  -9  10    9.99    1.76
  -4  -9  10    3.74    2.19
   5   9 -10   25.44    6.09
   5   9 -10   15.29    7.25
  -5  -9  10   25.65    4.46
  -5  -9  10   21.38    3.66
   6   9 -10   13.27   11.98
   6   9 -10   32.06   11.00
  -6  -9  10   36.22    5.24
   7   9 -10   10.13   10.66
   7   9 -10   23.62   10.80
  -7  -9  10   37.08    4.54
   8   9 -10   -5.54    5.53
   8 -10 -10    5.60    1.98
   7 -10 -10   14.75    3.54
   6 -10 -10    0.20    0.83
   6 -10 -10    2.99    1.97
  -6  10  10    0.66    2.93
   5 -10 -10   24.79    6.44
   5 -10 -10   29.41    6.28
  -5  10  10   28.05    8.95
   4 -10 -10   32.48    7.38
   4 -10 -10   34.97    6.81
  -4  10  10   33.33    9.55
  -4  10  10   34.59    9.93
  -3  10  10    4.49    2.01
  -2  10 -10   -0.53    1.17
   2 -10 -10   -0.24    0.98
   2 -10 -10    0.31    0.61
  -2  10 -10   -0.48    1.44
  -2  10  10   -1.25    1.63
   2 -10  10   -1.83    1.15
  -2  10  10   -1.51    1.40
   1 -10 -10    3.60    1.20
  -1  10 -10    1.23    1.39
   1 -10 -10    0.54    0.73
  -1  10 -10   -0.59    1.26
   1 -10  10    1.18    1.04
  -1  10  10    1.40    1.38
  -1  10  10   -0.72    1.67
   0 -10 -10   27.62    5.54
   0  10 -10   23.74    6.07
   0  10  10   22.29    8.56
   0 -10  10   27.23    5.67
   1  10 -10   -0.40    1.52
  -1 -10 -10    0.74    0.94
  -1 -10  10    0.48    1.16
   2  10 -10    1.40    1.62
   2  10 -10   -2.33    1.99
  -2 -10 -10   -0.52    1.16
  -2 -10  10    0.24    0.88
   2  10  10    1.74    2.53
  -2 -10  10    0.72    1.16
   4  10 -10   16.60    9.77
   4  10 -10   23.56    8.74
  -4 -10  10   45.38    6.55
  -4 -10  10   31.64    5.87
   5  10 -10   24.60    8.36
   5  10 -10   19.06   10.12
  -5 -10  10   31.88    5.19
  -5 -10  10   28.73    6.34
   6  10 -10    0.91    4.13
   6  10 -10    2.86    3.79
  -6 -10  10    0.73    0.95
  -3  11 -10    0.59    1.38
   3 -11  10    0.27    0.84
  -2  11 -10   -0.94    1.32
  -2  11 -10   -2.93    1.74
   2 -11  10    1.10    1.19
  -1  11 -10   50.94   13.55
  -1  11 -10   60.33   14.18
   0  11 -10    1.74    1.71
   0  11 -10    0.96    1.37
   0 -11  10   -0.26    1.16
   1  11 -10   61.27   14.77
  -1 -11  10   64.50   12.36
   2  11 -10    1.43    2.00
  -2 -11  10   -1.58    1.25
   3  11 -10    1.09    2.13
   3  11 -10    4.70    2.04
  -3 -11  10    0.71    0.95
  -3 -11  10    1.60    1.31
   4  11 -10    4.07    3.23
  -4 -11  10    8.39    2.15
   6  11 -10  -12.50    4.22
  -6 -11  10   -0.25    0.94
   7  11 -10    1.35    5.91
   7  11 -10    6.25    5.43
  -7 -11  10    1.06    1.06
  -8 -11  10    0.88    1.08
   4  12 -10    0.60    3.01
  -4 -12  10    5.21    1.42
   5  12 -10   -6.49    3.72
   5  12 -10   -0.76    3.35
  -5 -12  10    0.26    1.04
  -5 -12  10   -0.37    1.83
   7  12 -10    5.69    6.50
   7  12 -10    5.63    5.48
   8  12 -10    1.59    5.92
  -8 -12  10   -1.74    1.06
  -3  13 -10    0.34    1.78
  -3  13 -10   -0.54    1.74
   3 -13  10   -0.29    1.26
  -2  13 -10    5.09    1.88
  -2  13 -10    5.57    2.05
   2 -13  10    1.48    1.40
  -1  13 -10    9.05    2.77
  -1  13 -10    8.57    2.79
   1 -13  10    2.52    1.96
   0  13 -10   -1.15    1.78
   0  13 -10   -0.51    1.95
   0 -13  10    1.08    1.25
   1  13 -10    7.78    3.01
   1  13 -10    4.84    2.78
  -1 -13  10   11.10    2.29
  -1 -13  10    9.98    2.31
   2  13 -10    0.97    2.51
   2  13 -10    2.28    2.18
  -2 -13  10    1.79    1.24
  -2 -13  10    0.29    1.53
   3  13 -10    0.69    2.82
  -3 -13  10    1.11    1.03
  -3 -13  10    1.89    1.45
   4  13 -10    3.44    4.03
  -4 -13  10    3.00    1.66
   5  13 -10    0.83    3.76
   5  13 -10    0.99    3.38
  -5 -13  10   -0.70    1.76
   6  13 -10   11.66    5.95
   6  13 -10   -3.34    5.29
  -6 -13  10    5.69    2.72
  -6 -13  10    4.25    1.39
   7  13 -10   -7.23    6.19
   7  13 -10   -7.72    6.29
  -7 -13  10    0.50    2.27
  -7 -13  10    0.54    0.91
   8  13 -10    8.33    7.00
  -3  14 -10    5.17    1.83
  -3  14 -10    0.35    1.78
   3 -14  10    2.13    1.32
  -2  14 -10    0.61    1.85
  -2  14 -10   -0.78    1.76
   2 -14  10   -0.31    1.29
  -1  14 -10    1.89    1.87
  -1  14 -10    2.86    2.34
   1 -14  10   -1.16    1.25
   0  14 -10    1.69    2.18
   0  14 -10    0.44    1.98
   0 -14  10    0.27    1.19
   1  14 -10    3.56    2.55
   1  14 -10   -2.67    2.45
  -1 -14  10   -1.86    1.38
  -1 -14  10    1.78    1.27
   2  14 -10   -2.51    2.51
   2  14 -10   -1.30    2.71
  -2 -14  10    0.26    1.03
  -2 -14  10   -2.22    1.52
   3  14 -10    1.22    2.61
   3  14 -10    4.84    3.41
  -3 -14  10   -0.32    1.60
  -3 -14  10   -0.28    1.14
   4  14 -10   -1.73    3.79
   4  14 -10    2.15    3.35
  -4 -14  10    2.68    1.65
  -4 -14  10    2.33    1.10
   5  14 -10   -4.29    4.34
  -5 -14  10    0.40    1.93
   6  14 -10   -1.30    5.08
  -6 -14  10    0.87    2.05
   7  14 -10  -10.92    8.24
   7  14 -10   -1.54    6.39
  -7 -14  10    3.62    1.13
  -7 -14  10    0.96    2.23
   8  14 -10  -11.12    8.36
  -8 -14  10    2.35    1.05
  -3  15 -10   -2.33    1.88
  -3  15 -10   -0.62    1.70
   3 -15  10   -0.64    1.15
  -2  15 -10    6.83    2.25
  -2  15 -10    4.67    2.62
   2 -15  10    4.75    1.76
  -1  15 -10    0.61    2.39
  -1  15 -10    2.08    2.10
   1 -15  10   -0.95    1.42
   0  15 -10    2.54    2.44
   0  15 -10    0.87    2.12
   0 -15  10    0.33    1.47
   0 -15  10    0.63    1.35
   1  15 -10   -3.31    2.46
   1  15 -10    0.48    2.47
  -1 -15  10   -0.68    1.33
  -1 -15  10    0.30    1.25
   2  15 -10    2.60    3.02
   2  15 -10    2.92    3.33
  -2 -15  10    5.67    1.68
  -2 -15  10    3.34    1.86
   3  15 -10   -2.43    3.20
   3  15 -10   -1.90    3.03
  -3 -15  10   -0.35    1.65
  -3 -15  10   -0.29    1.13
   4  15 -10    8.10    4.47
   4  15 -10    3.10    4.09
  -4 -15  10    6.10    1.94
   5  15 -10    2.08    5.21
  -5 -15  10    0.81    1.87
  -5 -15  10    0.29    1.13
   6  15 -10   -5.59    5.48
  -6 -15  10    4.39    2.32
   7  15 -10  -10.99    8.18
  -7 -15  10   -0.53    2.48
   8  15 -10   -1.79    6.84
  -8 -15  10   -1.70    2.52
  -8 -15  10    0.89    0.91
  -3  16 -10   -1.24    2.12
  -3  16 -10    2.00    1.98
   3 -16  10   -0.66    1.22
  -2  16 -10   -1.66    1.87
  -2  16 -10    0.74    2.59
   2 -16  10    2.16    1.54
  -1  16 -10    0.93    2.43
   1  16 -10    2.18    2.76
   2  16 -10    3.25    3.11
   2  16 -10   -0.59    2.67
  -2 -16  10   -0.33    1.48
  -2 -16  10   -0.37    1.78
   3  16 -10    4.38    3.47
   3  16 -10   -2.17    3.50
  -3 -16  10    0.36    1.59
  -3 -16  10   -0.31    1.33
   4  16 -10   -4.34    4.28
   4  16 -10   -9.29    4.99
  -4 -16  10    0.39    1.95
  -4 -16  10    1.88    1.22
   5  16 -10   -3.41    5.73
   5  16 -10    1.24    5.10
  -5 -16  10    2.04    2.06
  -5 -16  10    2.60    1.17
   6  16 -10   -2.68    6.13
   6  16 -10    2.99    6.81
  -6 -16  10    0.46    2.14
  -6 -16  10    0.57    1.05
   7  16 -10   -1.70    6.55
  -7 -16  10    3.45    2.61
   8  16 -10  -21.05   13.11
  -8 -16  10   -4.12    3.27
  -3  17 -10    0.46    2.13
   3 -17  10   -0.36    1.32
  -2  17 -10    1.34    2.66
  -2  17 -10    6.59    3.33
   2 -17  10    6.35    2.07
  -1  17 -10    0.93    2.42
  -1  17 -10    5.42    2.73
   1 -17  10    0.38    1.54
   1 -17  10    0.74    1.44
   0  17 -10   -3.17    2.73
   0  17 -10    1.53    2.43
   0 -17  10   -2.17    1.56
   0 -17  10    2.68    1.45
   1  17 -10    0.83    3.26
   1  17 -10    1.09    2.44
  -1 -17  10    3.65    1.51
  -1 -17  10    2.93    1.73
   2  17 -10    8.17    4.24
   2  17 -10    7.30    3.73
  -2 -17  10    1.50    2.02
  -2 -17  10    9.15    1.94
   3  17 -10   -3.91    3.74
  -3 -17  10   -0.62    1.30
  -3 -17  10    1.94    1.80
   4  17 -10   -3.67    4.40
   4  17 -10    5.74    4.82
  -4 -17  10   -1.21    1.77
  -4 -17  10    1.25    1.29
   5  17 -10    2.39    5.79
   5  17 -10   -5.66    5.71
  -5 -17  10   -0.59    1.22
  -5 -17  10    2.70    2.06
   7  17 -10   -3.74    7.35
   7  17 -10    1.89    9.34
  -7 -17  10    0.66    1.06
  -7 -17  10   -0.55    2.52
   8  17 -10   -7.98    7.99
  -8 -17  10   -0.57    2.57
  -8 -17  10    0.31    1.02
  -3  18 -10    1.83    2.43
   3 -18  10   -0.75    1.55
  -2  18 -10   -0.48    2.63
   2  18 -10  -13.67    4.57
   3  18 -10    2.49    3.99
   3  18 -10    5.47    4.73
  -3 -18  10    3.80    1.46
  -3 -18  10   -1.60    1.86
   4  18 -10    2.08    5.14
   4  18 -10   -7.36    4.99
  -4 -18  10    0.33    1.14
  -4 -18  10    2.54    1.78
   5  18 -10   -4.84    5.77
   5  18 -10   -9.60    7.05
  -5 -18  10   -0.45    2.12
  -5 -18  10    0.31    1.26
   6  18 -10    4.94    6.99
   6  18 -10   -2.84    6.88
  -6 -18  10    0.93    2.28
  -6 -18  10    0.67    1.20
   7  18 -10    2.03    9.66
  -7 -18  10    2.16    2.74
  -3  19 -10   -3.61    2.57
   3 -19  10   -0.39    1.49
  -2  19 -10    0.96    3.00
  -2  19 -10    7.00    2.75
   2 -19  10    5.91    1.84
   2 -19  10   -2.08    1.66
  -1  19 -10    0.53    2.63
  -1  19 -10   -3.72    2.97
   1 -19  10   -0.76    1.67
   1 -19  10    0.77    1.46
   0  19 -10    4.60    2.85
   0  19 -10    7.70    3.56
   0 -19  10    1.83    1.60
   0 -19  10   -1.11    1.51
   1  19 -10   -3.00    3.44
   1  19 -10   -0.66    3.48
  -1 -19  10    0.73    1.50
  -1 -19  10    0.40    1.66
   2  19 -10    0.74    3.61
   2  19 -10    1.09    4.68
  -2 -19  10    0.36    1.53
  -2 -19  10    2.55    2.01
   3  19 -10   -7.69    5.79
  -3 -19  10    2.51    1.48
  -3 -19  10    3.02    2.03
   4  19 -10   -5.40    5.97
  -4 -19  10   -1.80    2.22
   0   0 -11    0.31    0.50
   0   0  11   -1.19    1.01
   1   0 -11  392.15   86.32
   0   1 -11  408.60   95.06
   0   1  11  407.70  105.14
  -1   0  11  406.33   96.94
   1  -1 -11    0.37    0.46
   1  -1 -11    0.20    0.57
   1   1 -11    0.25    0.43
   1   1 -11    0.41    0.45
   1   1 -11    0.38    0.63
   1  -1 -11    0.22    0.35
  -1  -1  11   -0.36    0.36
  -1  -1  11   -0.22    0.88
  -1   1  11   -1.22    0.82
   2   1 -11   79.61   19.93
   2   1 -11   79.90   17.00
   2   1 -11   81.80   18.69
   1  -2 -11   89.46   15.89
  -2  -1  11   84.75   21.01
  -2  -1  11   82.81   16.97
  -2  -1  11   75.16   19.92
  -1   2  11   83.24   22.27
   0  -2 -11    0.45    0.54
   0  -2 -11   -0.24    0.76
   2   0 -11    0.12    0.48
   2   0 -11    0.17    0.41
   2   0 -11    0.12    0.40
   2   0 -11   -0.18    0.60
  -2   0  11    1.25    0.95
   0   2  11   -0.29    0.87
  -2   0  11    0.37    0.28
   2  -1 -11   72.27   15.83
   1   2 -11   82.22   17.75
   2  -1 -11   84.91   18.32
  -1  -2  11   77.13   18.08
  -2   1  11   87.49   21.07
   2  -2 -11    0.19    0.68
   2   2 -11    0.55    0.58
   2  -2 -11   -0.13    0.47
   2   2 -11   -0.65    0.49
   2   2 -11    0.31    0.55
  -2   2  11   -0.29    0.57
  -2  -2  11    0.98    0.88
  -2  -2  11   -0.22    0.41
  -2   2  11   -0.22    0.82
   2  -3 -11   14.70    2.96
   3   2 -11   13.71    3.43
   3   2 -11   15.70    3.28
   3   2 -11   13.31    3.28
   3   2 -11   17.64    3.39
   2  -3 -11   13.38    3.45
  -3  -2  11   11.78    3.27
  -2   3  11   10.29    4.29
  -3  -2  11   14.46    3.19
  -3  -2  11   14.33    3.34
  -2   3  11   15.52    3.37
   3   1 -11   -0.18    0.64
   1  -3 -11    0.25    0.49
   3   1 -11   -0.13    0.47
   3   1 -11    0.15    0.68
   3   1 -11    0.14    0.48
   1  -3 -11    0.42    0.76
  -3  -1  11    0.10    0.39
  -3  -1  11   -0.20    0.48
  -3  -1  11    1.23    0.62
  -1   3  11    0.50    0.96
   0  -3 -11   12.57    2.58
   3   0 -11   11.63    2.89
   0  -3 -11   14.79    3.00
   3   0 -11   12.85    2.76
   3   0 -11   10.76    2.30
   3   0 -11   11.89    2.83
   0   3 -11    8.24    2.87
  -3   0  11    8.91    2.89
  -3   0  11   14.54    2.60
   0   3  11   15.78    3.57
  -3   0  11   13.51    2.89
   3  -1 -11    0.07    0.32
   3  -1 -11    1.53    0.70
   3  -1 -11   -1.14    0.95
   3  -1 -11    0.13    0.47
  -3   1  11    0.09    0.38
  -3   1  11   -0.10    0.26
  -3   1  11   -0.15    0.58
   3  -2 -11   14.11    3.41
  -3   2  11   12.81    3.25
   3   3 -11   -0.40    0.53
   3   3 -11    0.20    0.93
   3  -3 -11    0.21    0.70
   3  -3 -11    0.14    0.48
  -3   3  11   -0.50    0.60
  -3  -3  11    0.12    0.45
   3  -4 -11    5.42    1.18
   4   3 -11    1.85    0.94
   3  -4 -11    3.72    0.87
   4   3 -11    2.96    1.10
   4   3 -11    3.96    1.73
   4   3 -11    3.03    1.33
  -4  -3  11    3.97    0.94
  -3   4  11    0.54    1.11
  -4  -3  11    4.37    1.11
   2  -4 -11  100.26   22.70
  -2   4  11  103.91   25.04
  -4  -2  11  109.03   23.43
  -2   4  11  112.02   31.05
   1  -4 -11    3.30    1.26
   4   1 -11    3.01    1.15
   4   1 -11    2.64    1.06
   4   1 -11    3.95    1.15
   4   1 -11    4.36    1.94
  -1   4 -11    5.08    1.21
   1  -4 -11    3.43    0.91
  -4  -1  11    2.62    1.08
  -1   4  11    3.60    1.50
  -4  -1  11    5.45    1.17
   0   4 -11   -0.52    0.72
   4   0 -11   -0.42    0.68
   0  -4 -11   -0.25    0.91
   4   0 -11    1.34    2.01
   0  -4 -11    0.15    0.58
   4   0 -11   -0.13    0.53
   4   0 -11   -0.16    0.53
   0   4 -11    0.17    0.66
   0   4 -11   -1.18    0.82
  -4   0  11   -0.35    0.60
   0  -4  11    0.57    0.58
   0   4  11   -0.31    1.16
  -4   0  11   -0.19    0.78
   1   4 -11    3.44    1.15
   1   4 -11    3.52    1.19
   4  -1 -11    4.26    1.08
   4  -1 -11    3.68    0.97
   1   4 -11    3.68    1.20
   4  -1 -11    4.14    1.17
  -4   1  11    6.01    1.30
  -1  -4  11    4.15    1.13
   4  -2 -11   97.33   22.89
   2   4 -11   95.01   24.24
   4  -2 -11  113.96   24.78
   4  -3 -11    4.23    1.00
   4  -3 -11    2.96    1.07
   3   4 -11    5.54    1.30
   3   4 -11    1.64    1.16
   3   4 -11    2.85    0.98
  -3  -4  11    3.41    0.87
  -4   3  11    1.88    1.19
  -3  -4  11    2.84    1.09
   5   4 -11    4.24    2.54
   5   4 -11    4.34    1.16
   5   4 -11    4.65    1.30
   4  -5 -11    4.16    1.07
   4  -5 -11    3.72    1.23
   5   4 -11    3.19    1.80
  -5  -4  11    0.68    1.26
  -5  -4  11    4.10    0.95
  -4   5  11    3.12    1.36
   5   3 -11  113.35   26.55
   5   3 -11  118.77   33.69
   5   3 -11  114.45   25.27
   3  -5 -11  109.33   21.46
  -5  -3  11   96.32   23.69
  -3   5  11  106.12   25.73
   2  -5 -11    7.80    1.61
   2  -5 -11    9.66    1.99
   5   2 -11   10.44    2.01
   5   2 -11    8.60    2.21
  -2   5  11    5.97    2.43
  -5  -2  11    4.10    2.07
  -2   5  11    6.91    2.01
   5   1 -11   34.50    8.50
   5   1 -11   32.53    8.05
  -1   5 -11   40.52    8.76
   5   1 -11   31.73    7.87
  -1   5 -11   36.66    9.52
  -1   5  11   29.93    8.80
  -1   5  11   36.20   10.13
  -5  -1  11   39.64    8.22
   5   0 -11    0.43    0.76
   0  -5 -11    1.00    0.97
   0   5 -11    1.33    0.80
   5   0 -11   -0.21    0.90
   0   5 -11    1.92    0.76
   0   5 -11    0.18    0.72
   0  -5 -11    1.42    0.57
   5   0 -11    0.21    0.82
   0  -5  11   -0.16    0.57
  -5   0  11    1.26    0.96
   0   5  11    0.98    1.17
   5  -1 -11   33.49    7.89
   1   5 -11   38.14    8.19
   5  -1 -11   40.85    7.99
   5  -1 -11   41.84    7.78
   1   5 -11   42.12    8.26
   1   5 -11   46.71    8.56
   1   5 -11   39.86    9.99
  -1  -5  11   35.70    8.70
  -1  -5  11   41.25   10.29
  -5   1  11   38.17    8.01
   2   5 -11   10.07    2.12
   5  -2 -11    6.43    1.94
   2   5 -11    6.91    2.08
   2   5 -11    7.59    2.04
  -5   2  11    7.83    1.95
  -2  -5  11    6.41    1.83
   3   5 -11  100.14   25.17
   5  -3 -11  101.19   22.13
  -3  -5  11  103.29   22.33
  -5   3  11  114.75   23.78
   5  -4 -11    0.82    1.06
   4   5 -11    2.83    1.43
   4   5 -11    3.34    1.59
   4   5 -11    4.52    1.25
   5  -4 -11    1.52    1.14
   4   5 -11    2.68    1.06
  -4  -5  11    1.37    1.07
  -4  -5  11    2.70    0.94
  -5   4  11    4.52    1.43
   5   5 -11    0.27    0.93
   5   5 -11    0.52    2.13
   5  -5 -11    0.26    0.88
   5  -5 -11   -0.59    0.71
   5   5 -11    1.27    1.64
   5   5 -11   -1.02    0.82
  -5  -5  11    0.69    1.09
  -5  -5  11   -0.21    0.75
  -5   5  11    0.56    1.20
   6   5 -11   48.36   12.46
   5  -6 -11   34.38    7.67
   6   5 -11   34.34    8.72
   6   5 -11   32.76   10.30
   5  -6 -11   38.69    6.34
  -5   6  11   31.79    8.27
   6   4 -11  226.16   73.37
   4  -6 -11  299.88   57.63
   6   4 -11  277.30   69.37
   6   4 -11  284.68   98.26
   6   4 -11  337.16   83.38
   4  -6 -11  280.91   53.49
  -6  -4  11  260.69   56.34
  -4   6  11  285.58   63.27
   3  -6 -11    1.52    0.68
   3  -6 -11    1.12    1.02
   6   3 -11    3.06    2.04
   6   3 -11    3.22    1.27
   6   3 -11    0.31    1.39
  -6  -3  11    1.93    1.21
  -3   6  11    1.06    1.28
  -3   6  11    1.85    1.09
   6   2 -11  535.82  109.53
   2  -6 -11  492.60   92.28
   6   2 -11  448.45  117.69
  -2   6  11  491.26  125.14
  -2   6  11  407.13  114.59
   6   1 -11   13.99    4.33
  -1   6 -11   13.72    4.76
   1  -6 -11   18.06    4.31
   6   1 -11   16.32    4.88
   1  -6 -11   18.30    3.62
  -1   6 -11   19.13    4.14
  -6  -1  11   24.08    4.15
  -1   6  11   20.96    4.09
   1  -6  11   19.12    4.18
  -1   6  11   14.94    5.22
   0  -6 -11   -0.66    0.70
   6   0 -11    0.60    1.25
   0   6 -11   -0.18    0.68
   0  -6 -11   -0.24    0.89
   6   0 -11    0.32    1.08
   0   6 -11    0.30    0.93
   0   6 -11   -0.59    0.85
   0  -6  11   -0.18    0.70
  -6   0  11   -0.83    1.13
   0   6  11   -1.44    1.53
   1   6 -11   19.05    3.98
   1   6 -11   19.17    4.18
   6  -1 -11   16.13    4.45
  -1  -6 -11   17.68    4.50
   1   6 -11   19.46    4.33
   6  -1 -11   17.69    4.52
  -1  -6  11   17.95    5.42
  -6   1  11   16.34    4.30
  -1  -6  11   15.92    4.13
   2   6 -11  517.17  110.13
   2   6 -11  481.58  104.98
   2   6 -11  429.29  112.65
  -2  -6  11  485.85  106.47
  -6   2  11  481.40  100.36
   6  -3 -11   -0.33    1.22
   3   6 -11    1.88    1.29
   3   6 -11    0.27    1.24
   6  -3 -11    0.27    1.19
   3   6 -11    2.31    0.70
  -3  -6  11    1.45    0.69
  -3  -6  11   -0.19    0.91
  -3  -6  11    0.72    0.81
  -6   3  11   -0.29    1.19
   6  -4 -11  255.75   59.09
   4   6 -11  274.43   69.45
   4   6 -11  291.98   65.98
  -4  -6  11  290.90   51.35
  -6   4  11  323.17   58.57
   6  -5 -11   37.48    7.73
   5   6 -11   37.56   11.09
   6  -5 -11   45.07    8.12
   5   6 -11   36.64    9.75
   5   6 -11   35.54    9.31
   5   6 -11   40.79    9.29
  -5  -6  11   42.79    9.37
  -6   5  11   37.52    8.31
   6  -6 -11   -0.73    1.22
   6  -6 -11    0.67    0.90
   6   6 -11    0.64    2.52
   6   6 -11   -1.65    1.46
   6   6 -11    0.79    3.44
  -6   6  11    1.91    1.82
  -6  -6  11    0.23    0.72
   7   6 -11   -0.87    3.10
   6  -7 -11   -0.38    1.45
   6  -7 -11    0.94    1.02
   7   6 -11   -1.63    1.87
  -6   7  11   -0.41    2.12
  -7  -6  11    0.28    0.89
   5  -7 -11    3.13    1.21
   7   5 -11   -1.66    3.05
   7   5 -11    0.41    1.79
   5  -7 -11    0.94    0.87
  -5   7  11    2.39    1.45
   7   4 -11   30.11    7.08
   7   4 -11   17.07    8.81
   4  -7 -11   26.22    5.36
   4  -7 -11   30.96    5.91
  -4   7  11   22.83    6.90
   3  -7 -11   80.30   16.27
   7   3 -11   94.48   20.31
   7   3 -11   52.67   26.53
  -3   7  11   82.39   22.29
   2  -7 -11   26.37    4.92
   7   2 -11   20.44    5.55
  -2   7 -11   28.27    5.59
   2  -7  11   25.17    5.07
  -2   7  11   21.20    6.06
  -2   7  11   27.42    6.28
  -1   7 -11   41.24    9.63
   1  -7 -11   47.37    8.31
   7   1 -11   47.23   10.14
  -1   7 -11   36.32    9.71
   1  -7  11   53.87    9.35
  -7  -1  11   36.73   10.63
  -1   7  11   42.20   12.74
   0   7 -11  137.57   26.58
   0  -7 -11  122.35   25.41
   0   7 -11  117.35   26.26
   0  -7 -11  115.71   23.94
   0   7  11   87.24   34.73
   0   7  11  132.39   35.16
   0  -7  11  126.87   26.93
  -7   0  11  134.83   25.92
   1   7 -11   32.04    9.85
   7  -1 -11   42.60   10.26
   7  -1 -11   33.20    9.93
   1   7 -11   38.36    9.73
   1   7 -11   41.39   10.10
  -1  -7  11   40.51    9.12
  -7   1  11   49.80    9.39
  -1  -7  11   40.64    9.06
   2   7 -11   22.90    5.30
   2   7 -11   24.14    5.26
   2   7 -11   20.08    6.70
   7  -2 -11   24.94    5.59
   2   7 -11   17.31    5.37
  -2  -7  11   26.86    5.45
  -2  -7  11   19.67    5.11
  -2  -7  11   24.68    4.49
  -7   2  11   24.06    5.08
   3   7 -11   77.82   19.31
   3   7 -11   83.98   20.47
  -3  -7  11   72.04   15.59
  -3  -7  11   86.27   18.77
   7  -4 -11   31.31    7.27
   7  -4 -11   24.88    6.84
   4   7 -11   27.54    7.21
   4   7 -11   12.82    8.35
  -4  -7  11   27.86    5.97
  -7   4  11   32.92    7.00
  -4  -7  11   31.46    5.42
   5   7 -11    4.78    2.58
   7  -5 -11    1.75    1.53
   7  -5 -11    0.30    1.32
   5   7 -11   -1.12    2.23
  -5  -7  11    1.34    0.93
  -7   5  11    2.08    1.85
   6   7 -11   -0.68    2.64
   6   7 -11    6.60    3.92
   7  -6 -11    0.45    1.52
   7  -6 -11    1.52    1.34
  -7   6  11   -0.43    1.88
  -6  -7  11    1.13    0.84
   7  -7 -11    0.84    1.22
   7   7 -11    0.92    3.63
   7   7 -11   -7.01    4.97
   7  -7 -11   -1.40    1.73
  -7  -7  11    0.27    0.97
  -7   7  11    1.95    2.09
   7  -8 -11   11.71    3.20
   8   7 -11    1.28    7.02
   7  -8 -11   11.78    3.45
  -7   8  11   20.17    4.50
   6  -8 -11   -0.42    1.62
   6  -8 -11   -0.88    1.06
  -6   8  11   -0.45    2.21
   5  -8 -11   85.60   20.26
   4  -8 -11    4.51    1.59
   4  -8 -11    6.25    1.40
  -4   8  11    5.56    2.29
   3  -8 -11  104.71   19.75
  -3   8  11   99.09   29.05
  -3   8  11  109.01   26.20
  -2   8 -11   66.97   14.57
   2  -8 -11   66.94   12.36
  -2   8 -11   66.34   13.91
  -2   8  11   57.23   15.80
  -2   8  11   69.22   15.79
  -1   8 -11   28.29    7.41
  -1   8 -11   29.87    7.85
   1  -8 -11   31.01    6.25
   1  -8 -11   36.15    6.56
  -1   8  11   34.31    8.73
  -1   8  11   36.63    8.72
   0  -8 -11   -0.24    0.93
   0   8 -11    0.33    1.12
   0  -8 -11   -0.19    0.70
   0   8 -11    0.53    1.20
   0  -8  11    1.49    1.02
   0   8  11    0.78    1.27
   1   8 -11   33.90    7.60
   1   8 -11   28.09    7.61
  -1  -8 -11   26.30    7.31
  -1  -8  11   29.43    6.88
   2   8 -11   55.60   14.27
   2   8 -11   46.70   15.09
  -2  -8  11   57.81   12.00
   3   8 -11  105.41   23.12
   3   8 -11  108.75   25.59
   4   8 -11    1.26    2.25
   4   8 -11    8.59    2.57
   8  -4 -11    9.07    2.25
  -4  -8  11    4.35    1.43
  -4  -8  11    5.17    1.67
   5   8 -11   94.65   23.60
   5   8 -11   81.79   27.52
  -5  -8  11   91.50   15.76
  -5  -8  11   91.33   18.19
   6   8 -11    7.18    3.37
   6   8 -11    6.12    3.01
   8  -6 -11   -0.70    1.61
   7   8 -11    4.92    7.40
   8  -7 -11   18.33    3.71
   7   8 -11    7.93    6.16
  -7  -8  11   17.57    2.85
   8   8 -11    3.89    4.83
   8  -8 -11    0.67    1.31
   8  -9 -11    6.09    1.95
   7  -9 -11   13.98    3.59
   7  -9 -11    8.52    3.36
  -7   9  11   16.58    4.64
   6  -9 -11    0.42    1.78
   6  -9 -11   -0.41    1.00
  -6   9  11    0.52    2.43
   5  -9 -11   31.05    8.11
  -5   9  11   38.92   10.89
   4  -9 -11   78.63   16.66
   4  -9 -11   85.45   17.74
  -4   9  11   84.54   22.27
   3  -9 -11    0.32    0.62
   3  -9 -11    2.16    1.03
  -3   9  11    0.33    1.63
  -3   9  11   -1.17    1.40
   2  -9 -11   48.15    8.28
  -2   9 -11   33.31   10.01
  -2   9  11   40.83   11.63
  -2   9  11   38.65   12.63
  -1   9 -11    8.83    2.13
   1  -9 -11    4.94    1.66
  -1   9 -11    5.87    1.93
   1  -9 -11    7.67    1.66
  -1   9  11    6.26    2.15
   1  -9  11    4.41    1.76
  -1   9  11    4.09    2.23
   0   9 -11    3.10    1.45
   0  -9 -11    4.91    1.24
   0   9 -11    4.68    1.58
   0  -9  11    3.21    1.16
   0   9  11    0.90    2.07
   1   9 -11   10.68    2.12
  -1  -9 -11    5.35    1.75
   1   9 -11    4.62    2.08
  -1  -9  11    7.49    1.76
   2   9 -11   47.49    9.80
   2   9 -11   55.16    9.95
   3   9 -11   -0.44    1.72
   3   9 -11   -0.40    1.98
  -3  -9  11   -0.24    1.16
  -3  -9  11   -0.21    0.60
   4   9 -11   68.77   22.31
   4   9 -11   79.74   21.44
  -4  -9  11   81.95   15.34
  -4  -9  11   72.16   15.30
   5   9 -11   17.33   11.72
   5   9 -11   48.84   10.98
  -5  -9  11   40.75    7.71
  -5  -9  11   40.67    6.64
   6   9 -11    4.16    3.44
   6   9 -11    0.84    3.83
  -6  -9  11    0.24    0.89
   7   9 -11   19.70    7.52
   7   9 -11   15.12    6.08
  -7  -9  11   15.34    2.33
   8   9 -11    6.88    6.47
   8 -10 -11    2.13    1.47
   7 -10 -11   10.26    2.46
  -7  10  11    5.18    4.01
   6 -10 -11    0.64    0.92
   6 -10 -11    1.89    1.72
  -6  10  11   -3.01    2.88
   5 -10 -11   15.16    3.71
   5 -10 -11   15.49    3.88
  -5  10  11   16.45    5.19
   4 -10 -11    9.42    2.10
   4 -10 -11    9.94    2.21
  -4  10  11    6.81    3.31
  -4  10  11    6.69    2.74
   3 -10 -11   19.88    4.54
   3 -10 -11   27.09    4.33
  -3  10  11   19.61    5.97
  -3  10  11   31.26    6.22
   1 -10 -11    1.81    1.11
  -1  10 -11    2.54    1.42
   1 -10 -11    1.55    0.75
  -1  10  11   -0.56    1.35
   1 -10  11    0.25    1.06
  -1  10  11    2.60    1.49
   0 -10 -11    1.35    1.12
   0  10 -11    0.60    1.29
   0  10 -11   -0.40    1.41
   0 -10  11   -1.09    1.10
   0  10  11   -1.90    1.93
   1  10 -11   -2.56    1.82
  -1 -10 -11    0.26    1.20
   1  10 -11    2.15    1.77
  -1 -10  11    1.99    1.29
   3  10 -11   16.97    5.50
   3  10 -11   20.18    5.61
  -3 -10  11   17.00    3.95
  -3 -10  11   13.01    3.75
   4  10 -11   11.07    3.25
   4  10 -11    6.64    3.56
  -4 -10  11   10.49    2.02
  -4 -10  11    5.00    2.22
   5  10 -11   19.64    5.71
   5  10 -11    6.33    6.38
  -5 -10  11   18.48    3.08
  -5 -10  11   17.10    3.75
   6  10 -11   -5.75    4.27
   8  10 -11    8.98    6.20
  -8 -10  11    3.19    1.23
   3 -11  11    8.09    1.97
  -2  11 -11    5.27    1.69
  -2  11 -11    1.05    1.79
   2 -11  11    5.76    1.33
  -1  11 -11    2.76    1.53
  -1  11 -11    0.45    1.57
   1 -11  11   -0.52    1.15
   0  11 -11   53.23   12.67
   1  11 -11   -0.46    1.87
  -1 -11  11    1.85    1.06
   2  11 -11    1.21    2.12
   2  11 -11    2.81    2.07
  -2 -11  11    3.36    1.37
  -2 -11  11    0.78    1.12
   3  11 -11    4.51    3.02
  -3 -11  11    5.65    1.90
   4  11 -11   22.15    8.17
  -4 -11  11   26.49    5.21
   6  11 -11    6.61    4.37
  -6 -11  11    3.64    1.23
   7  11 -11   -8.64    5.65
   7  11 -11  -13.55    6.61
  -7 -11  11    0.27    1.15
   8  11 -11   -1.45    6.18
  -8 -11  11    0.30    1.07
  -3  12 -11    2.58    1.63
  -2  12 -11   -0.34    1.54
   3  12 -11    0.91    2.41
  -3 -12  11    0.51    0.99
   4  12 -11    2.29    3.10
   4  12 -11    1.21    2.76
  -4 -12  11    0.32    1.49
  -4 -12  11   -0.25    0.92
   5  12 -11   -0.74    3.79
   5  12 -11   -0.87    3.29
  -5 -12  11   -1.32    1.65
  -5 -12  11    0.81    1.08
   6  12 -11    0.99    4.93
   6  12 -11    2.31    4.63
  -6 -12  11   -0.25    0.77
  -6 -12  11    1.24    1.95
   7  12 -11  -12.47    5.57
   7  12 -11   -2.59    5.36
  -7 -12  11   -5.94    2.09
  -7 -12  11    0.57    1.15
   8  12 -11   -9.17    6.25
  -8 -12  11    2.14    1.07
  -3  13 -11    3.15    1.94
   3 -13  11    3.34    1.61
  -1  13 -11    3.20    2.09
  -1  13 -11   -0.37    1.54
   1 -13  11    1.15    1.42
   0  13 -11   -0.52    2.05
   0  13 -11    2.99    1.80
   0 -13  11   -0.58    1.30
   1  13 -11    2.87    1.87
   1  13 -11    4.97    2.28
  -1 -13  11    4.18    1.58
  -1 -13  11    2.66    1.32
   3  13 -11   -1.44    3.27
  -3 -13  11    5.76    1.67
   4  13 -11    5.39    3.66
   4  13 -11    3.90    3.47
  -4 -13  11    4.71    1.79
  -4 -13  11    3.87    1.45
   5  13 -11    1.92    4.38
   5  13 -11    4.04    3.88
  -5 -13  11    2.15    1.27
  -5 -13  11    2.63    1.80
   6  13 -11   -1.04    5.00
   6  13 -11   -1.19    5.28
  -6 -13  11    0.26    0.95
  -6 -13  11   -1.29    1.87
   7  13 -11    1.37    6.60
   7  13 -11   -2.71    6.52
  -7 -13  11    1.40    2.23
  -7 -13  11    5.27    1.35
   8  13 -11   -4.87    8.83
   8  13 -11  -11.70    7.67
  -8 -13  11   -2.14    1.17
  -3  14 -11    1.46    1.91
   3 -14  11   -0.32    1.29
  -2  14 -11    1.29    2.16
  -2  14 -11    2.98    1.89
   2 -14  11    4.31    1.46
  -1  14 -11   -1.76    2.19
  -1  14 -11   -0.42    1.89
   1 -14  11    1.25    1.26
   0  14 -11    1.78    2.23
   0  14 -11   -0.60    2.28
   0 -14  11   -6.33    1.66
   1  14 -11   -1.83    2.41
   1  14 -11    0.46    2.32
  -1 -14  11    0.33    1.57
  -1 -14  11    1.90    1.33
   2  14 -11    0.51    2.64
   2  14 -11    0.66    2.54
  -2 -14  11    1.58    1.19
  -2 -14  11    1.25    1.49
   3  14 -11    2.91    3.18
  -3 -14  11    3.55    1.34
  -3 -14  11    2.66    1.58
   4  14 -11   -1.81    3.92
  -4 -14  11    2.14    1.64
   5  14 -11    2.56    4.36
   5  14 -11    2.23    4.55
  -5 -14  11    1.93    2.00
   6  14 -11    7.51    7.20
   6  14 -11   13.00    5.93
  -6 -14  11   12.42    2.96
  -6 -14  11    8.31    2.15
   8  14 -11    1.69    7.64
   8  14 -11   12.22    7.95
  -8 -14  11    0.31    1.06
  -8 -14  11   -1.67    2.57
  -3  15 -11   -0.38    1.86
   3 -15  11    1.00    1.35
  -2  15 -11    4.40    2.40
  -2  15 -11    1.41    2.29
   2 -15  11    1.73    1.54
  -1  15 -11    0.65    2.37
  -1  15 -11    0.41    1.79
   1 -15  11    5.36    1.70
   0  15 -11    0.43    2.10
   0  15 -11   -0.67    2.30
   0 -15  11   -0.35    1.48
   1  15 -11   -1.35    2.37
   1  15 -11    0.48    2.53
  -1 -15  11   -0.30    1.27
  -1 -15  11    2.35    1.52
   2  15 -11    3.13    2.50
   2  15 -11   -2.21    2.72
  -2 -15  11    3.15    1.75
  -2 -15  11    3.60    1.39
   3  15 -11    2.53    3.14
   3  15 -11   -6.34    3.41
  -3 -15  11    0.31    1.29
  -3 -15  11   -0.34    1.30
   4  15 -11    9.75    4.37
   4  15 -11    6.20    4.72
  -4 -15  11   -1.48    1.89
  -4 -15  11    7.42    1.52
   6  15 -11  -12.26    5.90
  -6 -15  11   -2.71    2.47
   7  15 -11    6.36    8.17
   7  15 -11    1.55    8.18
  -7 -15  11    5.80    3.31
  -7 -15  11   12.80    2.04
   8  15 -11   -3.52    7.37
   8  15 -11  -12.93    7.70
  -8 -15  11    2.28    2.75
  -8 -15  11    1.26    1.20
  -3  16 -11    2.08    2.26
   3 -16  11    1.05    1.37
  -2  16 -11    3.78    2.18
  -2  16 -11   -0.77    2.48
   2 -16  11    1.05    1.42
  -1  16 -11    2.41    2.84
  -1  16 -11    2.17    3.01
   1 -16  11    5.60    1.92
   0  16 -11   -1.45    2.93
   0  16 -11   -1.39    2.16
   0 -16  11    0.36    1.35
   0 -16  11   -0.35    1.53
   1  16 -11   12.06    3.53
   1  16 -11    5.44    3.34
  -1 -16  11    5.27    1.89
  -1 -16  11    6.96    2.04
   2  16 -11    0.60    2.76
   2  16 -11    0.82    3.44
  -2 -16  11   -0.36    1.63
  -2 -16  11    3.54    1.52
   3  16 -11    4.08    3.55
   3  16 -11   -4.45    3.53
  -3 -16  11    3.62    1.33
  -3 -16  11    4.78    1.77
   4  16 -11    7.47    4.32
   4  16 -11   -1.66    4.00
  -4 -16  11   -1.51    1.85
  -4 -16  11    2.05    1.17
   5  16 -11    8.70    5.06
   5  16 -11    1.28    5.17
  -5 -16  11    2.07    2.14
  -5 -16  11    0.30    1.14
   6  16 -11   -1.56    6.28
  -6 -16  11    4.10    2.25
   7  16 -11    3.45    6.81
  -7 -16  11    1.01    2.48
  -3  17 -11   -0.45    2.18
   3 -17  11    2.89    1.57
  -2  17 -11    4.18    2.62
  -2  17 -11    1.38    2.52
   2 -17  11    4.83    1.76
  -1  17 -11    0.80    2.87
  -1  17 -11    0.47    2.43
   1 -17  11    4.21    1.75
   1 -17  11    0.69    1.50
   0  17 -11    6.43    3.99
   0  17 -11    6.43    3.45
   0 -17  11    4.57    2.31
   0 -17  11   11.76    2.49
   1  17 -11   -1.68    2.77
   1  17 -11   -0.80    3.00
  -1 -17  11    1.91    1.50
  -1 -17  11    4.23    1.54
   2  17 -11    0.89    3.63
   2  17 -11   -2.52    2.95
  -2 -17  11    4.90    2.00
  -2 -17  11    4.52    1.68
   3  17 -11    1.99    4.22
   3  17 -11   -1.45    3.41
  -3 -17  11    3.09    1.99
  -3 -17  11    5.68    1.55
   4  17 -11    4.41    4.28
   4  17 -11    3.36    4.34
  -4 -17  11    0.33    1.35
  -4 -17  11    0.41    1.84
   5  17 -11   -2.82    6.33
   5  17 -11   -1.18    6.22
  -5 -17  11    1.31    2.10
  -5 -17  11   -0.30    1.09
   6  17 -11   -2.79    7.40
   6  17 -11   -1.54    6.61
  -6 -17  11   -0.88    1.08
  -6 -17  11    1.36    2.03
   7  17 -11    1.82    7.64
  -7 -17  11   -0.52    2.70
   8  17 -11    3.99    8.90
  -8 -17  11   -6.38    2.59
  -3  18 -11    0.46    2.09
   3 -18  11   -1.88    1.57
  -2  18 -11   -0.89    2.93
  -2  18 -11    0.50    2.48
   2 -18  11    2.41    1.70
  -1  18 -11    5.14    3.09
  -1  18 -11    1.05    2.68
   1 -18  11   -0.41    1.86
   1 -18  11   -1.47    1.68
   0  18 -11    2.87    3.11
   0  18 -11   -2.65    3.25
   0 -18  11   -1.11    1.93
   0 -18  11   -0.36    1.77
   1  18 -11    0.91    3.21
   1  18 -11   -1.81    2.95
  -1 -18  11    1.08    1.83
  -1 -18  11   -0.74    1.71
   2  18 -11    6.81    3.41
   2  18 -11   -6.07    3.81
  -2 -18  11    2.84    1.47
  -2 -18  11   -2.46    1.97
   3  18 -11    0.81    3.98
   3  18 -11    1.12    4.58
  -3 -18  11    5.14    1.39
  -3 -18  11   -0.83    1.93
   4  18 -11   11.33    5.76
   4  18 -11   -0.96    5.33
  -4 -18  11    0.33    1.22
  -4 -18  11   -2.60    1.97
   5  18 -11    1.23    5.61
   5  18 -11   -1.48    6.26
  -5 -18  11    0.61    1.15
  -5 -18  11   -0.44    2.06
   6  18 -11   10.47    6.81
   6  18 -11   -1.44    5.38
  -6 -18  11    1.25    1.11
  -6 -18  11    2.00    2.31
  -3  19 -11    0.53    2.44
   3 -19  11   -0.80    1.71
  -2  19 -11    3.02    2.26
  -2  19 -11   -0.96    2.72
   2 -19  11   -0.84    1.64
   2 -19  11   -1.71    1.73
  -1  19 -11    3.31    2.74
  -1  19 -11   -1.92    3.31
   1 -19  11    1.15    1.69
   1 -19  11   -0.79    1.69
   0  19 -11   -3.82    3.66
   0  19 -11   -0.59    2.82
   0 -19  11    0.36    1.37
   0 -19  11    4.55    1.92
   1  19 -11   -2.09    3.43
   1  19 -11    4.48    3.18
  -1 -19  11    1.17    1.76
  -1 -19  11    0.42    1.81
   2  19 -11    0.78    3.10
   2  19 -11    2.21    4.15
  -2 -19  11    0.35    1.46
  -2 -19  11   -2.91    1.90
   3  19 -11   -4.78    5.22
  -3 -19  11   -0.85    1.85
   0   0 -12  879.07  192.18
   1   0 -12   -0.28    0.43
   0   1 -12    0.25    0.75
   0   1 -12    0.13    0.50
   0  -1 -12    0.66    0.50
   1   0 -12   -0.57    0.54
   0  -1 -12   -0.25    0.82
   1   0 -12   -0.21    0.70
   0   1 -12   -0.18    0.61
   0  -1  12   -0.31    1.07
   0   1  12   -0.66    1.18
  -1   0  12   -0.25    0.89
   1   1 -12  158.87   32.72
   1   1 -12  158.75   34.63
  -1   1  12  152.25   40.23
  -1  -1  12  150.82   42.72
   2   1 -12    3.03    0.93
   2   1 -12    2.85    0.84
   2   1 -12    3.15    0.94
   2   1 -12    2.96    0.80
   1  -2 -12    1.35    1.00
  -2  -1  12    2.56    1.14
  -1   2  12    0.53    1.16
  -2  -1  12    1.96    0.79
   0   2 -12   27.47    8.50
   0  -2 -12   34.39    7.98
   0  -2 -12   37.70    6.98
   2   0 -12   32.54    6.62
   2   0 -12   37.32    7.79
   2   0 -12   33.10    7.08
   2   0 -12   33.29    9.76
   0  -2  12   31.92   10.16
  -2   0  12   32.97    8.36
   0   2  12   34.87    9.51
  -2   0  12   38.04    7.91
   2  -1 -12    2.67    0.79
   2  -1 -12    2.91    1.01
   1   2 -12    2.35    0.82
   2  -1 -12    5.22    0.70
   1   2 -12    0.99    0.96
   1   2 -12    3.46    1.02
  -1  -2  12    3.03    1.24
  -2   1  12    3.45    1.26
  -1  -2  12    1.44    0.75
   2  -2 -12   41.29    8.79
   2  -2 -12   43.45    9.67
   2   2 -12   40.79    9.38
  -2  -2  12   41.79   10.51
   3   2 -12    1.35    0.76
   2  -3 -12    0.63    0.79
   3   2 -12    0.15    0.66
   3   2 -12    2.45    0.80
   2  -3 -12    1.74    0.66
  -3  -2  12    1.52    0.91
  -3  -2  12    1.95    0.71
  -2   3  12    1.48    1.15
  -3  -2  12    2.63    0.76
   3   1 -12   10.16    2.96
   3   1 -12   15.28    3.17
   1  -3 -12   14.39    2.55
   3   1 -12   13.66    2.87
   1  -3 -12   10.34    3.04
   3   1 -12   13.11    2.51
  -3  -1  12   11.63    2.82
  -1   3  12   12.89    3.72
  -3  -1  12   13.92    2.78
  -3  -1  12   11.87    2.94
   3   0 -12   -0.12    0.63
   0   3 -12   -0.26    0.63
   3   0 -12    0.22    0.42
   0  -3 -12   -0.26    0.79
   3   0 -12    0.78    0.68
   0  -3 -12    0.49    0.55
   3   0 -12    0.27    0.50
   0   3 -12    0.16    0.58
   0   3  12   -0.32    1.10
  -3   0  12    0.31    0.39
  -3   0  12    0.61    0.65
   0  -3  12   -0.37    0.43
  -3   0  12   -0.18    0.41
   0  -3  12   -0.67    1.08
   3  -1 -12   13.06    3.44
   3  -1 -12   16.42    3.02
   1   3 -12   14.56    2.91
   3  -1 -12   10.12    2.39
   1   3 -12    9.78    2.89
   3  -1 -12   10.35    3.09
  -3   1  12   12.94    2.79
  -1  -3  12   12.80    3.36
  -3   1  12   13.23    3.08
  -3   1  12   13.09    3.20
   2   3 -12    0.55    0.78
   3  -2 -12    1.44    0.84
   2   3 -12    2.05    0.89
   2   3 -12    2.65    0.71
  -3   2  12    0.98    0.81
  -2  -3  12    0.60    0.65
  -2  -3  12    2.18    1.11
   3   3 -12   47.03   10.63
   3  -3 -12   45.35    9.43
   3   3 -12   43.14   10.35
  -3  -3  12   43.07   11.46
  -3  -3  12   46.63   10.50
  -3   3  12   44.21   10.65
   3  -4 -12   49.31   14.57
   3  -4 -12   57.63   13.57
   2  -4 -12   -0.22    0.86
   4   2 -12   -0.33    0.72
   2  -4 -12   -0.14    0.53
   4   2 -12   -0.22    0.91
  -4  -2  12   -0.91    0.87
  -2   4  12   -0.25    1.19
  -2   4  12    0.17    0.76
  -1   4 -12   -0.38    0.66
   4   1 -12    0.29    1.41
   1  -4 -12   -0.24    0.91
   1  -4 -12   -0.44    0.56
   4   1 -12    0.16    0.64
   4   1 -12   -0.52    0.72
   4   1 -12    0.99    0.76
  -4  -1  12    0.12    0.60
  -1   4  12    0.29    1.25
  -4  -1  12    0.30    0.58
  -4  -1  12    0.18    0.85
   0  -4 -12    5.70    1.15
   4   0 -12    3.70    2.00
   0  -4 -12    2.91    1.49
   0   4 -12    3.98    1.36
   4   0 -12    5.39    1.11
   4   0 -12    3.90    1.29
   4   0 -12    2.09    1.21
   0   4 -12    3.02    1.52
  -4   0  12    4.02    1.38
  -4   0  12    5.50    1.18
  -4   0  12    5.71    1.30
   0  -4  12    4.71    1.28
   0   4  12    7.47    1.95
   1   4 -12    2.47    0.84
   1   4 -12    0.69    0.68
   4  -1 -12   -0.55    0.44
   4  -1 -12    0.49    0.60
   1   4 -12    0.49    0.77
   4  -1 -12    0.22    0.70
  -4   1  12    0.34    0.42
  -4   1  12    0.87    0.82
  -1  -4  12    1.78    1.10
  -1  -4  12    0.92    0.64
   2   4 -12   -1.02    0.67
   4  -2 -12    0.06    0.30
   2   4 -12   -0.38    0.82
   2   4 -12   -0.64    0.83
   4  -2 -12    0.22    0.80
  -2  -4  12   -0.46    1.28
  -4   2  12    0.12    0.24
  -2  -4  12    0.31    0.71
  -4   2  12    0.55    0.88
  -3  -4  12   88.33   15.81
   4  -4 -12   68.48   14.51
   4   4 -12   68.49   16.13
   4   4 -12   68.19   16.18
   4   4 -12   71.30   17.07
   4   4 -12   79.22   15.68
  -4  -4  12   67.16   15.20
  -4   4  12   46.47   14.69
  -4  -4  12   70.29   13.48
   4  -5 -12   57.11    9.88
   5   4 -12   52.26   11.98
   5   4 -12   34.35   13.73
   5   4 -12   48.57   12.25
   5   4 -12   43.05   13.96
  -5  -4  12   49.88   12.29
  -4   5  12   55.76   11.87
  -5  -4  12   48.26   10.24
   5   3 -12    7.37    2.23
   5   3 -12    4.54    2.15
   3  -5 -12    7.57    1.65
   5   3 -12    6.86    2.06
   3  -5 -12    5.23    1.83
   5   3 -12   14.38    3.25
  -5  -3  12    8.87    2.15
  -5  -3  12    8.27    1.84
  -3   5  12    9.88    2.27
  -3   5  12    8.46    2.02
   2  -5 -12  221.65   46.75
   5   2 -12  237.67   54.11
   5   2 -12  255.94   70.23
   2  -5 -12  250.80   52.64
  -2   5  12  267.82   64.48
  -5  -2  12  220.88   50.42
  -5  -2  12  242.34   59.43
  -1   5 -12    2.94    0.92
   5   1 -12   -0.49    1.14
   5   1 -12    0.21    1.00
   5   1 -12    0.23    1.26
   1  -5 -12    0.88    0.66
   1  -5 -12    2.01    0.93
  -1   5  12    1.92    1.45
  -5  -1  12   -0.20    1.07
   1  -5  12    1.50    0.73
  -5  -1  12   -1.53    1.22
   5  -1 -12    1.69    0.79
   5  -1 -12    1.53    1.10
   1   5 -12    2.63    1.02
  -1  -5 -12    0.29    0.97
   5  -1 -12    3.00    0.96
   1   5 -12    2.62    1.10
  -1  -5  12    0.17    0.92
  -5   1  12    2.13    1.11
   2   5 -12  229.40   53.52
  -2  -5  12  255.07   52.22
   3   5 -12    8.23    1.99
   3   5 -12    7.27    2.06
   3   5 -12    6.61    1.97
   5  -3 -12    6.75    1.96
   5  -3 -12    9.19    1.92
   3   5 -12    8.91    2.13
  -5   3  12    5.88    2.03
  -3  -5  12    8.52    1.80
  -3  -5  12    5.74    2.10
  -3  -5  12    6.17    1.79
   4   5 -12   52.79   10.70
   4   5 -12   54.05   11.76
   5  -4 -12   40.48   10.52
   4   5 -12   58.31   12.07
  -5   4  12   48.60   10.96
  -4  -5  12   59.46   11.38
   5  -5 -12   65.74   11.88
   5   5 -12   55.88   15.44
   5   5 -12   56.03   15.05
   5   5 -12   66.89   14.12
   5   5 -12   59.70   14.57
  -5   5  12   60.62   12.86
   6   5 -12   14.38    3.69
   5  -6 -12   14.54    3.30
   5  -6 -12   17.39    2.98
   6   5 -12   11.50    4.66
   6   5 -12   15.72    4.42
   6   5 -12   16.26    5.40
  -5   6  12    7.85    3.50
  -6  -5  12   13.45    3.93
  -6  -5  12   14.88    2.83
   4  -6 -12   88.32   16.40
   6   4 -12   68.90   21.50
   6   4 -12   81.21   20.83
   6   4 -12   76.10   26.97
   6   4 -12   82.18   18.13
   4  -6 -12   74.18   15.24
  -6  -4  12   74.49   18.06
  -6  -4  12   73.69   16.12
   3  -6 -12  226.39   44.98
   6   3 -12  231.82   57.58
   6   3 -12  212.59   50.51
   6   3 -12  202.01   55.88
  -6  -3  12  213.97   51.05
  -3   6  12  216.73   51.62
   2  -6 -12   43.13    8.43
   2  -6 -12   39.47    7.49
   6   2 -12   34.42    8.82
   6   2 -12   37.94   10.16
   6   2 -12   33.15    9.79
  -2   6  12   41.75    9.21
  -6  -2  12   35.34    8.68
  -1   6 -12   53.67   11.01
   1  -6 -12   39.06    8.85
   6   1 -12   52.68   10.78
   6   1 -12   37.69    9.92
  -1   6 -12   47.30    9.58
   1  -6 -12   46.56    9.52
  -6  -1  12   44.39    9.63
  -1   6  12   40.98   13.17
   0  -6 -12  298.90   60.38
   6   0 -12  329.05   65.04
   0   6 -12  292.60   70.72
   0  -6 -12  326.50   67.99
   6   0 -12  341.63   70.15
   0   6  12  254.34   90.23
   6  -1 -12   44.23    9.94
   1   6 -12   42.94    9.94
   1   6 -12   45.52   10.80
   6  -1 -12   38.67    9.64
   6  -1 -12   46.34   10.68
   1   6 -12   44.36    9.63
  -1  -6 -12   42.18   10.45
   2   6 -12   36.77    8.53
   6  -2 -12   36.31    8.70
   2   6 -12   36.48    8.28
  -6   2  12   31.83    8.59
   6  -3 -12  216.80   49.43
   3   6 -12  242.74   51.82
   6  -3 -12  231.94   48.73
   3   6 -12  211.18   49.19
  -3  -6  12  212.12   46.59
  -6   3  12  217.73   50.89
  -3  -6  12  214.74   42.57
   6  -4 -12   58.21   16.43
   4   6 -12   68.99   18.03
   4   6 -12   90.84   17.72
   6  -4 -12   73.38   15.74
  -4  -6  12   68.80   14.63
  -4  -6  12   78.34   19.20
  -4  -6  12   82.06   15.14
   6  -5 -12   16.62    3.28
   5   6 -12    8.68    4.25
   5   6 -12   14.49    3.53
   6  -5 -12   12.87    3.14
   5   6 -12    8.76    4.32
   5   6 -12   17.38    3.85
  -6   5  12   11.57    3.60
  -5  -6  12   11.00    2.78
  -5  -6  12   16.28    3.61
   6  -6 -12   17.39    4.52
   6   6 -12   23.05    5.80
   6  -6 -12   20.44    4.47
   6   6 -12   19.74    4.76
   6   6 -12   12.50    6.67
  -6   6  12   14.96    5.01
  -6  -6  12   18.15    3.44
   6  -7 -12    7.73    1.91
   7   6 -12    7.50    4.14
   7   6 -12   11.08    5.58
   7   6 -12    3.18    2.41
   6  -7 -12    8.11    1.95
  -6   7  12   10.47    2.78
  -7  -6  12    7.16    1.63
   7   5 -12   40.85   12.51
   5  -7 -12   52.28   10.55
   7   5 -12   40.91   14.29
  -5   7  12   44.58   10.81
   4  -7 -12   10.58    2.50
   7   4 -12   11.23    4.66
   7   4 -12   12.58    3.51
   4  -7 -12   12.57    2.82
  -4   7  12   12.10    3.29
   3  -7 -12   71.87   13.26
   3  -7 -12   63.59   13.10
   7   3 -12   68.44   18.20
   7   3 -12   64.50   16.19
  -3   7  12   73.88   17.28
  -7  -3  12   59.81   16.13
   7   2 -12   69.71   15.82
   2  -7 -12   62.74   11.96
   7   2 -12   66.78   14.19
   2  -7 -12   67.34   13.05
   7   2 -12   64.29   17.56
  -2   7  12   50.24   14.43
  -2   7  12   49.77   14.90
  -7  -2  12   55.64   13.24
   7   1 -12   52.51   13.41
   1  -7 -12   52.30    9.71
   7   1 -12   55.17   14.38
  -1   7 -12   56.52   11.78
  -1   7 -12   38.54   12.76
   7   1 -12   34.67   12.32
  -7  -1  12   47.14   11.15
  -1   7  12   58.87   14.23
   0  -7 -12   -0.76    0.71
   0  -7 -12    1.28    0.93
   0   7 -12    0.24    1.02
   0   7 -12    0.17    0.72
   0   7 -12    0.34    1.05
   7   0 -12   -0.35    1.36
   7   0 -12   -0.41    1.26
  -7   0  12   -0.34    1.41
   0   7  12    0.42    1.59
   0  -7  12    0.60    0.77
  -1  -7 -12   46.98   11.41
   1   7 -12   53.54   11.33
   1   7 -12   51.07   11.54
   7  -1 -12   58.31   12.12
  -7   1  12   52.86   11.03
   7  -2 -12   62.71   12.96
   2   7 -12   53.17   12.69
   2   7 -12   58.75   12.98
  -2  -7  12   58.85   14.10
   3   7 -12   62.76   14.94
   3   7 -12   38.14   14.49
   7  -3 -12   71.11   14.58
   7  -3 -12   62.07   14.41
  -3  -7  12   65.55   13.16
  -3  -7  12   50.93   12.03
  -7   3  12   75.26   14.45
   7  -4 -12   14.19    3.31
   4   7 -12   14.75    3.43
   7  -4 -12   16.14    3.18
   4   7 -12   13.81    3.50
  -4  -7  12   10.57    2.56
  -7   4  12   14.59    3.35
  -4  -7  12    5.73    2.38
  -4  -7  12   10.25    3.08
   7  -5 -12   51.48   10.75
   5   7 -12   44.92   11.68
   7  -5 -12   48.87    9.75
   5   7 -12   59.97   12.20
  -7   5  12   42.61   10.51
   6   7 -12    9.61    4.02
   7  -6 -12    5.18    1.99
   6   7 -12    1.91    3.20
   7  -6 -12    4.43    1.99
  -6  -7  12    8.38    1.54
  -7   6  12    3.56    2.43
   7   7 -12    9.42    5.30
   7  -7 -12    6.43    1.97
   7  -7 -12    2.48    1.32
   7   7 -12    0.88    3.57
  -7  -7  12    2.35    1.13
  -7   7  12    3.22    2.19
   8   7 -12   -4.48    4.73
   7  -8 -12    2.95    1.84
   7  -8 -12    1.35    1.23
  -7   8  12    1.65    2.23
   8   6 -12    1.00    2.42
   6  -8 -12    4.37    1.25
   8   6 -12   -2.28    4.38
   6  -8 -12    1.19    1.70
  -6   8  12    4.82    2.40
   8   5 -12    1.97    2.26
   8   5 -12   -2.06    4.03
   5  -8 -12    4.51    1.36
   5  -8 -12    0.91    0.94
  -5   8  12    1.46    1.68
   8   4 -12  123.00   33.93
   4  -8 -12  132.10   25.40
   4  -8 -12  134.76   28.91
  -4   8  12  123.49   34.59
   3  -8 -12   10.88    2.26
   8   3 -12   10.95    3.16
   3  -8 -12    9.59    2.26
  -3   8  12   10.78    3.02
  -3   8  12   10.54    3.30
   2  -8 -12   75.04   14.57
  -2   8 -12   68.71   16.73
   8   2 -12   70.60   17.28
   2  -8 -12   75.30   14.34
  -2   8  12   70.90   19.80
   2  -8  12   73.23   15.29
  -2   8  12   72.79   18.47
  -1   8 -12   33.24    7.88
   1  -8 -12   31.40    6.35
  -1   8 -12   35.98    7.80
   8   1 -12   23.14    8.44
   1  -8 -12   38.23    7.26
   1  -8  12   33.68    7.46
  -1   8  12   30.96    9.27
   0  -8 -12   50.17   10.37
   0  -8 -12   39.82   10.59
   8   0 -12   40.83   11.28
   0   8 -12   50.71   11.17
   0   8 -12   54.23   10.86
   0  -8  12   53.74   10.57
   0   8  12   52.31   14.01
   1   8 -12   35.01    7.98
  -1  -8 -12   33.96    7.70
   1   8 -12   29.61    7.66
   8  -1 -12   32.26    8.30
  -8   1  12   41.82    8.11
  -1  -8  12   28.76    7.28
   2   8 -12   57.39   15.06
   2   8 -12   63.95   15.59
  -2  -8  12   61.92   13.35
  -8   2  12   62.26   16.40
   3   8 -12    6.27    2.75
   8  -3 -12    9.84    2.93
   8  -3 -12    7.19    3.09
   3   8 -12   12.09    2.92
  -8   3  12    8.58    2.96
  -3  -8  12    7.49    2.00
  -3  -8  12    9.75    2.16
   8  -4 -12  120.38   33.53
   4   8 -12  138.92   34.88
   4   8 -12  127.44   32.34
  -4  -8  12  148.61   26.43
  -4  -8  12  136.57   26.67
   8  -5 -12    0.38    1.72
   5   8 -12   -0.57    2.29
   5   8 -12    2.74    2.55
   8  -5 -12    5.32    2.00
  -8   5  12    6.54    2.17
  -5  -8  12    4.72    1.03
  -5  -8  12    2.27    1.43
   6   8 -12    5.59    4.01
   6   8 -12    4.37    3.15
   8  -6 -12    2.14    1.81
  -8   6  12    4.43    2.06
  -6  -8  12    4.38    1.10
   7   8 -12   -0.88    3.60
   7   8 -12    6.85    5.02
   8  -7 -12    1.31    1.33
  -8   7  12    1.72    2.26
  -7  -8  12    2.04    0.91
   8  -8 -12    0.96    1.44
   8   8 -12    3.69    4.95
  -8   8  12    4.01    2.70
   8  -9 -12    6.56    2.01
   7  -9 -12    7.18    2.53
   7  -9 -12    6.17    2.04
  -7   9  12    4.67    2.88
   6  -9 -12    6.97    2.01
   6  -9 -12    7.27    2.37
  -6   9  12   12.19    3.27
   5  -9 -12   55.22   10.63
   5  -9 -12   50.83   11.74
  -5   9  12   62.20   13.88
   4  -9 -12    5.18    1.64
   4  -9 -12    6.25    1.52
  -3   9  12  124.61   27.18
  -3   9  12  116.39   27.14
   2  -9 -12    4.99    1.35
   2  -9 -12    4.53    1.04
  -2   9 -12    2.67    1.48
  -2   9 -12    7.18    1.58
  -2   9  12    4.04    1.67
  -2   9  12    3.31    1.71
   2  -9  12    0.72    1.15
  -1   9 -12   25.51    5.93
  -1   9 -12   23.06    5.97
   1  -9 -12   24.18    5.54
   1  -9 -12   28.85    5.70
  -1   9  12   24.14    7.23
   1  -9  12   27.33    5.27
  -1   9  12   23.14    7.63
   0   9 -12   -0.80    1.31
   0   9 -12   -1.38    1.12
   0  -9 -12    0.49    1.01
   0   9  12   -0.48    1.85
   0  -9  12   -0.25    1.04
  -1  -9 -12   29.52    5.65
   1   9 -12   23.48    5.86
   1   9 -12   27.37    6.00
  -1  -9  12   21.75    5.45
   2   9 -12    1.42    1.79
   2   9 -12    0.77    1.52
  -2  -9  12    3.52    1.27
   3   9 -12   87.64   25.51
   3   9 -12  100.77   23.51
   4   9 -12    0.44    2.34
  -4  -9  12    4.44    1.53
   5   9 -12   40.33   17.06
   5   9 -12   59.28   13.52
  -5  -9  12   49.24    8.56
  -5  -9  12   39.82   10.53
   6   9 -12    0.84    4.38
   6   9 -12   10.87    4.36
  -6  -9  12    4.75    1.51
  -6  -9  12    9.96    2.36
   7   9 -12    8.84    4.80
   7   9 -12    5.61    5.23
  -7  -9  12    6.99    1.62
   7 -10 -12    3.18    1.19
   7 -10 -12    1.68    2.03
  -7  10  12    5.48    3.13
   6 -10 -12    1.45    1.79
   6 -10 -12    1.38    1.12
  -6  10  12    2.25    2.55
   5 -10 -12    9.22    2.58
   5 -10 -12   11.95    2.98
  -5  10  12    9.52    4.41
   4 -10 -12   58.77    9.85
  -4  10  12   51.97   13.98
  -4  10  12   46.13   14.42
   3 -10 -12    8.29    1.89
   3 -10 -12    8.84    1.86
  -3  10  12    6.90    3.01
  -3  10  12    6.07    2.63
   2 -10 -12   11.38    2.13
  -2  10 -12    9.38    2.74
   2 -10 -12   10.25    2.13
   2 -10  12   10.72    2.49
  -2  10  12   10.86    3.02
  -2  10  12    4.30    3.11
   1 -10 -12    3.97    1.36
  -1  10 -12    5.16    1.64
  -1  10 -12    1.82    1.49
   1 -10 -12    0.82    0.99
   1 -10  12    2.29    1.27
  -1  10  12    3.72    1.57
  -1  10  12    5.69    1.80
   0  10 -12    2.19    1.58
   0  10 -12    0.43    1.54
   0 -10 -12    2.39    1.20
   0 -10  12    1.32    1.23
   1  10 -12    6.69    1.96
  -1 -10 -12    2.22    1.28
   1  10 -12    0.97    1.73
  -1 -10  12    1.02    1.18
   2  10 -12   11.50    2.96
   2  10 -12    4.58    2.64
  -2 -10  12    8.64    2.16
  -2 -10  12    5.79    2.18
   3  10 -12    5.48    2.83
   3  10 -12    6.02    2.82
  -3 -10  12    6.59    1.96
  -3 -10  12    5.65    1.69
   4  10 -12   46.96   14.50
   4  10 -12   53.54   12.66
  -4 -10  12   46.27    9.23
  -4 -10  12   45.01    9.53
   5  10 -12    6.93    4.70
   5  10 -12   11.91    4.50
  -5 -10  12   12.18    2.81
  -5 -10  12   13.02    2.26
   6  10 -12   -3.36    3.28
  -6 -10  12    3.58    1.66
   7  10 -12    1.06    4.28
  -7 -10  12   -0.86    1.11
   8  10 -12   -8.89    7.15
  -8 -10  12   -0.61    1.17
   9 -11 -12    1.99    1.71
   8 -11 -12    9.78    2.57
   7 -11 -12    2.76    1.31
  -2  11 -12    3.73    1.92
   2 -11  12    2.08    1.23
  -1  11 -12    4.88    2.29
   1 -11  12    9.89    1.97
   0  11 -12    0.47    1.62
   0 -11  12    0.28    1.34
   1  11 -12    5.01    2.29
  -1 -11  12    4.99    1.95
   2  11 -12    0.48    1.97
  -2 -11  12    4.29    1.43
   3  11 -12    7.76    4.12
  -3 -11  12   12.33    2.59
   5  11 -12    7.40    4.16
  -5 -11  12    6.25    1.80
   6  11 -12    3.81    4.08
   6  11 -12    8.15    4.23
  -6 -11  12    3.47    1.98
  -6 -11  12    1.73    1.06
   7  11 -12   -6.69    5.69
   7  11 -12    4.93    5.26
  -7 -11  12    0.83    1.97
  -7 -11  12    0.83    1.06
   8  11 -12    6.88    6.44
   8  11 -12   18.17    7.11
  -8 -11  12    6.61    1.84
  -3  12 -12    3.30    1.62
  -2  12 -12    0.69    1.49
  -2  12 -12    1.74    1.86
   2 -12  12    2.16    1.16
  -1  12 -12   -0.69    1.51
   2  12 -12   -0.85    2.14
   2  12 -12   -1.58    2.09
  -2 -12  12    1.42    1.24
  -2 -12  12    1.11    1.10
   3  12 -12    3.76    2.26
   3  12 -12    1.85    2.58
  -3 -12  12    3.13    1.48
  -3 -12  12    0.50    1.13
   4  12 -12    1.71    2.67
   4  12 -12    2.03    3.19
  -4 -12  12    2.35    1.63
  -4 -12  12    6.55    1.42
   5  12 -12    1.70    3.57
   5  12 -12    8.90    3.83
  -5 -12  12   -1.54    1.00
  -5 -12  12   -1.05    1.60
   6  12 -12    4.98    5.01
   6  12 -12   -4.24    3.89
  -6 -12  12    0.52    1.01
  -6 -12  12    0.40    1.78
   7  12 -12   -5.85    5.67
   7  12 -12    6.10    5.05
  -7 -12  12   -0.28    0.79
  -7 -12  12    3.07    1.97
   8  12 -12   -1.55    6.42
   8  12 -12    9.57    7.45
  -8 -12  12    2.00    1.15
  -3  13 -12    0.74    1.56
   3 -13  12   -0.31    1.24
  -2  13 -12   -1.25    1.89
  -2  13 -12    1.76    1.71
   2 -13  12    1.90    1.39
  -1  13 -12    0.57    1.83
  -1  13 -12   -0.37    1.96
   1 -13  12   -0.62    1.62
   0  13 -12   -1.13    2.03
   0  13 -12    0.76    1.78
   0 -13  12    0.64    1.41
   1  13 -12   -5.73    2.28
  -1 -13  12    0.93    1.38
   2  13 -12    0.59    2.26
  -2 -13  12    2.96    1.49
   3  13 -12   -0.50    2.34
   3  13 -12    0.65    2.85
  -3 -13  12    1.58    1.50
  -3 -13  12    4.14    1.32
   4  13 -12   -1.61    3.45
   4  13 -12   -5.13    3.66
  -4 -13  12    0.26    0.95
  -4 -13  12    2.70    1.35
   5  13 -12    3.21    4.82
   5  13 -12   20.62    5.64
  -5 -13  12    5.07    2.57
  -5 -13  12   10.82    2.22
   6  13 -12    3.31    4.37
   6  13 -12    3.13    5.01
  -6 -13  12    2.26    1.85
  -6 -13  12    1.34    1.06
   7  13 -12   -4.90    5.83
   7  13 -12    5.82    6.06
  -7 -13  12    0.58    1.07
  -7 -13  12    3.28    2.30
   8  13 -12   -1.67    6.30
   8  13 -12   -5.04    7.66
  -8 -13  12    4.28    2.65
  -8 -13  12    1.44    1.06
  -3  14 -12   -0.38    1.57
   3 -14  12    0.65    1.03
  -2  14 -12    0.79    2.00
  -2  14 -12    2.01    2.21
   2 -14  12   -0.99    1.38
  -1  14 -12    2.30    1.87
  -1  14 -12   -0.62    1.91
   1 -14  12    2.23    1.35
   0  14 -12    1.24    2.08
   0  14 -12   -0.61    2.22
   0 -14  12    1.64    1.45
   1  14 -12    0.61    2.44
   1  14 -12    0.43    2.00
  -1 -14  12   -0.32    1.31
  -1 -14  12    5.14    1.57
   2  14 -12    4.05    2.65
  -2 -14  12    5.89    1.66
   3  14 -12    0.71    2.70
  -3 -14  12    2.87    1.55
   4  14 -12    2.68    3.51
   4  14 -12   -1.85    3.69
  -4 -14  12    3.24    1.43
  -4 -14  12    4.19    1.83
   5  14 -12   11.03    7.31
   5  14 -12   18.00    6.70
  -5 -14  12   11.53    4.07
  -5 -14  12   18.35    3.19
   6  14 -12   -7.38    5.56
   6  14 -12   -1.10    5.80
  -6 -14  12    1.61    1.06
  -6 -14  12   -1.30    1.95
   7  14 -12    5.85    7.77
   7  14 -12    3.85    6.28
  -7 -14  12   16.14    3.46
  -7 -14  12    8.91    2.15
   8  14 -12   -1.75    7.83
   8  14 -12    6.75    6.74
  -8 -14  12    4.20    2.56
  -8 -14  12    0.29    1.01
  -3  15 -12   15.74    4.69
   3 -15  12   12.82    3.97
  -2  15 -12   -0.72    2.30
  -2  15 -12   -1.62    2.09
   2 -15  12   -0.69    1.41
  -1  15 -12    3.73    2.83
  -1  15 -12    5.39    3.02
   1 -15  12    4.56    2.17
   0  15 -12   -0.91    2.47
   0  15 -12    3.39    2.52
   0 -15  12   -1.30    1.44
   1  15 -12   11.58    3.19
   1  15 -12    9.68    3.71
  -1 -15  12    8.49    2.17
  -1 -15  12   11.46    2.53
   2  15 -12   -0.54    2.55
   2  15 -12    1.49    2.90
  -2 -15  12    1.44    1.08
  -2 -15  12   -0.68    1.54
   3  15 -12   13.94    6.42
  -3 -15  12   18.74    3.75
  -3 -15  12   19.87    3.93
   5  15 -12   -0.90    4.48
   5  15 -12   -4.53    4.57
  -5 -15  12   -1.14    1.87
   6  15 -12    9.80    8.21
   6  15 -12    1.15    6.42
  -6 -15  12   11.76    3.40
  -6 -15  12   11.94    2.29
   7  15 -12    1.37    6.55
   7  15 -12   -6.27    6.40
  -7 -15  12   -3.27    2.12
  -7 -15  12   -2.53    1.35
   8  15 -12  -16.05    8.70
   8  15 -12   -7.20    8.03
  -8 -15  12    1.19    1.08
  -8 -15  12   -0.57    2.51
  -3  16 -12   -0.44    2.00
   3 -16  12    2.50    1.48
  -2  16 -12    9.27    3.86
  -2  16 -12    8.76    3.61
   2 -16  12    6.65    2.79
  -1  16 -12    2.74    2.48
  -1  16 -12    3.64    2.81
   1 -16  12    0.32    1.46
   0  16 -12   14.17    4.80
   0  16 -12   26.63    4.46
   0 -16  12   13.42    4.07
   0 -16  12   10.41    3.24
   1  16 -12   -2.53    2.44
   1  16 -12    0.74    2.67
  -1 -16  12    0.62    1.39
  -1 -16  12    0.68    1.37
   2  16 -12   11.58    3.98
   2  16 -12    5.68    4.36
  -2 -16  12    5.74    2.65
   3  16 -12    1.80    3.73
   3  16 -12   -5.26    3.31
  -3 -16  12    3.19    1.51
  -3 -16  12    4.76    1.74
   4  16 -12    4.02    4.54
   4  16 -12   -5.05    4.08
  -4 -16  12    1.17    1.89
  -4 -16  12    2.66    1.26
   5  16 -12    7.35    5.46
  -5 -16  12    2.94    2.12
   6  16 -12   -4.23    5.97
  -6 -16  12   -2.37    2.36
   7  16 -12  -16.67    6.80
   7  16 -12   -7.70    8.32
  -7 -16  12    0.50    2.60
  -7 -16  12    0.31    1.34
   8  16 -12    7.40    7.98
   8  16 -12   -1.86    8.18
  -8 -16  12    1.05    2.40
  -8 -16  12    0.61    1.20
  -3  17 -12    7.73    2.45
   3 -17  12    1.87    1.70
  -2  17 -12    1.37    2.21
  -2  17 -12    1.65    2.49
   2 -17  12    2.37    1.89
  -1  17 -12   10.29    3.75
  -1  17 -12    9.59    3.51
   1 -17  12    4.26    2.34
   0  17 -12    1.48    2.48
   0  17 -12    0.81    2.92
   0 -17  12   -1.87    1.64
   0 -17  12    1.37    1.54
   1  17 -12    6.30    3.65
   1  17 -12    0.82    3.76
  -1 -17  12   14.49    2.46
  -1 -17  12    8.54    2.45
   2  17 -12    7.43    3.30
   2  17 -12    2.72    3.61
  -2 -17  12    0.39    1.81
  -2 -17  12    3.55    1.49
   3  17 -12    1.52    3.66
   3  17 -12    4.07    4.08
  -3 -17  12    1.93    1.51
  -3 -17  12    3.22    1.95
   4  17 -12    1.09    4.60
   4  17 -12   -6.19    4.36
  -4 -17  12   -3.23    1.93
  -4 -17  12    0.32    1.48
   6  17 -12   -6.28    6.08
  -6 -17  12   -2.31    2.34
   7  17 -12   -1.88    8.12
  -7 -17  12   -1.00    2.26
   8  17 -12  -18.37    8.85
  -8 -17  12    4.06    2.83
  -3  18 -12    0.46    2.19
  -2  18 -12   -0.89    3.04
  -2  18 -12   -2.11    2.58
   2 -18  12    0.82    1.69
  -1  18 -12   -1.77    3.14
  -1  18 -12   -0.50    2.54
   1 -18  12    3.32    1.66
   1 -18  12   -0.38    1.57
   0  18 -12    9.10    2.97
   0  18 -12    2.63    2.99
   0 -18  12    4.96    2.10
   0 -18  12    0.73    1.75
   1  18 -12    2.85    3.44
   1  18 -12    4.53    2.97
  -1 -18  12    0.81    1.66
  -1 -18  12    1.09    1.53
   2  18 -12   -0.98    3.89
   2  18 -12   -4.21    3.96
  -2 -18  12    7.55    1.64
  -2 -18  12    0.79    1.72
   3  18 -12   -5.44    4.65
   3  18 -12    3.26    4.37
  -3 -18  12    1.66    1.40
  -3 -18  12    0.41    2.00
   4  18 -12   -7.16    4.81
   4  18 -12    6.41    4.63
  -4 -18  12    0.42    1.93
  -4 -18  12   -0.33    1.19
   5  18 -12   -8.38    5.59
  -5 -18  12    2.21    1.24
  -5 -18  12    0.46    2.15
  -6 -18  12   -2.42    2.29
  -2  19 -12    2.92    2.95
   2 -19  12    0.44    1.35
   2 -19  12    3.15    1.65
  -1  19 -12    0.99    3.24
   1 -19  12    0.39    1.31
   1 -19  12   -1.62    1.79
   0  19 -12   -1.98    3.62
   0 -19  12   -0.80    1.62
   1  19 -12    1.05    3.71
  -1 -19  12    1.99    1.70
   0   0 -13   -0.26    0.88
   0   0 -13    0.19    0.54
   0   0  13    0.73    1.10
   1   0 -13  117.31   24.73
   1   0 -13  109.38   23.23
   1   0 -13   96.02   24.13
   0  -1 -13  116.73   23.03
   0   1 -13  124.27   26.05
  -1   0  13  137.30   30.35
   0   1  13   98.91   31.75
   0  -1  13  121.59   30.32
   1  -1 -13   -0.70    0.88
   1   1 -13   -0.12    0.52
   1  -1 -13    0.09    0.38
   1  -1 -13   -0.30    0.63
   1   1 -13   -0.47    0.56
   1   1 -13    0.89    0.78
  -1  -1  13   -0.28    1.21
  -1   1  13    0.31    1.08
   2   1 -13    9.32    2.71
   2   1 -13    9.62    2.95
   2   1 -13   12.23    2.37
   1  -2 -13   12.38    2.81
   2   1 -13   11.08    2.32
  -2  -1  13   12.72    2.58
  -2  -1  13   13.13    3.03
   0   2 -13   -0.25    0.88
   0   2 -13   -0.18    0.57
   2   0 -13   -0.59    0.63
   2   0 -13    0.32    0.54
   2   0 -13    0.10    0.51
   0  -2 -13    0.27    0.85
   2   0 -13   -0.44    0.86
  -2   0  13    0.25    1.20
   0  -2  13   -0.37    1.23
  -2   0  13   -0.07    0.30
   2  -1 -13    9.40    2.47
   1   2 -13   11.96    2.74
   2  -1 -13    8.92    2.75
   1   2 -13    9.61    2.50
   2  -1 -13   10.16    2.33
  -2   1  13   10.11    3.11
  -1  -2  13   12.44    2.98
   2   2 -13    0.47    0.64
   2   2 -13    0.42    0.77
   2  -2 -13    0.05    0.33
   2  -2 -13    0.23    0.78
  -2  -2  13   -0.46    1.04
  -2  -2  13    1.17    0.53
   3   2 -13    0.59    0.91
   2  -3 -13    2.63    0.70
   3   2 -13    0.32    0.74
   2  -3 -13    1.70    1.03
  -3  -2  13    0.86    1.13
  -2   3  13    1.67    1.35
  -3  -2  13    0.30    0.85
   1  -3 -13    8.40    1.86
   3   1 -13    9.31    2.11
   3   1 -13   11.69    2.23
   3   1 -13   10.36    1.87
   1  -3 -13    4.77    2.10
   3   1 -13   10.60    2.25
  -3  -1  13    8.84    2.07
  -1   3  13    8.26    3.02
  -3  -1  13   10.83    2.23
  -3  -1  13    9.32    2.12
  -3  -1  13    8.26    1.98
   0   3 -13    1.18    0.95
   3   0 -13    3.66    0.94
   0   3 -13    2.91    1.10
   3   0 -13    2.80    0.84
   0  -3 -13    0.57    1.15
   3   0 -13    3.89    0.83
   0  -3 -13    0.71    0.75
   3   0 -13    2.68    1.00
  -3   0  13    2.76    0.72
   0   3  13    2.67    1.64
  -3   0  13    3.32    1.26
  -3   0  13    2.29    0.95
  -3   0  13    1.99    0.73
   3  -1 -13    9.40    2.31
   1   3 -13    8.95    2.22
   3  -1 -13    8.55    1.84
   1   3 -13    9.98    2.41
   3  -1 -13   10.06    2.01
   3  -1 -13   10.77    2.48
   1   3 -13    9.84    2.19
   1   3 -13    9.36    2.45
  -3   1  13   10.72    2.37
  -1  -3  13    7.51    2.04
  -3   1  13    9.16    2.15
  -1  -3  13    5.35    2.63
  -3   1  13    8.17    2.24
  -3   1  13    6.73    2.01
   2   3 -13    0.18    0.97
   2   3 -13    0.93    0.80
   2   3 -13    3.57    0.79
   3  -2 -13    2.82    0.96
   3  -2 -13    1.68    0.87
   2   3 -13    3.21    0.99
  -3   2  13    1.28    0.86
  -2  -3  13    2.58    1.35
  -3   2  13    0.21    0.46
  -2  -3  13   -0.13    0.75
  -2  -3  13    2.36    0.83
   3   3 -13   -1.76    1.09
   3   3 -13   -2.21    1.28
   3  -3 -13   -0.23    1.00
   3  -3 -13   -1.08    0.77
   3   3 -13    0.47    0.80
   3   3 -13   -1.39    0.99
  -3  -3  13   -1.71    1.01
  -3  -3  13   -1.36    1.54
  -3   3  13   -0.56    1.14
  -3  -3  13   -2.02    0.99
  -3  -3  13   -1.67    0.97
  -3   3  13   -0.75    1.43
   4   3 -13   24.91    6.36
   4   3 -13   27.78    7.46
   3  -4 -13   22.61    6.84
   4   3 -13   36.49    7.07
   3  -4 -13   25.43    6.15
   4   3 -13   32.82    7.48
  -4  -3  13   29.07    7.50
  -3   4  13   27.18    6.95
  -3   4  13   40.21    8.12
   2  -4 -13   27.94    6.05
   2  -4 -13   25.70    5.31
   4   2 -13   29.09    5.36
   4   2 -13   26.31    6.35
  -2   4  13   25.57    7.61
  -4  -2  13   31.37    6.06
  -2   4  13   24.97    6.74
   4   1 -13   12.22    2.60
   1  -4 -13    7.06    1.93
  -4  -1  13    4.31    1.76
  -4  -1  13   11.40    1.93
  -4   1  13    4.32    2.21
  -1  -4  13    8.30    1.77
  -4   1  13    6.50    1.66
  -1  -4  13   15.44    3.06
   2   4 -13   25.21    6.88
   2   4 -13   26.51    6.61
   2   4 -13   31.89    6.34
   2   4 -13   28.11    6.46
   4  -2 -13   26.80    6.22
  -2  -4  13   21.30    6.72
  -2  -4  13   27.34    6.44
  -4   2  13   24.55    6.17
  -2  -4  13   24.79    5.85
   3   4 -13   32.37    6.98
   4  -3 -13   25.55    6.83
   3   4 -13   25.95    7.64
   4  -3 -13   30.85    5.66
   3   4 -13   33.46    6.94
  -3  -4  13   31.05    6.68
  -3  -4  13   31.15    6.66
  -3  -4  13   32.85    6.75
  -3  -4  13   30.78    7.68
  -4   3  13   25.45    6.93
   4   4 -13    0.83    1.10
   4   4 -13   -0.29    1.33
   4  -4 -13    0.54    0.63
   4   4 -13   -0.19    0.81
   4   4 -13   -0.64    0.78
   4  -4 -13   -0.25    0.87
  -4  -4  13    0.52    0.82
  -4  -4  13    0.70    0.87
  -4   4  13   -0.45    1.02
  -4  -4  13    1.23    0.69
   5   4 -13  103.97   27.96
   4  -5 -13  107.10   22.58
   5   4 -13  126.97   27.19
   5   4 -13   98.99   25.81
   5   4 -13  115.51   27.67
  -5  -4  13  117.02   21.90
  -5  -4  13  111.73   25.42
  -4   5  13  112.33   24.73
   5   3 -13  228.15   49.96
   3  -5 -13  221.29   43.62
   5   3 -13  218.02   53.25
   3  -5 -13  205.58   49.92
  -3   5  13  238.73   54.26
  -5  -3  13  224.71   52.41
  -5  -3  13  207.99   48.39
   5   2 -13   35.95   13.04
  -5  -2  13   53.47    9.04
  -2   5  13   28.99   10.04
  -5  -2  13   44.86    9.35
  -2   5  13   40.02   11.33
  -1   5 -13   66.59   14.59
   5   1 -13   66.49   13.79
   1  -5 -13   58.48   11.85
   1  -5 -13   57.41   13.11
  -1   5  13   60.98   18.21
   0   5 -13  170.52   38.78
   5   0 -13  152.37   34.68
   0   5 -13  174.16   35.31
   5   0 -13  168.44   34.01
   0   5 -13  112.41   37.95
   5   0 -13  164.95   33.70
  -5   0  13  155.26   34.79
   0  -5  13  173.53   35.42
   1   5 -13   52.22   17.11
   5  -1 -13   66.66   12.62
   5  -1 -13   63.88   13.08
   1   5 -13   55.01   14.24
   1   5 -13   59.60   13.66
  -1  -5  13   72.70   14.00
  -5   1  13   61.19   12.70
  -1  -5  13   61.19   16.89
   5  -2 -13   39.04    8.81
   2   5 -13   30.19    9.57
   2   5 -13   42.98   10.30
  -5   2  13   48.50    8.87
  -2  -5  13   44.05   11.34
  -2  -5  13   47.25    8.94
   3   5 -13  235.95   54.54
   3   5 -13  255.04   56.21
   5  -3 -13  220.08   49.47
   3   5 -13  248.21   52.26
   5  -3 -13  211.03   47.75
  -3  -5  13  232.03   54.06
  -5   3  13  229.22   49.30
  -3  -5  13  231.23   49.78
  -3  -5  13  220.42   55.12
   4   5 -13  110.24   26.02
   4   5 -13  112.67   23.97
   4   5 -13  112.72   25.76
   4   5 -13  112.32   25.97
   5  -4 -13  117.88   21.91
   5  -4 -13  105.24   21.94
  -4  -5  13   86.97   24.48
  -4  -5  13  103.65   22.43
  -4  -5  13  109.11   21.62
  -5   4  13   95.01   23.73
   5   5 -13   -2.33    2.26
   5  -5 -13   -0.28    0.94
   5  -5 -13    1.61    0.90
   5   5 -13    0.29    1.05
   5   5 -13   -0.74    1.41
   5   5 -13    1.75    1.01
  -5  -5  13   -0.71    1.19
  -5  -5  13    0.87    1.08
  -5   5  13    0.87    1.25
  -5  -5  13    0.20    0.81
   6   5 -13   21.44    7.87
   6   5 -13   32.02    7.63
   6   5 -13   27.81    8.28
   6   5 -13   37.53    9.52
   5  -6 -13   28.99    5.98
  -6  -5  13   21.95    7.21
  -6  -5  13   25.59    5.33
  -5   6  13   32.21    6.72
   4  -6 -13    5.08    1.61
   6   4 -13    5.97    3.69
   6   4 -13    3.59    1.79
   6   4 -13    3.82    2.03
   6   4 -13    6.76    2.35
   4  -6 -13    8.00    1.49
  -6  -4  13    7.79    2.03
  -4   6  13    9.01    1.93
  -6  -4  13    5.99    1.65
   3  -6 -13   56.89    9.16
   6   3 -13   53.34   12.52
   6   3 -13   53.00   17.56
   6   3 -13   45.53   10.21
   6   3 -13   55.31   11.96
   3  -6 -13   43.38   10.12
  -3   6  13   46.87   13.35
  -3   6  13   44.84   11.07
  -6  -3  13   47.06   10.84
  -6  -3  13   41.49   10.48
   6   2 -13   40.93    9.66
   6   2 -13   45.22    8.14
   6   2 -13   47.31    9.41
   2  -6 -13   39.03    8.31
  -2   6  13   29.34    9.62
  -2   6  13   47.16    9.93
  -6  -2  13   35.56    8.67
   6   1 -13  112.59   31.02
  -1   6 -13  128.91   27.95
   1  -6 -13  130.96   24.50
  -1   6 -13  110.63   30.16
   1  -6  13  126.60   27.68
  -6  -1  13  126.61   28.22
   0  -6 -13    1.40    1.02
   6   0 -13    0.48    0.99
   0   6 -13    0.93    1.11
   0  -6 -13    0.39    0.68
   6   0 -13   -0.32    1.12
   6   0 -13   -1.07    1.18
   0   6 -13    0.34    1.07
   0   6  13    0.43    1.65
  -6   0  13   -0.28    1.26
   0  -6  13   -0.19    0.75
   6  -1 -13  130.16   30.20
   1   6 -13  134.66   28.14
   6  -1 -13  117.25   26.29
   1   6 -13  121.54   27.58
  -6   1  13  112.44   27.76
   2   6 -13   44.91    9.42
   6  -2 -13   34.02    8.51
  -2  -6  13   41.13    8.14
  -6   2  13   17.11    8.44
   3   6 -13   52.01   11.80
   3   6 -13   39.86   10.77
   3   6 -13   51.24   10.87
   3   6 -13   44.90   10.28
  -6   3  13   46.11   10.33
  -3  -6  13   43.79   10.69
  -3  -6  13   46.48    9.85
   4   6 -13    9.82    2.38
   4   6 -13    5.53    1.75
   4   6 -13    7.45    1.95
   6  -4 -13    4.49    1.90
   4   6 -13    6.63    2.24
   6  -4 -13    6.27    1.74
  -4  -6  13    3.87    1.67
  -4  -6  13    2.68    1.46
  -6   4  13   10.55    2.22
  -4  -6  13    7.73    1.88
  -4  -6  13    7.61    1.89
   6  -5 -13   32.15    6.59
   6  -5 -13   28.62    6.42
   5   6 -13   30.73    8.01
   5   6 -13   30.49    7.56
   5   6 -13   31.39    7.91
   5   6 -13   29.20    7.49
  -5  -6  13   31.61    7.03
  -5  -6  13   29.06    5.70
  -6   5  13   28.55    6.69
  -5  -6  13   29.98    5.15
   6   6 -13   -1.67    2.30
   6   6 -13    0.40    1.37
   6   6 -13   -4.20    3.20
   6  -6 -13    0.36    1.31
   6  -6 -13   -0.22    1.00
   6   6 -13    0.89    1.29
  -6  -6  13    0.92    0.88
  -6  -6  13    0.96    1.27
  -6   6  13   -0.37    1.76
   7   6 -13    4.58    9.15
   7   6 -13   24.85    5.95
   6  -7 -13   25.98    4.96
   7   6 -13   23.32    7.70
   6  -7 -13   24.92    4.79
  -7  -6  13   14.15    4.25
  -6   7  13   20.49    5.89
   7   5 -13    6.72    2.07
   5  -7 -13    7.51    1.79
   5  -7 -13    2.66    1.26
   7   5 -13    5.54    3.15
  -7  -5  13    5.48    1.52
  -5   7  13    6.50    2.08
   4  -7 -13  174.01   34.95
   4  -7 -13  156.01   32.19
   7   4 -13  147.36   45.70
   7   4 -13  172.78   43.06
  -7  -4  13  180.62   42.13
  -4   7  13  178.08   46.30
  -4   7  13  184.41   43.41
   3  -7 -13   62.43   11.42
   7   3 -13   42.50   13.83
   7   3 -13   54.60   15.85
   7   3 -13   45.52   15.33
   3  -7 -13   53.33   11.17
  -3   7  13   59.09   15.42
  -7  -3  13   55.35   13.17
  -3   7  13   58.22   13.41
   7   2 -13   38.82   10.27
   7   2 -13   43.93   11.41
   2  -7 -13   42.82    9.13
   7   2 -13   34.92   10.06
  -2   7  13   46.87   12.06
  -7  -2  13   38.27    9.77
   7   1 -13   16.72    4.99
   1  -7 -13   19.02    3.96
  -1   7 -13   19.50    5.25
   1  -7 -13   25.52    4.47
   7   1 -13   13.90    5.30
  -1   7 -13   14.59    4.94
   7   1 -13   23.33    5.14
   1  -7  13   22.18    4.96
  -1   7  13   21.97    5.57
  -7  -1  13   14.65    4.76
   7   0 -13  102.23   27.97
   0  -7 -13  111.93   24.31
   0  -7 -13  114.82   25.45
   0   7 -13  120.98   26.05
  -7   0  13  117.72   24.06
   1   7 -13   16.93    4.72
   1   7 -13   20.35    4.70
  -1  -7 -13   24.15    4.81
   7  -1 -13   24.32    5.27
   7  -1 -13   20.74    5.08
  -7   1  13   22.36    4.59
  -1  -7  13   18.51    4.55
   2   7 -13   41.27    9.42
   2   7 -13   41.93    9.37
   7  -2 -13   48.15    9.96
  -7   2  13   46.78    9.22
  -2  -7  13   37.80    8.69
   3   7 -13   51.98   13.03
   3   7 -13   48.80   13.39
   7  -3 -13   64.02   12.75
  -3  -7  13   60.15   10.97
  -7   3  13   57.67   12.24
   4   7 -13  151.03   40.61
   7  -4 -13  164.09   37.80
   7  -4 -13  154.59   39.47
   4   7 -13  147.67   39.71
  -4  -7  13  189.23   32.03
  -4  -7  13  168.92   32.22
  -7   4  13  167.10   37.48
   5   7 -13   10.67    2.93
   7  -5 -13    3.72    1.91
   7  -5 -13    5.31    1.67
   5   7 -13    4.82    2.66
  -7   5  13    1.96    2.12
  -5  -7  13    4.06    1.20
  -5  -7  13    5.20    1.67
   6   7 -13   28.71    7.11
   7  -6 -13   15.99    5.15
   6   7 -13   20.24    7.10
   7  -6 -13   23.16    4.94
  -7   6  13   16.59    5.27
  -6  -7  13   21.66    3.83
   7  -7 -13    1.39    1.81
   7   7 -13    0.75    3.06
   7  -7 -13   -0.80    1.13
   7   7 -13   -6.55    4.74
  -7  -7  13   -1.02    0.84
  -7   7  13   -0.44    1.92
   8   7 -13   -2.11    4.64
   7  -8 -13    0.26    1.28
   7  -8 -13    1.38    1.83
  -7   8  13    6.13    2.59
   6  -8 -13   37.39    7.03
   8   6 -13   18.89   10.49
   6  -8 -13   33.70    6.86
   8   6 -13   27.68    9.26
  -6   8  13   32.00    8.08
   5  -8 -13   49.88    9.98
   5  -8 -13   51.09    9.28
   8   4 -13    4.02    3.15
   4  -8 -13    1.53    1.26
   4  -8 -13    0.91    0.83
   8   4 -13    0.48    2.33
  -4   8  13    1.81    1.42
  -4   8  13    4.02    1.67
   3  -8 -13  133.25   27.52
   8   3 -13   70.74   37.62
   8   3 -13  134.07   33.86
  -3   8  13  148.32   35.64
  -3   8  13  131.80   37.15
   8   2 -13    6.56    4.46
   2  -8 -13   12.90    2.79
  -2   8 -13   10.44    2.92
   8   2 -13    5.26    3.22
   2  -8 -13   14.45    2.37
  -2   8  13   11.51    3.54
  -2   8  13   11.90    3.50
   1  -8 -13   61.04   11.67
   8   1 -13   56.45   13.52
  -1   8 -13   45.07   13.40
  -1   8 -13   49.96   12.45
   1  -8 -13   61.48   11.85
   1  -8  13   55.64   12.48
  -8  -1  13   60.67   12.90
  -1   8  13   50.16   15.00
   0   8 -13   -0.39    1.11
   8   0 -13    0.51    1.67
   8   0 -13    1.25    1.60
   0   8 -13    0.27    1.21
   0  -8 -13    0.41    0.71
   0  -8 -13   -0.56    1.11
   0  -8  13    0.22    0.85
   0   8  13   -0.93    1.72
  -8   0  13   -0.78    1.59
   1   8 -13   49.35   12.64
   8  -1 -13   57.74   13.74
   8  -1 -13   59.90   13.24
  -1  -8 -13   55.24   12.37
   1   8 -13   54.10   12.16
  -1  -8  13   54.95   11.63
  -8   1  13   49.00   11.95
   2   8 -13   14.59    3.02
   2   8 -13   11.37    2.99
   8  -2 -13   14.52    3.30
  -2  -8  13    6.73    2.47
  -8   2  13    8.08    3.06
   3   8 -13  126.81   33.80
   8  -3 -13  145.33   31.32
  -8   3  13  154.45   28.77
  -3  -8  13  138.44   25.66
  -3  -8  13  141.06   27.00
   8  -4 -13   -0.37    1.46
   4   8 -13    0.48    1.95
   4   8 -13   -0.85    2.17
   8  -4 -13   -0.48    1.86
  -4  -8  13    0.65    0.90
  -8   4  13   -0.42    1.91
  -4  -8  13    3.39    1.23
   8  -5 -13   33.56   10.25
   8  -5 -13   41.35   11.14
   5   8 -13   29.73   13.02
   5   8 -13   45.10   11.76
  -5  -8  13   47.46    7.61
  -5  -8  13   35.09    8.92
   8  -6 -13   24.93    7.13
   6   8 -13   30.53   10.23
   6   8 -13   25.87    9.92
   8  -6 -13   29.79    7.44
  -8   6  13   29.01    7.53
  -6  -8  13   31.85    5.16
  -6  -8  13   27.45    6.40
   8  -7 -13    1.60    1.88
   8  -7 -13    0.61    1.37
   7   8 -13   -4.21    3.54
   7   8 -13   -3.13    4.98
  -8   7  13   -0.55    2.25
  -7  -8  13   -0.28    0.94
   8   8 -13   -1.19    4.79
   8  -8 -13    2.33    1.97
   8  -8 -13    0.29    1.19
  -8  -8  13   -0.29    0.98
  -8   8  13   -1.18    2.39
   8  -9 -13    1.47    1.24
  -8   9  13    1.42    2.93
   7  -9 -13    4.31    2.03
   7  -9 -13    3.27    1.48
  -7   9  13    7.36    2.73
   6  -9 -13    0.47    1.20
   6  -9 -13   -0.84    1.66
  -6   9  13    6.27    2.56
   5  -9 -13    1.59    1.29
   5  -9 -13    1.31    0.88
  -5   9  13    3.75    2.17
  -4   9  13   83.58   24.69
  -4   9  13   98.59   22.52
   3  -9 -13   -0.35    0.74
   3  -9 -13    0.84    1.14
  -3   9  13    0.33    1.54
  -3   9  13    0.69    1.65
  -2   9 -13   52.05   11.37
   2  -9 -13   49.34    9.86
   2  -9 -13   49.63   10.10
  -2   9  13   46.29   13.16
  -2   9  13   39.28   13.62
   2  -9  13   52.32   10.77
  -1   9 -13   14.72    3.43
   1  -9 -13    9.74    2.98
   1  -9 -13   13.98    2.88
  -1   9 -13   12.70    3.29
  -1   9  13   12.24    3.84
  -1   9  13    9.54    4.17
   1  -9  13   13.61    2.99
   0  -9 -13   46.97    9.57
   0   9 -13   46.41   10.83
   0   9 -13   43.37   11.08
   0   9  13   36.36   15.47
   0  -9  13   54.43    9.94
   1   9 -13   15.23    3.44
  -1  -9 -13   12.38    3.17
   1   9 -13   15.53    3.30
  -1  -9  13   10.60    2.95
   2   9 -13   49.65   11.67
   2   9 -13   52.50   11.30
  -2  -9  13   41.47    9.61
   3   9 -13   -0.76    1.93
   3   9 -13   -0.96    2.02
  -3  -9  13    0.42    0.83
  -3  -9  13   -1.44    1.24
   4   9 -13   90.01   20.97
   4   9 -13   75.76   23.07
  -4  -9  13   94.84   16.28
   5   9 -13    1.19    2.34
   5   9 -13   -2.94    2.81
  -5  -9  13    2.49    1.04
  -5  -9  13    2.74    1.37
   6   9 -13    1.64    3.49
   6   9 -13    1.47    2.76
   9  -6 -13    3.06    1.73
  -6  -9  13    1.00    0.91
  -6  -9  13    2.56    1.59
   7   9 -13    0.95    4.08
   9   9 -13  -15.24    8.98
   9 -10 -13    7.86    2.65
  -8  10  13   -3.29    3.85
   7 -10 -13   -0.25    1.08
   7 -10 -13    0.57    2.02
  -7  10  13   -1.99    2.94
   6 -10 -13   20.89    4.61
   6 -10 -13   18.95    4.77
  -6  10  13   19.70    6.51
   5 -10 -13   43.63    6.71
   5 -10 -13   29.82    7.33
  -5  10  13   41.85    9.63
  -5  10  13   34.40    9.80
   4 -10 -13   15.72    3.41
   4 -10 -13   17.64    3.22
  -4  10  13   17.85    4.68
  -4  10  13    6.99    4.74
   3 -10 -13   36.78    9.64
   3 -10 -13   50.86   10.77
  -3  10  13   53.49   13.15
  -3  10  13   61.89   13.77
  -2  10 -13    8.55    2.36
  -2  10 -13    5.93    2.35
   2 -10 -13    8.86    1.84
   2 -10 -13    6.34    1.92
  -2  10  13    8.06    3.08
   2 -10  13    8.36    2.02
  -2  10  13    9.32    2.72
  -1  10 -13   -0.46    1.55
  -1  10 -13   -3.43    1.46
   1 -10 -13   -0.28    1.20
   1 -10 -13    0.21    0.94
  -1  10  13   -1.82    1.58
   1 -10  13    1.63    1.12
  -1  10  13    0.46    1.91
   0  10 -13    1.35    1.59
   0  10 -13    0.92    1.56
   0 -10 -13   -0.28    1.14
   0 -10  13   -0.51    1.16
   1  10 -13    1.73    1.64
   1  10 -13   -1.77    1.97
  -1 -10 -13    0.29    1.27
  -1 -10  13   -0.52    1.19
   2  10 -13    3.69    2.42
   2  10 -13    4.46    2.51
  -2 -10  13    5.79    1.87
   3  10 -13   50.48   11.72
   3  10 -13   47.69   13.16
   4  10 -13   11.07    4.46
   4  10 -13   14.87    4.27
  -4 -10  13   11.26    3.06
  -4 -10  13   15.04    3.10
   5  10 -13   17.77   10.08
  -5 -10  13   34.36    6.53
   7  10 -13    1.09    4.47
  -7 -10  13    0.80    0.95
   8  10 -13  -11.08    6.77
   8  10 -13  -19.13    8.10
  -8 -10  13    0.57    1.04
   9  10 -13   18.63    7.19
   9 -11 -13    2.84    1.70
   7 -11 -13    2.56    1.25
   7 -11 -13    5.44    2.33
   5 -11 -13    0.21    1.00
   4  11 -13    3.13    2.72
  -4 -11  13    3.06    1.31
   5  11 -13   -0.75    2.73
   5  11 -13   -1.96    2.87
  -5 -11  13    4.18    1.59
  -5 -11  13    0.24    0.91
   7  11 -13    6.81    5.04
   7  11 -13   -1.08    4.64
  -7 -11  13    1.33    0.96
  -7 -11  13    0.41    1.98
   8  11 -13    1.41    6.18
   8  11 -13   20.31    7.87
  -8 -11  13   -0.29    0.98
   9  11 -13    3.15    6.16
  -2  12 -13    6.35    2.31
   2 -12  13    5.79    1.95
  -1  12 -13    2.15    1.79
   1 -12  13    0.83    1.22
   0  12 -13   -0.35    1.64
   0  12 -13   -0.53    1.80
   0 -12  13   -1.43    1.30
   1  12 -13    3.08    1.92
   1  12 -13    2.37    2.13
  -1 -12  13    1.73    1.37
   2  12 -13    6.57    2.68
   2  12 -13    4.47    2.66
  -2 -12  13    5.49    1.81
  -2 -12  13    5.39    1.87
   3  12 -13    0.49    2.40
   3  12 -13   -1.76    2.45
  -3 -12  13    0.97    0.98
  -3 -12  13    1.48    1.50
   4  12 -13   -3.47    2.78
   4  12 -13    7.05    3.12
  -4 -12  13    0.32    1.46
  -4 -12  13    1.08    1.21
   5  12 -13   13.98    4.93
   5  12 -13    2.12    3.90
  -5 -12  13    6.71    2.15
  -5 -12  13    6.87    1.83
   6  12 -13    1.00    4.33
   6  12 -13    0.99    4.09
  -6 -12  13   -0.54    1.06
  -6 -12  13   -0.70    1.76
   7  12 -13   -1.30    5.26
   7  12 -13    3.60    5.77
  -7 -12  13    2.20    2.06
  -7 -12  13    0.54    0.95
   8  12 -13    6.15    6.71
   8  12 -13   -6.54    6.75
  -8 -12  13   -0.50    2.02
  -8 -12  13    0.93    1.04
   9  12 -13   -1.66    7.10
  -2  13 -13    1.86    1.77
  -2  13 -13   -2.15    1.70
   2 -13  13    2.38    1.34
  -1  13 -13    4.76    1.99
  -1  13 -13    2.90    2.16
   1 -13  13    2.31    1.35
   0  13 -13   -2.31    2.27
   0 -13  13    1.49    1.35
   1  13 -13   -1.16    2.13
  -1 -13  13    3.34    1.51
   2  13 -13    1.78    2.03
   2  13 -13    1.27    2.03
  -2 -13  13    0.27    1.04
  -2 -13  13    4.28    1.72
   3  13 -13   -2.51    2.31
   3  13 -13    1.28    2.80
  -3 -13  13    2.49    1.43
  -3 -13  13    0.28    1.17
   4  13 -13    3.33    3.19
   4  13 -13    1.84    3.07
  -4 -13  13    0.65    1.68
  -4 -13  13    3.08    1.27
   5  13 -13    3.56    4.39
   5  13 -13    6.93    4.51
  -5 -13  13    6.90    1.81
  -5 -13  13    6.34    2.36
   6  13 -13    4.24    5.20
   6  13 -13   -3.28    4.89
  -6 -13  13    4.85    1.45
  -6 -13  13    7.71    2.23
   7  13 -13   -5.35    7.20
   7  13 -13    6.22    7.07
  -7 -13  13   10.74    3.07
  -7 -13  13   11.27    2.09
   9  13 -13  183.33   46.69
  -2  14 -13    1.99    2.10
  -2  14 -13    3.98    1.95
   2 -14  13   -2.83    1.46
  -1  14 -13   11.22    2.72
  -1  14 -13    1.16    2.12
   1 -14  13    8.45    1.73
   0  14 -13    0.43    2.12
   0  14 -13    2.53    2.27
   0 -14  13    2.47    1.52
   1  14 -13    1.24    2.25
  -1 -14  13    1.53    1.56
   2  14 -13   -2.63    2.68
  -2 -14  13    3.21    1.53
   3  14 -13    4.32    3.86
   3  14 -13    8.61    3.83
  -3 -14  13   11.32    2.39
  -3 -14  13    7.26    2.22
   4  14 -13   -0.86    3.80
   4  14 -13   -1.38    3.77
  -4 -14  13    5.90    1.58
  -4 -14  13    8.73    2.07
   5  14 -13   14.35    5.27
   5  14 -13    5.05    4.47
  -5 -14  13    1.43    2.11
  -5 -14  13    7.81    1.81
   7  14 -13   -4.20    5.51
   7  14 -13    1.31    6.35
  -7 -14  13    1.99    1.09
  -7 -14  13    2.14    1.97
   8  14 -13   12.96    9.00
   8  14 -13    7.13    8.21
  -8 -14  13    7.91    3.05
  -8 -14  13    5.39    1.72
   9  14 -13   16.06    8.07
  -9 -14  13    2.31    3.19
  -1  15 -13   -1.36    2.28
  -1  15 -13    1.70    1.89
   1 -15  13   -0.33    1.44
   0  15 -13    2.77    2.78
   0  15 -13    9.02    2.94
   0 -15  13    3.23    1.79
   1  15 -13   -3.38    2.36
   1  15 -13   -0.49    2.84
  -1 -15  13    0.69    1.34
  -1 -15  13   -2.32    1.43
   4  15 -13    0.91    4.02
   4  15 -13    1.39    3.84
  -4 -15  13    4.81    2.09
  -4 -15  13    5.63    1.55
   5  15 -13    3.43    4.73
   5  15 -13    4.31    4.70
  -5 -15  13    6.85    1.61
  -5 -15  13    3.18    2.10
   6  15 -13   12.82    5.60
   6  15 -13   -3.86    5.26
  -6 -15  13    0.28    1.14
  -6 -15  13    1.80    2.02
   7  15 -13    2.71    6.77
   7  15 -13    1.52    6.79
  -7 -15  13    5.53    1.42
  -7 -15  13    2.88    2.45
   8  15 -13   -9.19    9.02
   8  15 -13    1.72    7.31
  -8 -15  13   -3.02    2.26
  -8 -15  13    0.32    1.09
  -3  16 -13   11.32    3.80
  -2  16 -13    2.37    2.31
  -2  16 -13    0.77    2.32
   2 -16  13    1.14    1.53
  -1  16 -13   16.91    4.85
  -1  16 -13   10.51    5.08
   1 -16  13    5.04    3.76
   0  16 -13   -1.90    2.53
   0  16 -13    4.41    2.89
   0 -16  13   -0.38    1.32
   0 -16  13   -1.33    1.35
   1  16 -13   19.69    5.13
   1  16 -13    9.13    5.41
  -1 -16  13   16.36    3.67
  -1 -16  13   31.10    4.40
   2  16 -13   -2.22    2.81
   2  16 -13    0.82    2.96
  -2 -16  13    0.33    1.30
  -2 -16  13    0.37    1.90
   3  16 -13   16.27    5.66
  -3 -16  13   10.70    3.15
  -3 -16  13   12.82    2.94
   4  16 -13    0.98    3.98
  -4 -16  13    2.97    1.61
   5  16 -13    1.28    5.48
   5  16 -13    5.75    4.98
  -5 -16  13    4.80    2.15
   6  16 -13   -1.38    6.19
   6  16 -13   -3.58    6.17
  -6 -16  13    1.70    2.02
  -6 -16  13    1.48    1.08
   8  16 -13   24.55    8.81
   8  16 -13    1.90    8.25
  -8 -16  13   -5.45    2.67
  -8 -16  13    0.31    1.07
  -3  17 -13   -0.44    2.09
  -2  17 -13    9.13    3.65
  -2  17 -13    5.48    2.73
   2 -17  13    5.03    2.23
  -1  17 -13    2.47    2.36
  -1  17 -13    7.40    3.11
   1 -17  13    1.80    1.70
   0  17 -13   16.26    4.67
   0  17 -13    7.24    5.16
   0 -17  13   27.40    4.61
   0 -17  13    6.31    3.18
   1  17 -13    2.37    2.99
   1  17 -13   -0.87    2.90
  -1 -17  13    3.80    1.66
  -1 -17  13    3.88    1.91
   2  17 -13    0.89    3.72
   2  17 -13    1.27    3.45
  -2 -17  13    2.64    2.08
   3  17 -13   -3.03    4.80
   3  17 -13   -1.43    4.06
  -3 -17  13    0.78    1.90
  -3 -17  13    0.33    1.57
   5  17 -13    1.26    5.47
  -5 -17  13   -0.43    1.95
   6  17 -13    1.53    6.27
  -6 -17  13   -0.47    2.41
   7  17 -13    6.85    7.38
   7  17 -13    9.59    7.71
  -7 -17  13    8.08    2.66
  -2  18 -13    1.77    2.95
  -2  18 -13    3.74    2.72
   2 -18  13    0.38    1.60
  -1  18 -13    5.06    2.89
  -1  18 -13    0.91    3.29
   1 -18  13    0.80    2.10
   1 -18  13   10.91    2.58
   0  18 -13    4.94    2.93
   0  18 -13   -0.91    3.35
   0 -18  13   -2.35    1.67
   0 -18  13   -1.53    1.63
   1  18 -13    4.74    3.57
   1  18 -13   10.48    3.39
  -1 -18  13    5.34    2.20
  -1 -18  13    6.87    2.11
   2  18 -13    4.70    3.14
   2  18 -13   -0.98    3.85
  -2 -18  13   -0.76    1.77
  -2 -18  13    1.10    1.54
   3  18 -13    1.10    4.53
   3  18 -13    5.98    3.62
  -3 -18  13    1.08    1.52
  -3 -18  13    2.88    2.00
   4  18 -13   -5.51    4.49
   4  18 -13    6.10    5.06
  -4 -18  13    0.42    2.03
  -4 -18  13    1.78    1.42
   5  18 -13   -1.36    5.83
  -5 -18  13   -0.43    1.98
   0   0 -14  174.06   37.70
   0   0 -14  167.99   38.49
   0  -1 -14   -0.28    0.90
   0  -1 -14    0.20    0.68
   1   0 -14   -0.25    0.93
   1   0 -14   -0.33    0.58
   0   1 -14   -0.21    0.73
   0   1 -14   -0.28    0.85
   1   0 -14   -0.11    0.54
  -1   0  14    0.31    1.43
   0  -1  14   -0.38    1.37
   0   1  14   -0.81    1.25
   1   1 -14   59.55   13.16
   1   1 -14   64.70   12.75
   1  -1 -14   58.09   12.06
   1  -1 -14   55.39   13.85
   1  -1 -14   60.22   12.99
  -1   1  14   54.60   16.86
  -1  -1  14   48.83   14.75
   2   1 -14    5.56    1.24
   2   1 -14    3.57    1.51
   1  -2 -14    3.38    1.48
   2   1 -14    2.74    1.55
  -2  -1  14    2.00    1.71
   2   0 -14    6.21    1.53
   0  -2 -14    4.62    1.91
   2   0 -14    5.33    1.55
   0   2 -14    9.76    1.93
   0   2 -14    6.40    1.59
   2   0 -14   10.25    1.93
   0  -2  14    3.60    2.48
  -2   0  14    4.46    1.94
   2  -1 -14    4.37    1.58
   2  -1 -14    5.14    1.21
   1   2 -14    6.47    1.50
   2  -1 -14    5.49    1.16
   1   2 -14    6.59    1.33
   1   2 -14    4.86    1.39
  -2   1  14    4.79    1.88
  -1  -2  14   -0.30    1.99
   3   2 -14    0.67    0.69
   3   2 -14    0.43    0.81
   2  -3 -14   -0.25    0.99
   2  -3 -14    1.97    0.73
  -3  -2  14    0.80    0.71
  -2   3  14    0.57    1.23
  -3  -2  14    1.54    1.12
   3   1 -14   -0.51    0.91
   3   1 -14    0.23    1.17
   3   1 -14   -1.39    1.13
   1  -3 -14   -0.48    0.65
   3   1 -14   -0.16    0.72
   1  -3 -14   -0.26    0.90
  -1   3  14   -1.41    1.74
  -3  -1  14   -1.73    1.12
  -3  -1  14   -0.67    0.75
  -3  -1  14   -1.54    1.68
  -3  -1  14   -1.18    0.73
   0   3 -14   -0.26    0.96
   0  -3 -14    0.38    0.60
   3   0 -14   -0.96    1.29
   0   3 -14    0.36    0.75
   0  -3 -14    0.61    1.02
   3   0 -14   -0.92    0.82
   3   0 -14   -1.31    0.95
   3   0 -14   -1.68    0.91
  -3   0  14   -1.49    1.07
  -3   0  14   -0.30    0.61
  -3   0  14   -0.52    1.21
   0   3  14   -0.42    1.90
  -3   0  14   -0.57    0.55
   3  -1 -14   -0.74    1.08
   1   3 -14    0.28    0.91
   3  -1 -14   -0.94    0.76
   1   3 -14    0.59    0.82
   1   3 -14   -1.03    0.86
   3  -1 -14   -0.88    0.76
   1   3 -14   -1.13    1.01
  -1  -3  14   -2.86    2.02
  -1  -3  14   -0.59    0.75
  -3   1  14   -0.65    0.52
  -3   1  14   -0.34    0.41
  -3   1  14   -5.33    1.46
  -3   1  14   -0.77    1.17
   2   3 -14    0.85    0.68
   2   3 -14    4.56    0.96
   2   3 -14    0.21    0.80
   2   3 -14   -0.36    0.84
   3  -2 -14    1.26    1.01
  -3   2  14   -0.20    1.00
  -2  -3  14    1.88    1.30
  -2  -3  14    0.93    0.64
   3  -3 -14   59.29   15.45
   3  -3 -14   69.95   12.74
   3   3 -14   64.73   15.28
   3   3 -14   70.95   15.31
   3   3 -14   65.03   15.47
   3   3 -14   66.66   14.57
  -3  -3  14   59.96   14.95
  -3  -3  14   63.71   14.21
  -3  -3  14   64.94   15.76
   3  -4 -14   58.26   13.86
   4   3 -14   73.44   16.13
  -4  -3  14   68.98   15.42
  -3   4  14   68.34   16.64
  -4  -3  14   68.54   15.24
   2  -4 -14    2.33    0.79
   4   2 -14    3.23    1.07
   2  -4 -14    0.25    1.06
   4   2 -14    0.72    0.85
   4   2 -14    2.85    1.41
  -4  -2  14    0.91    0.99
  -2   4  14    1.73    1.40
  -4  -2  14    2.78    0.86
   1  -4 -14   55.69   12.21
   4   1 -14   58.03   14.55
   4   1 -14   62.35   14.89
   4   1 -14   64.45   13.04
  -4  -1  14   62.71   13.58
  -1   4  14   65.92   17.59
   0  -4 -14   -0.30    1.09
   0  -4 -14    0.96    0.78
   0   4 -14    1.24    0.79
   4   0 -14   -0.27    0.55
   4   0 -14    1.40    0.82
   4   0 -14    0.27    1.35
   4   0 -14    0.19    0.69
   0   4 -14    0.25    0.94
   0   4 -14   -0.19    0.87
   0  -4  14   -0.15    0.52
  -4   0  14    0.67    0.51
  -4   0  14    0.86    0.64
  -4   0  14    0.20    0.79
   0   4  14    1.30    1.72
   1   4 -14   64.55   15.30
   4  -1 -14   66.52   14.51
  -1  -4  14   68.37   14.58
  -4   1  14   61.83   14.15
  -1  -4  14   72.28   17.73
  -4   1  14   65.35   15.19
   4  -2 -14    2.81    1.14
   2   4 -14    3.87    1.20
   2   4 -14    1.43    0.95
   2   4 -14    0.25    0.99
   2   4 -14    3.45    1.01
  -2  -4  14    2.62    0.88
  -4   2  14    1.09    1.09
  -2  -4  14    4.05    1.39
  -2  -4  14    3.18    0.96
   3   4 -14   70.65   16.71
   3   4 -14   72.02   15.94
  -4   3  14   73.06   16.53
  -3  -4  14   67.36   15.49
  -3  -4  14   65.31   16.19
   4   4 -14   58.48   16.03
   4   4 -14   71.21   16.06
   4  -4 -14   61.12   13.87
   4   4 -14   64.32   14.66
   4  -4 -14   59.51   12.29
   4   4 -14   62.20   15.67
  -4  -4  14   66.52   14.04
  -4  -4  14   67.12   13.44
  -4  -4  14   66.35   16.18
  -4  -4  14   63.01   13.58
   4  -5 -14   17.73    4.44
   5   4 -14   20.16    4.70
   5   4 -14   16.19    5.61
   5   4 -14   26.49    5.52
   4  -5 -14   16.08    4.24
   5   4 -14   17.73    5.14
  -4   5  14   24.69    5.17
  -4   5  14   20.19    4.89
  -5  -4  14   19.33    4.22
  -5  -4  14   18.19    4.16
  -5  -4  14   20.44    4.73
   5   3 -14   48.92   12.30
   3  -5 -14   57.68   11.26
   3  -5 -14   54.41   11.64
   5   3 -14   54.81   14.11
   5   3 -14   44.52   12.92
   5   3 -14   51.88   12.88
  -3   5  14   59.37   12.46
  -5  -3  14   52.91   11.49
  -5  -3  14   44.62   11.20
  -3   5  14   53.01   15.16
  -5  -3  14   49.99   11.74
   5   2 -14   58.78   11.71
   5   2 -14   53.59   11.63
   2  -5 -14   52.10   10.75
   5   2 -14   48.55   10.83
   2  -5 -14   51.75   10.05
   5   2 -14   54.14   14.34
  -5  -2  14   45.72   10.91
  -2   5  14   56.96   14.27
  -2   5  14   50.44   12.27
  -5  -2  14   47.70   11.03
   1  -5 -14  137.69   29.81
   5   1 -14  121.62   29.00
  -1   5 -14  132.95   31.72
   1  -5 -14  130.81   25.24
   5   1 -14  139.63   27.26
  -1   5  14  115.97   36.48
   0   5 -14    1.48    0.90
   0  -5 -14    0.29    1.03
   5   0 -14   -0.91    0.76
   5   0 -14    0.50    0.83
   5   0 -14   -0.40    0.73
   0   5 -14   -1.48    1.05
   0   5 -14    0.50    0.93
   0  -5 -14   -0.20    0.70
   0   5  14   -0.45    1.41
  -5   0  14    0.43    1.08
   0  -5  14    0.19    0.71
  -5   0  14   -0.46    0.63
   1   5 -14  143.82   29.82
   1   5 -14  130.12   31.37
  -1  -5  14  126.70   36.15
  -1  -5  14  136.98   29.30
   2   5 -14   55.93   11.71
   2   5 -14   46.13   12.66
   2   5 -14   49.64   11.58
   2   5 -14   43.53   11.98
  -2  -5  14   59.14   11.55
  -2  -5  14   52.79   12.89
   3   5 -14   66.13   11.80
   3   5 -14   59.29   12.40
   3   5 -14   54.78   12.02
   3   5 -14   53.91   12.93
  -5   3  14   51.88   11.55
  -3  -5  14   54.12   12.82
   5  -4 -14   19.24    4.47
   4   5 -14   17.53    4.64
   4   5 -14   18.46    4.76
   5  -4 -14   25.02    4.63
   4   5 -14   13.31    4.60
   4   5 -14   16.41    5.06
  -4  -5  14   18.61    4.28
  -4  -5  14   23.02    4.06
  -4  -5  14   18.10    4.07
  -5   4  14   22.19    4.61
  -4  -5  14   16.51    4.61
   5   5 -14   69.56   19.77
   5   5 -14   74.62   18.96
   5   5 -14   67.53   18.08
   5  -5 -14   67.91   15.41
   5  -5 -14   73.83   14.57
  -5  -5  14   66.70   15.14
  -5  -5  14   79.05   13.24
  -5  -5  14   67.09   17.33
  -5   5  14   77.51   16.58
   5  -6 -14    0.29    1.09
   6   5 -14   -0.68    2.86
   6   5 -14    2.49    1.26
   6   5 -14   -0.49    1.85
   5  -6 -14    0.57    0.76
   6   5 -14    3.60    1.30
  -5   6  14    0.29    1.44
  -6  -5  14   -0.23    0.83
  -6  -5  14    0.55    1.24
   6   4 -14   76.88   20.43
   4  -6 -14   71.79   14.00
   6   4 -14   67.21   16.94
   6   4 -14   62.77   18.30
   6   4 -14   66.49   16.59
  -6  -4  14   64.78   15.91
  -4   6  14   62.69   19.04
   6   3 -14   51.46   13.06
   6   3 -14   55.77   14.87
   6   3 -14   51.49   13.07
   3  -6 -14   65.48   10.91
   6   3 -14   53.02   19.70
  -6  -3  14   57.24   12.94
  -6  -3  14   55.29   12.25
  -3   6  14   56.47   14.80
  -3   6  14   53.48   13.09
   6   2 -14   62.92   11.19
   2  -6 -14   51.73   10.08
   6   2 -14   28.88   10.24
   6   2 -14   45.00   10.42
   2  -6 -14   47.20    9.19
  -2   6  14   51.41   11.01
  -6  -2  14   34.62   10.69
  -6  -2  14   45.99   10.50
   6   1 -14   18.56    3.55
   1  -6 -14   15.08    3.28
   1  -6 -14   11.87    2.91
  -1   6 -14   12.20    3.44
   6   1 -14   12.96    3.83
  -1   6  14   19.55    4.22
  -6  -1  14   17.47    3.51
   1  -6  14   12.67    3.38
   0   6 -14   23.10    7.78
   0   6 -14   31.63    8.11
   6   0 -14   33.53    7.58
   6   0 -14   33.54    7.18
   0  -6 -14   44.91    7.85
   0  -6 -14   33.61    7.24
   0   6 -14   33.58    8.19
   0   6  14   35.96   10.40
  -6   0  14   38.17    7.03
  -1  -6 -14   14.22    3.72
   6  -1 -14   16.75    3.17
   1   6 -14   15.81    3.49
   6  -1 -14   18.61    3.50
   1   6 -14   13.54    3.36
   1   6 -14    6.63    3.59
  -1  -6  14   12.64    3.60
  -6   1  14   13.50    3.37
  -1  -6  14   19.19    4.70
   6  -2 -14   51.30    9.38
   2   6 -14   56.72   11.23
   2   6 -14   35.15   13.23
  -6   2  14   50.66    9.63
  -2  -6  14   52.17    9.85
   3   6 -14   46.00   12.37
   3   6 -14   61.52   14.53
   6  -3 -14   49.76   11.24
   6  -3 -14   69.47   12.34
   3   6 -14   66.96   13.11
   3   6 -14   47.80   12.26
  -6   3  14   47.07   12.02
  -3  -6  14   57.04   12.48
  -3  -6  14   41.55   13.29
   4   6 -14   75.97   16.22
   6  -4 -14   57.98   13.16
   4   6 -14   70.56   15.25
   4   6 -14   72.94   16.40
   4   6 -14   64.93   16.15
  -4  -6  14   72.01   12.99
  -4  -6  14   70.07   15.34
  -6   4  14   71.31   14.80
  -4  -6  14   68.87   15.67
   5   6 -14    0.48    2.01
   5   6 -14   -2.13    1.71
   5   6 -14   -1.78    1.29
   6  -5 -14    0.30    1.17
   6  -5 -14   -0.23    0.98
   5   6 -14    1.74    1.04
  -6   5  14    0.63    1.50
  -5  -6  14    0.24    1.25
  -5  -6  14    0.68    1.03
  -5  -6  14    2.24    0.83
   6   6 -14   23.50    6.11
   6   6 -14   29.83    7.03
   6  -6 -14   21.31    4.40
   6   6 -14   20.76    5.65
   6  -6 -14   17.52    4.10
   6   6 -14   14.48    6.32
  -6   6  14   16.46    4.87
  -6  -6  14   17.05    4.23
  -6  -6  14   20.55    3.80
  -6  -6  14   22.07    5.07
   6  -7 -14    2.53    1.71
   7   6 -14    6.57    5.15
   7   6 -14    2.02    3.07
   6  -7 -14    7.18    1.53
   7   6 -14    3.28    1.92
  -6   7  14    1.57    2.12
  -7  -6  14    1.92    1.18
   7   5 -14   36.91   10.49
   7   5 -14   28.08   16.30
   7   5 -14   39.51   11.92
   5  -7 -14   48.38    8.63
  -5   7  14   47.54   11.00
  -7  -5  14   52.12    8.29
  -7  -5  14   44.97   11.28
   7   4 -14    6.07    2.30
   4  -7 -14    5.32    1.73
   7   4 -14    6.42    2.48
   7   4 -14   11.91    3.40
   4  -7 -14    9.64    1.86
  -7  -4  14    6.55    1.89
  -7  -4  14    8.76    2.22
  -4   7  14    5.60    2.36
  -4   7  14    5.20    2.15
   7   3 -14   68.31   20.63
   3  -7 -14   86.29   15.86
   7   3 -14   76.09   18.51
   3  -7 -14   76.97   15.56
  -3   7  14   75.22   18.78
  -3   7  14   74.97   20.21
  -7  -3  14   67.42   17.22
   2  -7 -14   30.36    8.50
   2  -7 -14   40.61    7.52
   7   2 -14   43.62    9.84
   7   2 -14   33.84    9.09
   7   2 -14   43.26   10.06
  -2   7  14   41.96   10.59
  -2   7  14   27.09    9.80
  -7  -2  14   35.79    8.48
  -1   7 -14   97.70   20.97
   7   1 -14   92.14   22.87
   7   1 -14   76.22   20.18
  -7  -1  14  107.66   19.05
  -1   7  14   73.88   24.11
   0   7 -14   -0.74    1.08
   7   0 -14   -0.64    1.37
   7   0 -14   -2.01    1.72
   0  -7 -14    0.29    1.01
   0  -7 -14    0.89    0.82
   0   7 -14    1.15    1.05
  -7   0  14   -0.32    1.30
   0  -7  14   -1.08    0.89
   0   7  14   -0.46    1.70
   7  -1 -14  104.56   20.27
  -1  -7 -14   80.52   20.39
   7  -1 -14  107.79   21.13
  -7   1  14   86.19   18.79
  -1  -7  14   81.07   18.58
   2   7 -14   41.00    8.62
   2   7 -14   38.12    9.41
   7  -2 -14   50.02    9.25
   7  -2 -14   39.72    8.60
  -7   2  14   41.21    8.19
   3   7 -14   81.93   17.36
   7  -3 -14   76.67   16.51
   7  -3 -14   67.74   17.57
   3   7 -14   64.02   16.99
  -3  -7  14   80.94   15.95
  -7   3  14   68.81   15.95
   4   7 -14    7.33    2.35
   7  -4 -14    7.36    1.97
   4   7 -14    4.43    2.41
   7  -4 -14    6.37    2.14
  -7   4  14    4.48    2.09
  -4  -7  14    2.36    1.82
  -4  -7  14   13.23    1.76
   7  -5 -14   38.15    9.73
   5   7 -14   41.58   10.92
   5   7 -14   48.95   10.50
   7  -5 -14   34.68   10.39
  -5  -7  14   40.76    7.91
  -7   5  14   44.24    9.55
  -5  -7  14   41.74    7.89
   6   7 -14    3.05    3.51
   7  -6 -14    3.01    1.50
   7  -6 -14    3.39    1.77
   6   7 -14    7.32    2.83
  -7   6  14    3.65    2.14
  -6  -7  14    3.14    1.56
  -6  -7  14    4.04    1.20
   7  -7 -14   37.57    7.89
   7   7 -14   34.88   11.20
   7   7 -14   41.91   11.93
   7  -7 -14   30.90    8.01
  -7  -7  14   38.96    6.36
  -7   7  14   30.82    8.68
   7  -8 -14   16.39    4.10
   7  -8 -14   16.71    4.21
   8   7 -14    8.95    7.08
  -7   8  14   22.90    4.83
  -8  -7  14   18.12    3.19
   6  -8 -14    4.75    2.34
   8   6 -14    6.68    3.00
   8   6 -14    6.06    4.38
   6  -8 -14    9.37    2.15
  -6   8  14    6.76    2.96
   8   5 -14    4.74    3.57
   5  -8 -14   -0.77    0.82
   8   5 -14   -1.44    2.11
   5  -8 -14   -0.33    1.40
  -5   8  14    0.36    1.81
   4  -8 -14  164.01   33.31
   4  -8 -14  144.33   34.31
   8   3 -14   13.59    4.34
   3  -8 -14    5.99    1.89
   8   3 -14    7.17    2.81
   3  -8 -14    6.41    2.12
  -3   8  14    6.57    2.88
  -8  -3  14    6.30    2.76
  -3   8  14   10.55    2.71
   8   2 -14   61.29   14.48
   8   2 -14   40.43   16.78
   2  -8 -14   60.93   12.06
   8   2 -14   59.75   18.04
   2  -8 -14   66.12   13.71
  -2   8  14   62.13   17.23
  -8  -2  14   61.01   15.21
  -2   8  14   57.78   16.04
   8   1 -14    2.43    1.61
   1  -8 -14   -0.28    1.23
   8   1 -14    1.18    1.54
  -1   8 -14    0.27    1.35
   1  -8 -14    3.75    1.09
  -1   8 -14    2.75    1.38
  -1   8  14    4.64    2.05
   1  -8  14    2.04    1.18
  -8  -1  14    1.15    1.76
   0   8 -14   82.28   17.15
   0  -8 -14   65.57   14.42
   8   0 -14   81.54   17.76
   0   8 -14   82.77   17.52
   8   0 -14   69.01   19.69
  -8   0  14   83.40   16.15
   0   8  14   78.36   24.33
  -1  -8 -14    2.24    1.22
   1   8 -14    0.74    1.44
   8  -1 -14    3.43    1.78
   1   8 -14    1.74    1.43
   8  -1 -14    2.79    1.77
  -1  -8  14    2.03    0.98
  -8   1  14    1.18    1.61
   2   8 -14   46.31   13.61
   8  -2 -14   74.50   15.36
   2   8 -14   72.19   14.80
   8  -2 -14   66.82   15.23
  -8   2  14   73.31   13.55
  -2  -8  14   76.18   12.64
   3   8 -14    5.37    2.64
   8  -3 -14   11.76    2.76
   3   8 -14   10.51    2.55
   8  -3 -14   12.87    2.62
  -8   3  14    8.35    2.73
  -3  -8  14    8.43    2.09
  -3  -8  14   10.23    2.15
   8  -4 -14  166.65   41.56
  -4  -8  14  168.65   32.88
   5   8 -14   -0.53    2.08
   5   8 -14    0.50    2.43
   8  -5 -14   -1.37    1.57
   8  -5 -14    1.46    1.70
  -8   5  14    0.44    2.13
  -5  -8  14    0.46    0.83
  -5  -8  14   -0.26    1.23
   8  -6 -14    3.60    2.65
   6   8 -14    9.80    3.58
   6   8 -14    6.82    4.31
   8  -6 -14   13.53    2.40
  -6  -8  14    6.16    2.22
  -8   6  14    3.44    2.90
  -6  -8  14    7.64    1.75
   8  -7 -14   15.24    4.32
   8  -7 -14   18.39    4.40
   7   8 -14   14.78    6.84
   7   8 -14   13.51    6.58
  -8   7  14   12.60    4.62
  -7  -8  14   13.94    2.98
   8  -8 -14    9.86    2.58
   8   8 -14    1.03    5.17
   8   8 -14   13.30    6.77
   8  -8 -14    8.82    2.80
  -8  -8  14    7.68    1.99
  -8   8  14   10.69    3.29
   8  -9 -14    0.59    2.36
  -8   9  14    5.93    2.99
   9   7 -14    1.20    4.85
   7  -9 -14   -0.26    1.09
   7  -9 -14   -2.07    2.06
  -7   9  14    0.54    2.67
   6  -9 -14   22.68    5.93
   9   6 -14   25.57    8.55
   9   6 -14   19.86   10.76
   6  -9 -14   27.30    5.88
  -6   9  14   30.72    7.69
   5  -9 -14   30.53    6.29
   5  -9 -14   24.84    6.24
  -5   9  14   24.98    7.39
  -5   9  14   36.22    8.52
   4  -9 -14    3.95    1.69
   4  -9 -14    5.31    1.89
  -4   9  14    7.63    2.57
  -4   9  14    6.65    2.52
   3  -9 -14  110.33   21.15
  -3   9  14  118.70   28.45
  -3   9  14  104.10   26.17
  -2   9 -14   -0.59    1.26
   2  -9 -14    0.29    1.10
   2  -9 -14   -0.40    0.79
  -2   9  14    1.25    1.50
  -2   9  14   -1.71    1.96
   1  -9 -14   45.29    8.62
  -1   9 -14   35.23   10.48
   1  -9 -14   48.28    8.88
  -1   9 -14   47.87    9.83
  -1   9  14   44.96   12.17
  -1   9  14   36.56   12.34
   1  -9  14   39.81    9.45
   0   9 -14   -0.89    1.59
   9   0 -14   -0.48    1.94
   0   9 -14   -2.07    1.31
   0  -9 -14   -0.27    1.04
   0   9  14   -1.07    2.15
   0  -9  14    0.98    1.25
   1   9 -14   38.57    9.42
   9  -1 -14   43.29   10.84
   1   9 -14   42.77    9.93
  -1  -9 -14   42.33    9.37
   9  -2 -14    1.86    1.98
   2   9 -14    1.30    1.68
   2   9 -14    1.34    1.61
  -2  -9  14   -0.99    1.21
  -9   2  14   -2.89    2.19
   3   9 -14   92.19   22.04
   3   9 -14   79.77   23.19
  -9   3  14   92.12   22.52
   9  -4 -14    9.66    2.46
   4   9 -14    9.31    2.59
   4   9 -14    2.99    2.37
  -9   4  14    9.07    2.60
  -4  -9  14    7.17    1.67
  -4  -9  14    4.66    1.49
   5   9 -14   19.11    8.16
   5   9 -14   34.48    7.46
   9  -5 -14   25.71    7.59
  -9   5  14   23.95    7.00
  -5  -9  14   26.30    5.13
  -5  -9  14   27.63    5.67
   6   9 -14   22.60    9.60
   6   9 -14   34.92    8.63
  -9   6  14   30.73    6.90
  -6  -9  14   25.57    4.77
  -6  -9  14   32.79    5.62
   7   9 -14    5.71    4.21
  -7  -9  14   -0.38    1.76
   9  -8 -14    0.34    1.75
  -8  -9  14    0.85    1.12
   9   9 -14    1.29    5.16
   9  -9 -14    3.56    1.90
   9 -10 -14    7.82    2.45
   6 -10 -14    4.94    2.22
   6 -10 -14    5.55    1.39
  -6  10  14   -1.12    2.98
   5 -10 -14    7.46    1.89
   5 -10 -14    7.96    2.01
  -5  10  14    4.74    3.12
  -5  10  14    5.91    2.57
   4 -10 -14   35.16    6.51
   4 -10 -14   31.60    7.17
  -4  10  14   34.05    9.39
  -4  10  14   36.37    9.66
   3 -10 -14   13.78    2.45
   3 -10 -14    6.43    2.29
  -3  10  14   13.40    3.37
  -3  10  14    9.09    3.42
   2 -10 -14   14.71    3.41
   2 -10 -14   14.42    3.49
  -2  10  14   15.28    4.89
  -2  10  14   11.30    4.99
   2 -10  14   18.72    3.79
   1 -10 -14    1.12    0.94
   1 -10 -14    2.01    1.22
  -1  10 -14    4.49    1.54
  -1  10 -14   -1.51    1.70
  -1  10  14    0.50    2.02
  -1  10  14    3.91    1.78
   1 -10  14    0.57    1.25
   0  10 -14   -0.32    1.53
   0 -10 -14    0.63    1.47
   0  10 -14    0.45    1.47
   0 -10  14   -1.00    1.08
   1  10 -14   -0.70    1.68
  -1 -10 -14    1.23    1.34
   1  10 -14    2.63    1.76
  -1 -10  14    2.19    1.12
   2  10 -14   20.07    4.42
   2  10 -14   14.46    4.51
  -2 -10  14   17.26    3.46
   3  10 -14    4.29    2.86
   3  10 -14   14.12    3.18
  -3 -10  14    6.60    2.15
  -3 -10  14    9.62    2.11
   4  10 -14   23.71    9.37
  -4 -10  14   33.92    6.47
   6  10 -14    5.70    4.34
  -6 -10  14    2.66    1.18
   8  10 -14    4.55    7.45
   8  10 -14    1.24    5.00
  -8 -10  14    2.15    1.21
   9  10 -14   11.43    6.43
   9 -11 -14    7.15    2.17
   8 -11 -14   -0.90    1.35
   7 -11 -14    0.60    2.21
  -7  11  14    4.63    3.70
   6 -11 -14    3.92    1.36
   6 -11 -14    2.54    2.20
   5 -11 -14   11.93    2.53
   5 -11 -14   10.99    2.77
   4 -11 -14    2.45    1.11
   4 -11 -14   -1.05    1.53
   3 -11 -14    3.75    1.13
  -2  11 -14    0.66    1.67
  -1  11 -14    5.81    2.20
   2  11 -14    0.39    1.92
  -2 -11  14    2.45    1.23
   3  11 -14    1.74    2.11
  -3 -11  14    1.31    1.28
   4  11 -14    3.09    2.59
   4  11 -14    0.62    2.27
  -4 -11  14    1.34    1.08
  -4 -11  14    2.06    1.44
   5  11 -14    7.96    4.15
   5  11 -14    6.90    4.47
  -5 -11  14    5.80    2.04
  -5 -11  14    9.75    2.57
   6  11 -14    6.01    4.39
   6  11 -14    1.76    3.84
  -6 -11  14    2.19    1.14
  -6 -11  14    0.68    1.64
   7  11 -14    1.16    4.61
   7  11 -14   -3.48    5.68
  -7 -11  14   -0.26    0.89
  -7 -11  14   -0.41    2.00
   8  11 -14   -1.37    5.46
   8  11 -14   -6.23    6.95
  -8 -11  14   -1.26    1.07
  -8 -11  14    0.95    2.22
   9  11 -14    4.56    7.03
  -1  12 -14    3.38    2.01
  -1  12 -14    0.71    1.66
   1 -12  14    0.59    1.29
   0  12 -14    0.54    1.61
   0  12 -14   -1.11    1.74
   0 -12  14   -0.28    1.22
   1  12 -14    3.10    2.09
   1  12 -14    1.58    1.73
  -1 -12  14    2.60    1.24
   3  12 -14    3.01    2.28
   3  12 -14    0.61    2.18
  -3 -12  14    1.79    1.54
  -3 -12  14    0.50    1.06
   4  12 -14    6.13    2.83
   4  12 -14    1.49    2.99
  -4 -12  14    0.82    1.16
  -4 -12  14    0.61    1.42
   5  12 -14    4.89    2.93
   5  12 -14    2.35    3.23
  -5 -12  14    0.64    1.63
  -5 -12  14    0.26    1.00
   6  12 -14    5.77    4.77
   6  12 -14   -6.37    4.71
  -6 -12  14    9.51    2.31
  -6 -12  14    7.28    1.71
   7  12 -14   -2.43    5.63
   7  12 -14   -9.49    4.95
  -7 -12  14   -0.42    2.00
  -7 -12  14    0.80    1.00
   8  12 -14    4.81    7.71
   8  12 -14    2.74    6.13
  -8 -12  14    2.76    2.56
  -8 -12  14    9.00    1.84
  -2  13 -14    1.25    1.92
   2 -13  14   -0.32    1.22
  -1  13 -14   -2.42    2.04
   1 -13  14   -1.26    1.28
   0  13 -14   -0.59    2.08
   0  13 -14   -3.14    2.19
   0 -13  14   -2.60    1.39
   1  13 -14   -1.14    2.05
   1  13 -14    0.89    2.38
  -1 -13  14    0.80    1.16
   2  13 -14   -0.44    2.14
   2  13 -14    1.79    2.45
  -2 -13  14    2.71    1.36
  -2 -13  14    0.93    1.51
   3  13 -14    0.51    2.56
   3  13 -14   -1.91    2.71
  -3 -13  14    0.28    1.10
  -3 -13  14    4.06    1.69
   4  13 -14  -10.40    3.32
   4  13 -14    0.61    2.75
  -4 -13  14    3.21    1.28
  -4 -13  14    4.48    1.59
   5  13 -14    5.37    4.13
   5  13 -14    0.75    3.91
  -5 -13  14    4.85    2.00
  -5 -13  14    7.52    1.66
   6  13 -14    1.11    7.72
   6  13 -14   10.09    7.19
  -6 -13  14   15.92    3.10
  -6 -13  14   21.17    3.87
   7  13 -14    1.25    5.26
   7  13 -14    5.06    6.36
  -7 -13  14   -4.02    1.97
  -7 -13  14    2.46    1.05
   8  13 -14    1.67    8.10
   8  13 -14    9.95    7.76
  -8 -13  14    9.10    1.93
  -8 -13  14    4.49    2.89
   9  13 -14   -8.36    8.04
  -9 -13  14    2.23    3.28
  -9 -13  14    9.18    1.76
  -2  14 -14    8.83    2.91
  -2  14 -14    5.45    2.63
   2 -14  14    4.99    2.14
  -1  14 -14    0.65    2.11
  -1  14 -14   -2.44    2.09
   1 -14  14    0.65    1.19
   0  14 -14   10.64    3.82
   0 -14  14    9.53    2.54
   1  14 -14   -0.63    2.40
  -1 -14  14    1.56    1.37
   2  14 -14    4.66    3.25
   2  14 -14    5.41    3.05
  -2 -14  14    8.58    2.28
  -2 -14  14    8.53    2.01
   3  14 -14    4.26    2.70
   3  14 -14   -0.73    2.68
  -3 -14  14    0.97    1.54
  -3 -14  14    1.51    1.13
   4  14 -14    9.78    4.90
   4  14 -14    7.29    5.32
  -4 -14  14   12.61    3.08
  -4 -14  14   14.33    2.87
   6  14 -14    2.21    5.69
   6  14 -14   -1.15    4.55
  -6 -14  14    2.12    2.10
  -6 -14  14    6.37    1.39
   7  14 -14    4.13    7.15
   7  14 -14   -3.95    7.47
  -7 -14  14   13.18    2.19
  -7 -14  14   11.50    3.62
   8  14 -14    6.94    7.40
   8  14 -14   -1.59    6.67
  -8 -14  14    1.46    2.43
  -8 -14  14    4.30    1.44
   9  14 -14   -1.91    8.47
  -9 -14  14    0.93    1.00
  -9 -14  14   -4.06    2.72
  -2  15 -14   -2.19    2.27
  -2  15 -14    0.43    2.19
   2 -15  14    0.69    1.36
   2  15 -14   -3.73    2.99
  -2 -15  14   -0.35    1.35
   3  15 -14    2.38    3.43
   3  15 -14    1.66    3.91
  -3 -15  14    7.85    1.96
  -3 -15  14    4.27    1.71
   4  15 -14   -5.30    4.12
   4  15 -14    1.47    3.65
  -4 -15  14    0.72    1.67
  -4 -15  14   -0.31    1.28
   5  15 -14   -2.66    4.17
   5  15 -14   -3.45    4.48
  -5 -15  14    1.51    1.67
  -5 -15  14    0.95    1.24
   6  15 -14   10.35    6.52
   6  15 -14    7.45    7.03
  -6 -15  14   12.88    2.31
  -6 -15  14    7.45    2.93
   7  15 -14   -1.36    6.12
   7  15 -14    1.56    6.25
  -7 -15  14    1.39    1.83
  -7 -15  14   -0.29    1.08
   8  15 -14   -5.15    7.46
   8  15 -14  -12.76   10.46
  -8 -15  14   -0.51    2.74
  -8 -15  14   -0.33    1.39
   9  15 -14    8.22    9.08
  -9 -15  14    1.61    1.04
  -9 -15  14   -0.59    2.67
  -2  16 -14   10.86    4.24
  -2  16 -14    7.67    4.35
   2 -16  14   16.51    3.48
  -1  16 -14    5.14    2.53
  -1  16 -14    0.78    2.32
   1 -16  14   -0.37    1.76
   0  16 -14   19.22    5.80
   0  16 -14   17.30    6.13
   0 -16  14   23.38    6.06
   0 -16  14   26.11    4.47
   1  16 -14    1.58    2.79
   1  16 -14    3.66    2.74
  -1 -16  14   -0.75    1.68
  -1 -16  14   -0.67    1.34
   2  16 -14   19.45    5.55
  -2 -16  14   18.05    3.60
  -2 -16  14   10.47    3.31
   3  16 -14    1.82    3.46
  -3 -16  14    1.48    1.70
   4  16 -14    7.16    4.74
   4  16 -14    4.86    5.43
  -4 -16  14    6.54    2.64
  -4 -16  14   12.35    2.39
   5  16 -14   -1.14    4.39
   5  16 -14    4.67    4.86
  -5 -16  14    0.41    1.92
  -5 -16  14    2.52    1.43
   7  16 -14   -2.82    6.50
   7  16 -14    4.77    6.34
  -7 -16  14    1.50    2.47
  -7 -16  14    0.91    1.10
   8  16 -14   11.52    9.10
   8  16 -14   -5.50    7.46
  -8 -16  14   -0.33    1.10
  -8 -16  14   -0.52    2.30
   9  16 -14    4.00    8.38
  -9 -16  14   -0.54    2.55
  -9 -16  14    1.96    1.22
  -1  17 -14   19.25    5.43
   1 -17  14   14.64    3.73
   0  17 -14   -0.84    2.94
   0  17 -14   -4.28    2.94
   0 -17  14   -3.78    1.99
   0 -17  14    0.41    2.33
   1  17 -14   22.86    5.17
   1  17 -14    6.15    5.42
   3  17 -14   -5.95    4.75
  -3 -17  14    2.08    1.48
   4  17 -14   -1.10    4.65
  -4 -17  14    2.76    1.82
   5  17 -14    2.46    5.48
   5  17 -14   -6.12    5.26
  -5 -17  14    0.41    1.90
   6  17 -14   -1.23    5.76
   6  17 -14    3.21    7.00
  -6 -17  14   -0.31    1.18
  -6 -17  14    1.79    2.24
   7  17 -14   -1.75    7.03
  -7 -17  14    3.90    2.38
  -2  18 -14    2.54    2.79
  -2  18 -14    1.65    2.87
   2 -18  14    7.03    1.92
  -1  18 -14    2.07    2.84
  -1  18 -14    1.93    3.09
   1 -18  14    0.86    1.73
   1 -18  14    0.78    1.63
   0  18 -14   13.96    4.85
   0  18 -14    8.88    3.82
   0 -18  14    5.98    2.50
   0 -18  14   13.25    3.08
   1  18 -14   -0.60    2.97
   1  18 -14    5.81    3.67
  -1 -18  14    1.42    1.57
  -1 -18  14    6.37    1.87
   2  18 -14    6.89    4.05
   2  18 -14    0.65    3.37
  -2 -18  14    8.16    2.11
  -2 -18  14    5.03    2.00
   3  18 -14    1.12    4.25
  -3 -18  14    2.97    2.17
   4  18 -14    6.41    5.04
  -4 -18  14   -1.28    2.25
   0   0 -15    0.23    0.76
   0   0 -15    0.29    1.17
   0   0  15   -0.41    1.90
   1   0 -15  200.26   38.61
   0   1 -15  197.48   43.83
   0  -1 -15  197.14   44.12
   1   0 -15  197.43   44.17
   1   0 -15  214.01   42.00
   0  -1  15  144.05   59.25
  -1   0  15  180.51   48.49
   1   1 -15   -0.20    0.81
   1   1 -15   -0.26    0.88
   1  -1 -15    0.89    0.67
   1  -1 -15    0.10    0.50
   1  -1 -15    0.27    1.03
  -1   1  15   -0.32    1.54
  -1  -1  15   -0.65    1.58
   1  -2 -15    0.83    1.01
   2   1 -15   -0.48    0.74
   2   1 -15    0.53    0.63
   2   1 -15    0.26    0.97
   1  -2 -15   -0.10    0.54
  -2  -1  15    1.59    1.50
  -2  -1  15    0.43    0.48
   0  -2 -15   -0.64    1.00
   2   0 -15    0.77    0.90
   0   2 -15    0.17    0.67
   2   0 -15   -0.35    0.64
   2   0 -15    0.35    0.62
   0   2 -15   -0.84    0.93
  -2   0  15   -0.64    1.38
   0  -2  15   -0.87    1.54
   2  -1 -15    0.17    0.67
   2  -1 -15    0.48    0.56
   1   2 -15   -0.21    0.78
   1   2 -15    0.31    0.70
   2  -1 -15   -0.26    0.83
   1   2 -15    0.25    0.91
  -2   1  15    0.98    1.21
  -1  -2  15    0.35    1.32
   2   2 -15    0.95    0.80
   2  -2 -15   -0.28    1.03
   2   2 -15    0.74    0.97
   2   2 -15    0.18    0.60
  -2  -2  15    0.29    1.21
   3   2 -15    0.73    0.86
   2  -3 -15    1.09    0.98
   3   2 -15    0.71    0.72
   3   2 -15   -0.40    1.03
   2  -3 -15   -0.17    0.63
  -3  -2  15    1.85    1.28
  -3  -2  15   -0.55    0.86
  -2   3  15    0.35    1.49
   3   1 -15   46.91   12.59
   3   1 -15   54.45   11.24
   1  -3 -15   48.24    9.94
   1  -3 -15   52.99   11.46
  -1   3  15   51.86   13.70
   3   0 -15   -0.54    0.75
   3   0 -15    0.53    0.61
   0   3 -15    0.39    0.74
   0   3 -15    0.83    1.00
   3   0 -15    1.27    1.03
   0  -3 -15    0.21    0.72
   3   0 -15   -0.19    0.74
   0  -3 -15   -0.32    1.19
  -3   0  15    0.32    0.47
  -3   0  15    0.29    1.26
   0   3  15   -1.36    1.59
  -3   0  15    0.27    0.39
  -3   0  15    1.06    0.90
   1   3 -15   48.67   12.64
   1   3 -15   51.25   12.08
   3  -1 -15   55.30   10.88
   1   3 -15   49.88   11.19
   3  -1 -15   48.45   12.34
  -1  -3  15   58.93   13.71
  -3   1  15   45.40   13.36
  -3   1  15   55.31   11.00
   2   3 -15    0.78    0.81
   2   3 -15    0.38    0.68
   3  -2 -15   -0.53    1.03
   2   3 -15   -0.23    0.86
   2   3 -15   -0.18    0.83
  -2  -3  15   -0.15    0.59
  -3   2  15    0.39    0.92
  -2  -3  15    0.89    1.11
   3  -3 -15    0.18    0.68
   3   3 -15    0.25    0.88
   3  -3 -15    0.27    1.06
   3   3 -15   -1.11    0.76
   3   3 -15   -0.23    1.16
   3   3 -15    0.22    0.83
  -3  -3  15    1.03    1.17
  -3   3  15    0.31    1.48
  -3   3  15   -0.21    0.95
  -3  -3  15    1.48    0.81
  -3  -3  15    0.47    0.71
   4   3 -15   24.79    5.76
   4   3 -15   27.13    5.98
   4   3 -15   26.29    5.27
   3  -4 -15   17.62    5.70
   4   3 -15   27.41    5.37
   3  -4 -15   23.76    4.81
  -3   4  15   31.40    6.50
  -4  -3  15   19.58    5.27
  -4  -3  15   28.86    5.28
  -4  -3  15   22.80    5.21
  -3   4  15   20.06    6.20
  -4  -3  15   16.59    5.04
   4   2 -15   65.94   15.56
   4   2 -15   65.62   16.35
   2  -4 -15   80.26   14.88
   2  -4 -15   65.92   16.66
   4   2 -15   71.51   17.89
  -4  -2  15   66.43   16.18
  -2   4  15   84.84   20.25
  -4  -2  15   79.15   16.43
  -4  -2  15   74.02   16.10
   4   1 -15   15.82    3.21
   4   1 -15   16.32    3.52
   1  -4 -15   19.04    3.51
   4   1 -15   17.87    3.44
   1  -4 -15   15.55    2.90
  -4  -1  15   12.04    3.29
  -4  -1  15   13.85    3.43
  -4  -1  15   15.30    3.37
  -1   4  15   16.18    4.09
   0  -4 -15    0.32    1.18
   0   4 -15    0.41    0.81
   4   0 -15    0.25    0.97
   4   0 -15   -0.50    1.38
   0   4 -15   -0.27    1.02
   0  -4 -15    0.42    0.65
   4   0 -15   -0.38    0.69
   0   4  15    0.47    1.63
  -4   0  15    1.47    0.92
  -4   0  15   -0.84    0.64
  -4   0  15   -0.39    0.52
   1   4 -15   16.30    3.43
   1   4 -15   14.22    3.84
   1   4 -15   13.33    3.76
   1   4 -15   10.61    3.22
   4  -1 -15   10.95    3.30
   4  -1 -15   11.06    3.02
  -4   1  15   12.38    3.41
  -1  -4  15   13.01    3.37
  -1  -4  15   15.72    4.44
   2   4 -15   76.61   16.22
   2   4 -15   62.35   16.09
   4  -2 -15   74.46   15.47
   2   4 -15   60.17   18.28
  -2  -4  15   80.89   15.52
  -2  -4  15   68.77   19.52
  -4   2  15   81.93   16.51
   3   4 -15   25.82    5.87
   4  -3 -15   23.14    5.27
   4  -3 -15   30.17    4.95
   3   4 -15   22.45    5.58
   3   4 -15   22.65    5.74
   3   4 -15   27.93    5.54
  -4   3  15   20.00    5.84
  -3  -4  15   18.67    5.73
  -3  -4  15   22.83    5.20
  -4   3  15   16.76    5.99
  -3  -4  15   21.95    5.28
   4   4 -15   -0.91    0.90
   4  -4 -15   -0.27    1.04
   4   4 -15    0.29    1.33
   4   4 -15   -0.29    1.07
   4   4 -15   -0.21    0.86
   4  -4 -15    0.39    0.84
  -4  -4  15   -0.94    0.91
  -4  -4  15   -0.72    0.87
  -4  -4  15   -0.17    0.71
  -4   4  15   -0.32    1.33
  -4   4  15   -0.26    1.18
  -4  -4  15    0.25    1.06
   5   4 -15   31.20    7.40
   4  -5 -15   29.02    6.58
   5   4 -15   21.12    7.18
   5   4 -15   32.71    7.66
   5   4 -15   34.15    7.02
   4  -5 -15   31.82    5.89
  -5  -4  15   29.88    5.77
  -5  -4  15   28.69    6.78
  -5  -4  15   27.46    5.88
  -4   5  15   25.49    7.43
  -4   5  15   28.30    7.56
   5   3 -15   17.83    3.92
   5   3 -15   14.54    3.40
   3  -5 -15   13.60    3.38
   5   3 -15   11.29    3.46
   5   3 -15   17.35    3.01
   3  -5 -15   15.46    2.91
  -3   5  15   14.36    3.55
  -3   5  15   12.53    4.01
  -5  -3  15   11.22    2.87
  -5  -3  15   11.95    3.11
  -5  -3  15    9.96    3.35
   5   2 -15   35.54    6.70
   5   2 -15   28.78    6.50
   5   2 -15   30.74    8.54
   2  -5 -15   23.99    5.74
   2  -5 -15   28.43    6.24
   5   2 -15   35.45    6.28
  -5  -2  15   25.45    6.19
  -2   5  15   26.16    7.34
  -5  -2  15   28.97    6.08
  -2   5  15   25.62    8.53
  -5  -2  15   26.51    6.39
   5   1 -15   37.57    8.39
   5   1 -15   34.23    8.25
  -1   5 -15   37.07    8.77
   1  -5 -15   38.61    8.39
  -1   5  15   32.09    9.90
  -5  -1  15   38.79    7.78
   0  -5 -15   13.47    4.44
   0   5 -15   21.45    4.25
   0   5 -15   14.94    5.08
   0  -5 -15   17.29    4.09
   5   0 -15   19.19    4.28
   5   0 -15   18.01    4.64
   0   5 -15   19.63    4.72
   0  -5  15   19.44    4.40
   0   5  15   20.25    6.08
  -5   0  15   22.02    4.11
   5  -1 -15   35.94    8.08
   1   5 -15   37.11   10.56
   1   5 -15   30.83    8.60
   1   5 -15   37.52    8.25
   5  -1 -15   39.62    8.54
   1   5 -15   44.02    8.84
  -1  -5  15   41.60   10.54
  -5   1  15   37.83    8.45
  -1  -5  15   44.54    8.34
   2   5 -15   25.58    6.97
   2   5 -15   23.50    7.22
   2   5 -15   30.38    6.83
   5  -2 -15   33.62    6.68
   2   5 -15   30.60    6.52
  -2  -5  15   29.63    6.53
  -2  -5  15   29.33    6.89
  -5   2  15   28.82    6.88
  -2  -5  15   30.24    6.16
   3   5 -15   12.63    3.68
   3   5 -15    9.67    3.48
   3   5 -15   15.08    3.38
   5  -3 -15   13.11    3.37
   3   5 -15   13.75    3.51
   5  -3 -15   13.63    2.77
  -3  -5  15   15.99    3.16
  -3  -5  15   15.61    3.38
  -3  -5  15   10.68    3.15
  -5   3  15   10.82    3.59
   4   5 -15   30.78    7.28
   5  -4 -15   25.13    6.92
   4   5 -15   26.69    7.13
   5  -4 -15   28.32    5.68
   4   5 -15   23.21    7.35
   4   5 -15   26.49    7.61
  -4  -5  15   30.44    5.66
  -4  -5  15   30.82    6.24
  -4  -5  15   27.61    7.01
  -5   4  15   27.57    7.30
  -4  -5  15   29.92    7.16
   5   5 -15   -1.20    1.07
   5   5 -15   -0.50    0.91
   5  -5 -15   -0.62    1.18
   5  -5 -15   -0.22    0.89
   5   5 -15    1.49    1.56
   5   5 -15    0.45    2.14
  -5  -5  15    0.90    1.05
  -5   5  15   -1.38    1.31
  -5  -5  15    0.43    1.04
  -5  -5  15    0.60    0.83
   5  -6 -15   55.50   11.56
   6   5 -15   47.32   16.48
   6   5 -15   51.16   15.40
   6   5 -15   54.77   13.88
   6   5 -15   52.19   14.02
   5  -6 -15   57.03   11.25
  -6  -5  15   60.96   13.49
  -5   6  15   61.28   12.99
   4  -6 -15   46.12    8.84
   4  -6 -15   48.11    9.37
   6   4 -15   31.45   12.26
   6   4 -15   38.82   11.18
   6   4 -15   37.60   13.78
  -6  -4  15   46.85    9.01
  -6  -4  15   43.43   10.70
  -4   6  15   51.07   11.92
  -4   6  15   48.08   10.97
   6   3 -15   26.31    7.44
   6   3 -15   23.32    9.42
   3  -6 -15   30.51    5.69
   6   3 -15   27.40    7.38
   6   3 -15   27.76    6.41
   3  -6 -15   31.10    6.14
  -3   6  15   28.30    6.92
  -6  -3  15   29.77    6.45
  -6  -3  15   31.66    6.85
  -6  -3  15   25.92    5.74
  -3   6  15   28.74    7.67
   6   2 -15   74.32   14.83
   6   2 -15   72.40   15.37
   6   2 -15   72.71   25.51
  -2   6  15   77.46   18.78
  -6  -2  15   61.61   16.19
  -6  -2  15   56.21   15.42
   1  -6 -15   11.89    5.19
   6   1 -15   23.98    5.50
   1  -6 -15   18.54    5.05
   6   1 -15   24.79    5.43
  -1   6 -15   24.95    5.62
  -6  -1  15   23.83    5.39
  -1   6  15   26.69    7.07
   6   0 -15    0.95    0.96
   0   6 -15   -0.41    1.25
   0   6 -15   -1.02    0.99
   6   0 -15   -2.14    1.11
   0   6 -15    0.24    1.11
   0  -6 -15   -0.44    0.78
   0  -6 -15    0.31    1.14
  -6   0  15    0.51    1.27
   0  -6  15    0.21    0.81
   0   6  15   -0.94    1.67
   6  -1 -15   23.07    6.18
   6  -1 -15   28.68    5.26
   1   6 -15   25.29    5.48
   1   6 -15   27.90    5.83
   1   6 -15   26.21    6.12
  -1  -6  15   23.95    5.45
  -6   1  15   25.12    5.25
   2   6 -15   74.60   15.42
   6  -2 -15   75.86   14.47
   2   6 -15   68.73   16.22
   6  -2 -15   71.96   16.58
   2   6 -15   72.79   16.45
   2   6 -15   80.87   19.86
  -2  -6  15   64.68   18.13
  -2  -6  15   72.63   15.65
  -2  -6  15   72.04   15.15
  -6   2  15   62.04   14.33
   3   6 -15   33.05    6.53
   6  -3 -15   27.83    6.30
   3   6 -15   29.73    7.00
   6  -3 -15   24.51    6.83
   3   6 -15   26.87    6.78
   3   6 -15   31.77    7.55
  -3  -6  15   28.00    6.88
  -3  -6  15   27.53    6.95
  -3  -6  15   21.56    6.02
  -6   3  15   30.18    6.14
   4   6 -15   44.03   10.16
   6  -4 -15   41.86    9.23
   6  -4 -15   34.23   10.31
   4   6 -15   35.86   10.91
   4   6 -15   46.45   10.56
  -6   4  15   44.16    9.55
  -4  -6  15   38.57    8.94
  -4  -6  15   46.81    9.99
  -4  -6  15   41.01    8.06
  -4  -6  15   48.54   10.24
   5   6 -15   60.06   14.56
   5   6 -15   60.13   13.99
   5   6 -15   44.70   14.01
   6  -5 -15   60.01   12.38
   6  -5 -15   66.55   12.63
   5   6 -15   62.72   13.70
  -5  -6  15   60.42   10.80
  -5  -6  15   53.49   13.98
  -6   5  15   54.39   12.15
  -5  -6  15   51.87   11.15
   6   6 -15    0.64    1.37
   6   6 -15    0.36    1.21
   6   6 -15   -2.05    2.11
   6  -6 -15   -1.50    1.02
   6  -6 -15   -2.38    1.51
   6   6 -15   -2.89    3.30
  -6  -6  15   -1.18    0.85
  -6  -6  15   -0.80    1.31
  -6  -6  15    0.88    1.46
  -6   6  15   -1.72    1.81
   7   6 -15   11.51    7.43
   7   6 -15   27.05    9.30
   6  -7 -15   22.62    5.13
   6  -7 -15   23.01    4.61
   7   6 -15   19.13    6.89
  -7  -6  15   27.91    6.36
  -6   7  15   28.46    5.98
  -7  -6  15   19.01    4.43
   5  -7 -15    1.44    0.90
   7   5 -15    3.22    1.59
   7   5 -15    2.26    2.50
   5  -7 -15    1.77    1.26
   7   5 -15   -2.16    4.25
   7   5 -15    2.18    1.55
  -7  -5  15    0.34    1.45
  -7  -5  15    2.98    1.16
  -5   7  15   -1.33    1.74
   7   4 -15   37.60    8.36
   4  -7 -15   26.14    6.45
   4  -7 -15   24.20    6.74
   7   4 -15   26.87    8.59
   7   4 -15   35.59    8.33
  -7  -4  15   35.82    7.29
  -4   7  15   38.84    7.96
  -4   7  15   30.42    9.09
  -7  -4  15   30.96    6.79
   7   3 -15   20.65    6.63
   7   3 -15   27.40    7.50
   3  -7 -15   24.46    5.27
   3  -7 -15   29.38    5.70
   7   3 -15   28.79    6.66
  -3   7  15   25.83    6.56
  -3   7  15   32.86    7.61
  -7  -3  15   30.63    5.91
   2  -7 -15   95.43   20.17
   7   2 -15   99.64   27.33
   2  -7 -15  110.98   22.24
  -7  -2  15  101.39   23.13
  -2   7  15   96.41   29.05
   1  -7 -15    3.03    1.34
   7   1 -15   10.23    1.98
  -1   7 -15    4.15    1.65
   7   1 -15    6.02    1.82
   1  -7 -15    6.20    1.72
   1  -7  15    3.35    1.38
  -7  -1  15    3.68    1.63
  -1   7  15    5.56    2.21
   0  -7 -15   41.96    8.60
   7   0 -15   27.92    8.43
   0  -7 -15   42.60    8.17
   0   7 -15   40.13    9.15
   7   0 -15   39.24    9.45
  -7   0  15   39.18    8.48
   0   7  15   33.62   12.03
   0  -7  15   39.96    8.48
   1   7 -15    3.79    1.58
   1   7 -15    7.48    1.81
   7  -1 -15    4.97    1.90
  -1  -7 -15    7.03    1.83
   7  -1 -15    3.29    1.62
  -7   1  15    4.27    1.94
  -1  -7  15    4.23    1.44
   2   7 -15  101.23   23.42
   7  -2 -15  104.35   25.16
  -2  -7  15  109.61   23.16
  -7   2  15  115.18   22.61
   3   7 -15   28.63    6.17
   7  -3 -15   27.49    6.37
   3   7 -15   20.53    6.26
   7  -3 -15   19.75    6.27
  -3  -7  15   18.97    5.48
  -7   3  15   29.12    6.08
  -3  -7  15   30.96    5.78
   7  -4 -15   29.63    7.61
   7  -4 -15   32.30    7.51
   4   7 -15   25.51    7.93
   4   7 -15   24.67    7.61
  -4  -7  15   30.74    5.81
  -7   4  15   28.40    7.32
  -4  -7  15   36.59    6.30
   5   7 -15    5.13    1.92
   7  -5 -15    2.15    1.79
   5   7 -15    2.02    2.47
   7  -5 -15   -0.28    1.22
  -5  -7  15    3.17    1.03
  -7   5  15    3.09    2.11
  -5  -7  15   -0.73    1.28
   6   7 -15   41.03    7.69
   7  -6 -15   22.26    5.68
   6   7 -15   23.75    7.74
   7  -6 -15   19.88    5.40
  -6  -7  15   27.20    4.96
  -6  -7  15   27.66    4.56
  -7   6  15   23.74    6.22
   7  -7 -15   -0.25    1.06
   7  -7 -15   -0.44    1.67
   7   7 -15   -0.94    4.70
   7   7 -15   -4.44    3.04
  -7   7  15   -0.87    1.78
  -7  -7  15    0.26    0.89
   8   7 -15   -6.18    3.59
   7  -8 -15   -1.86    2.14
   7  -8 -15    0.28    1.27
  -7   8  15    1.45    2.31
  -8  -7  15   -0.61    1.09
   8   6 -15    3.90    2.44
   6  -8 -15    1.78    1.71
   6  -8 -15    8.33    1.72
   8   6 -15   -1.54    3.57
  -6   8  15    3.74    2.36
   5  -8 -15   57.79   11.58
   8   5 -15   52.63   14.21
   8   5 -15   49.36   16.48
   5  -8 -15   59.68   10.59
  -5   8  15   50.84   15.39
  -5   8  15   51.22   13.80
   4  -8 -15   10.97    2.31
   4  -8 -15    9.10    2.27
   8   4 -15    8.42    4.09
   8   4 -15   11.54    3.10
  -4   8  15   13.06    3.00
  -8  -4  15   11.78    3.11
  -4   8  15   12.05    3.43
   8   3 -15   84.94   26.99
   8   3 -15  101.37   25.76
   3  -8 -15  106.95   21.65
  -8  -3  15  105.38   24.44
   2  -8 -15   11.11    2.97
   8   2 -15   18.13    3.88
  -2   8  15   15.18    3.61
  -2   8  15    7.39    4.16
   1  -8 -15   71.72   13.21
  -1   8 -15   54.21   14.47
   1  -8 -15   54.80   12.09
  -1   8 -15   61.04   13.50
   8   1 -15   71.30   14.10
   1  -8  15   67.75   13.20
  -8  -1  15   65.52   13.31
  -1   8  15   63.53   16.98
   8   0 -15    0.76    1.46
   0   8 -15    0.57    1.37
   8   0 -15    0.43    1.40
   0  -8 -15   -0.92    1.37
   0   8 -15   -0.85    1.33
   0   8  15   -1.65    1.95
  -8   0  15    1.44    1.70
   0  -8  15   -0.23    0.93
   1   8 -15   50.12   13.65
   8  -1 -15   61.20   13.84
   8  -1 -15   64.79   13.91
   1   8 -15   67.84   13.66
  -1  -8 -15   52.25   13.53
  -8   1  15   55.96   12.87
  -1  -8  15   40.54   13.05
   2   8 -15   10.49    3.20
   2   8 -15   13.89    3.19
  -8   2  15   10.33    3.29
   3   8 -15   86.71   24.69
   3   8 -15  116.14   23.02
  -3  -8  15   92.74   20.63
  -8   3  15  116.34   21.98
  -3  -8  15  102.78   22.19
   8  -4 -15    6.41    2.47
   8  -4 -15    5.33    2.85
   4   8 -15    6.69    2.85
   4   8 -15    6.81    2.89
  -4  -8  15    5.91    2.17
  -8   4  15   11.81    2.71
  -4  -8  15    8.68    2.02
   5   8 -15   49.71   14.18
   8  -5 -15   60.23   12.63
   5   8 -15   46.86   13.87
   8  -5 -15   43.83   12.04
  -5  -8  15   58.82    9.29
  -8   5  15   47.07   11.61
   6   8 -15    1.42    3.40
   8  -6 -15    2.87    1.97
   6   8 -15    7.06    2.87
   8  -6 -15    5.46    1.97
  -6  -8  15    3.77    1.32
  -6  -8  15    4.45    1.76
  -8   6  15    8.56    2.41
   8  -7 -15   -0.48    1.88
   7   8 -15    2.34    3.33
   7   8 -15    1.00    4.35
  -7  -8  15   -0.25    0.98
  -8   7  15    1.04    2.36
  -7  -8  15    2.78    1.76
   8   8 -15    0.96    4.14
   8  -9 -15    0.57    1.29
   9   7 -15    4.60    5.39
   7  -9 -15   12.62    2.81
  -7   9  15    4.99    3.34
   6  -9 -15    1.29    1.82
   9   6 -15    6.31    2.80
   6  -9 -15    2.26    1.26
   9   6 -15    6.54    4.70
  -6   9  15    7.41    2.57
   9   5 -15    8.57    4.82
   9   5 -15    8.74    3.71
   5  -9 -15    8.24    2.34
   5  -9 -15    9.65    2.52
  -5   9  15    8.86    3.12
  -5   9  15    8.15    3.13
   9   4 -15   35.23   21.96
   4  -9 -15   71.51   13.94
   9   4 -15   65.33   18.28
  -4   9  15   63.98   18.98
   3  -9 -15    0.59    1.17
   9   3 -15   -1.98    2.27
   3  -9 -15    0.82    0.92
  -3   9  15    0.35    1.66
  -3   9  15    0.42    1.84
   9   2 -15   74.38   17.23
   2  -9 -15   73.31   13.74
  -2   9  15   82.79   20.71
  -2   9  15   70.97   20.61
  -1   9 -15    3.31    1.38
   1  -9 -15    0.86    1.18
   9   1 -15    1.42    1.96
  -1   9 -15   -0.50    1.33
   1  -9 -15    1.77    0.98
  -1   9  15    4.27    2.13
   1  -9  15    0.85    1.22
   0   9 -15   12.40    3.22
   0   9 -15    9.63    3.09
   0  -9 -15   12.42    2.73
   9   0 -15   15.58    3.57
   0  -9  15   14.20    2.77
   0   9  15    6.30    4.23
  -9   0  15    9.77    3.35
   1   9 -15    2.20    1.41
   1   9 -15    0.96    1.34
   9  -1 -15    0.45    2.08
  -1  -9 -15    1.98    1.30
   9  -1 -15   -0.59    1.95
  -9   1  15    0.95    1.85
  -1  -9  15    0.26    1.13
   9  -2 -15   71.06   18.12
   2   9 -15   59.26   15.71
   2   9 -15   86.91   15.77
   9  -2 -15   60.58   17.75
  -2  -9  15   78.95   13.81
  -9   2  15   53.22   14.75
   3   9 -15   -1.80    1.70
   3   9 -15   -0.78    1.90
   9  -3 -15   -1.15    1.68
  -9   3  15   -1.81    2.00
  -3  -9  15   -0.50    1.02
  -3  -9  15   -0.51    1.12
   9  -4 -15   67.63   16.36
   4   9 -15   66.43   15.67
   4   9 -15   57.12   17.79
  -4  -9  15   70.06   12.55
  -4  -9  15   69.38   12.76
  -9   4  15   76.27   14.84
   5   9 -15    6.34    3.60
   5   9 -15    8.02    3.57
   9  -5 -15    8.25    3.08
  -5  -9  15    8.46    2.18
  -5  -9  15    9.99    1.95
  -9   5  15   13.92    3.15
   6   9 -15    6.12    3.13
  -6  -9  15    3.52    1.53
   9  -7 -15    7.98    2.41
   8   9 -15   -8.78    7.48
   9  -8 -15    1.75    1.55
  -8  -9  15   -0.93    1.04
  -9   8  15    2.73    2.45
   9   9 -15   -1.27    5.26
   9  -9 -15   -1.36    1.52
  -9   9  15   -0.75    3.14
   9 -10 -15    1.23    1.37
   8 -10 -15    1.53    1.42
   7 -10 -15    0.55    2.10
  -7  10  15   -5.50    3.31
   6 -10 -15    6.97    2.56
   6 -10 -15   11.26    2.86
  -6  10  15   13.69    4.24
  -6  10  15   14.39    3.30
   5 -10 -15   13.65    2.87
   5 -10 -15    9.63    2.42
  -5  10  15    5.88    3.41
  -5  10  15   17.21    3.78
   4 -10 -15    4.01    1.32
   4 -10 -15    2.72    1.74
  -4  10  15    2.75    2.11
  -4  10  15    9.34    2.60
   3 -10 -15   34.96    6.54
   3 -10 -15   28.66    6.65
  -3  10  15   34.26    9.09
  -3  10  15   35.04    9.77
   2 -10 -15    2.79    1.06
   2 -10 -15    3.55    1.46
  -2  10  15   -0.83    1.93
  -2  10  15    5.85    1.90
  -1  10 -15    3.28    1.95
   1 -10 -15    2.47    1.30
   1 -10 -15    2.16    1.20
  -1  10  15    2.18    2.30
   1 -10  15    2.52    1.37
  -1  10  15    0.66    1.85
   0 -10 -15    0.33    1.23
   0  10 -15    0.49    1.45
   0 -10  15    0.56    1.14
  -1 -10 -15    4.21    1.40
   1  10 -15    3.81    1.78
  -1 -10  15    2.42    1.33
   2  10 -15    2.80    1.89
  -2 -10  15    2.15    1.34
   3  10 -15   25.73    7.96
  -3 -10  15   29.82    6.17
   6  10 -15    7.59    4.79
  -6 -10  15    6.88    2.07
   7  10 -15   -6.52    5.41
   7  10 -15    1.03    4.31
  -7 -10  15    1.15    1.76
  -7 -10  15    0.78    0.87
   8  10 -15    1.19    4.60
   8  10 -15    1.48    7.06
  -8 -10  15    2.23    1.20
  -8 -10  15    2.66    2.02
   9  10 -15   -9.54    5.72
  10  -9 -15   -0.76    1.62
  10 -10 -15   -1.49    1.66
  10 -11 -15    9.69    2.90
   9 -11 -15   -0.61    1.42
   8 -11 -15   -1.40    2.55
   8 -11 -15    1.15    1.38
  -8  11  15    4.81    3.55
   6 -11 -15    6.82    2.14
  -6  11  15    4.50    2.98
  -6  11  15    4.43    2.05
   5 -11 -15    5.98    1.85
   5 -11 -15   13.03    2.06
  -5  11  15    6.08    2.66
  -5  11  15    9.07    3.32
   4 -11 -15    7.80    1.97
   4 -11 -15    6.90    2.00
   3 -11 -15    3.98    1.57
   3 -11 -15    3.01    1.19
   2 -11 -15    1.03    1.15
  -2  11 -15    2.05    1.66
   2 -11 -15   -0.30    1.27
   2 -11  15    0.58    1.04
  -1  11 -15    2.89    2.08
  -1  11 -15    3.91    2.10
   1 -11  15    8.02    1.73
   0  11 -15    9.42    2.82
   1  11 -15    4.39    2.08
   2  11 -15   -0.40    1.70
   3  11 -15   -1.57    2.03
   3  11 -15    2.21    2.38
  -3 -11  15    2.10    1.16
  -3 -11  15    0.84    1.34
   4  11 -15    6.35    3.17
   4  11 -15    0.64    3.05
  -4 -11  15    7.07    1.97
  -4 -11  15    6.44    1.79
   5  11 -15   -0.61    3.32
   5  11 -15    6.78    3.16
  -5 -11  15    5.26    1.71
  -5 -11  15    2.46    1.58
   6  11 -15   -5.73    3.87
   6  11 -15    0.84    3.37
  -6 -11  15    3.55    1.32
  -6 -11  15    1.37    1.66
   7  11 -15    1.02    3.77
   7  11 -15   -2.22    5.32
  -7 -11  15    3.84    1.84
  -7 -11  15   -0.27    0.99
   8  11 -15   -4.92    4.96
   8  11 -15   -1.52    7.06
  -8 -11  15    2.97    1.28
  -8 -11  15    2.59    1.98
   9  11 -15    1.55    6.41
  -9 -11  15    2.55    1.14
  -2  12 -15    1.86    2.07
   2 -12  15    2.46    1.47
  -1  12 -15   -0.36    1.73
  -1  12 -15   -1.22    1.90
   1 -12  15    2.24    1.50
   0  12 -15    2.60    1.96
   0  12 -15   -2.21    2.12
   0 -12  15    1.16    1.32
   1  12 -15    0.40    2.16
   1  12 -15    1.12    1.96
  -1 -12  15    0.60    1.29
   2  12 -15   10.16    2.64
   2  12 -15    0.84    2.01
  -2 -12  15    4.07    1.40
  -2 -12  15    2.38    1.57
   3  12 -15    0.60    2.26
   3  12 -15    0.51    2.53
  -3 -12  15    0.27    0.99
  -3 -12  15   -2.35    1.45
   4  12 -15   -3.94    2.73
   4  12 -15   -2.19    2.84
  -4 -12  15    0.93    1.47
  -4 -12  15   -0.87    1.19
   5  12 -15   -4.87    3.56
   5  12 -15    3.52    3.53
  -5 -12  15    2.14    1.08
  -5 -12  15    5.03    1.72
   6  12 -15   -3.51    4.42
   6  12 -15   -5.92    4.05
  -6 -12  15    1.13    0.88
  -6 -12  15    0.36    1.63
   7  12 -15    2.32    5.51
   7  12 -15  -10.08    4.13
  -7 -12  15    1.09    0.98
  -7 -12  15    3.40    1.74
   8  12 -15    1.48    6.57
   8  12 -15   -1.56    7.22
  -8 -12  15    1.15    1.04
  -8 -12  15    0.94    2.18
   9  12 -15    3.04    7.69
  -9 -12  15    6.45    1.65
  -2  13 -15    0.58    1.63
   2 -13  15    0.93    1.31
  -1  13 -15    0.80    1.90
  -1  13 -15   -0.65    1.80
   1 -13  15   -1.67    1.45
   0  13 -15    0.60    2.11
   0  13 -15    0.42    1.74
   0 -13  15    1.55    1.35
   1  13 -15   -0.61    2.18
   1  13 -15   -0.94    2.41
  -1 -13  15    0.32    1.37
   2  13 -15   -0.47    2.28
   2  13 -15    0.63    2.64
  -2 -13  15   -0.32    1.35
  -2 -13  15   -0.32    1.14
   3  13 -15   -1.32    2.73
   3  13 -15   -0.52    2.47
  -3 -13  15   -0.27    1.05
  -3 -13  15   -2.26    1.28
   4  13 -15    6.86    3.65
   4  13 -15    5.05    3.36
  -4 -13  15    8.35    1.94
  -4 -13  15    3.46    1.75
   5  13 -15   -0.74    2.93
   5  13 -15    0.91    3.26
  -5 -13  15    0.70    1.54
  -5 -13  15    0.27    0.92
   6  13 -15    3.80    4.80
   6  13 -15   -1.02    4.60
  -6 -13  15    4.74    1.55
  -6 -13  15    5.95    2.17
   7  13 -15   -1.22    6.10
   7  13 -15    1.24    7.14
  -7 -13  15   10.26    1.76
  -7 -13  15    6.06    2.55
   8  13 -15   -1.43    5.90
   8  13 -15   -8.10    7.34
  -8 -13  15    2.03    1.19
  -8 -13  15    1.84    2.14
   9  13 -15   -3.40    7.78
  -9 -13  15    1.22    1.07
  -9 -13  15    0.55    2.53
  -2  14 -15   -1.88    2.04
   2 -14  15    0.65    1.29
  -1  14 -15    4.22    2.36
   1 -14  15    1.39    1.75
   0  14 -15    0.65    2.36
   0  14 -15   -0.85    1.98
   0 -14  15   -1.66    1.43
   1  14 -15    2.25    2.51
   1  14 -15   -2.02    2.72
  -1 -14  15    3.10    1.63
  -1 -14  15    4.10    1.59
   2  14 -15    1.51    2.49
   2  14 -15    0.67    2.46
  -2 -14  15    0.60    1.14
  -2 -14  15    0.98    1.46
   3  14 -15    0.53    2.42
   3  14 -15   -0.78    3.00
  -3 -14  15   -1.23    1.16
  -3 -14  15    1.68    1.50
   5  14 -15   -6.08    4.06
   5  14 -15    4.73    4.43
  -5 -14  15    3.57    1.88
  -5 -14  15    5.41    1.45
   6  14 -15   14.37    6.09
   6  14 -15    4.23    5.51
  -6 -14  15    9.25    2.50
  -6 -14  15    7.18    1.98
   7  14 -15   -2.62    5.99
   7  14 -15    1.40    5.41
  -7 -14  15    0.28    0.98
  -7 -14  15    2.18    1.96
   8  14 -15  -13.99    6.97
   8  14 -15   -1.71    8.06
  -8 -14  15    5.17    2.47
  -8 -14  15    6.17    1.42
   9  14 -15    1.96    9.03
  -9 -14  15    4.02    2.82
  -9 -14  15    0.31    1.24
  -2  15 -15    5.31    2.60
  -2  15 -15    2.01    2.41
   2 -15  15    7.06    2.01
  -1  15 -15   -3.18    2.31
  -1  15 -15   -0.76    2.64
   1 -15  15    2.51    1.55
   0 -15  15    5.97    2.14
   1  15 -15    0.73    2.36
  -1 -15  15   -1.71    1.53
   2  15 -15    5.04    3.44
   2  15 -15    8.37    3.47
  -2 -15  15    3.43    1.89
  -2 -15  15   10.07    2.09
   3  15 -15    0.80    2.95
   3  15 -15    0.62    3.24
  -3 -15  15    0.66    1.24
  -3 -15  15   -1.75    1.57
   4  15 -15    7.17    4.22
   4  15 -15    5.22    4.29
  -4 -15  15   12.46    2.08
  -4 -15  15    1.46    2.27
   5  15 -15   10.40    5.43
   5  15 -15   -1.02    4.93
  -5 -15  15    9.10    1.95
  -5 -15  15    5.79    2.36
   6  15 -15    8.09    5.95
   6  15 -15    7.31    4.92
  -6 -15  15    2.11    1.82
   7  15 -15   -2.87    8.36
   7  15 -15    4.12    8.43
  -7 -15  15   13.75    3.79
   8  15 -15   -1.67    8.45
   8  15 -15  -17.87    9.75
  -8 -15  15    0.33    1.26
   9  15 -15    1.86    7.51
  -9 -15  15   -7.89    2.66
  -9 -15  15   -0.31    1.25
  -2  16 -15    1.76    2.21
  -2  16 -15    1.41    2.38
   2 -16  15    0.35    1.31
  -1  16 -15   17.37    4.41
  -1  16 -15    0.83    4.42
   1 -16  15   16.74    3.43
   0  16 -15   -6.88    2.57
   0  16 -15   -3.17    2.87
   0 -16  15    0.71    1.60
   1  16 -15    5.67    4.61
  -1 -16  15   19.71    3.32
   2  16 -15   -4.02    3.25
  -2 -16  15    0.32    1.45
   3  16 -15    5.72    4.13
   3  16 -15    4.48    4.43
  -3 -16  15    5.97    2.45
  -3 -16  15   15.47    2.77
   4  16 -15   -0.99    3.79
   4  16 -15    2.92    3.50
  -4 -16  15   -0.37    1.79
  -4 -16  15    0.34    1.31
   5  16 -15    1.10    4.54
   5  16 -15    0.88    4.78
  -5 -16  15   -3.17    1.94
   6  16 -15    2.40    6.13
   6  16 -15   13.06    6.63
  -6 -16  15    2.97    1.99
  -6 -16  15    0.30    1.18
   7  16 -15   -1.54    6.76
   7  16 -15    8.53    7.01
  -7 -16  15   -2.69    2.22
  -7 -16  15    0.30    1.21
   8  16 -15   -1.91    7.71
   8  16 -15    1.87    8.33
  -8 -16  15    2.04    2.21
  -8 -16  15   -2.08    1.25
   9  16 -15   -6.16    9.33
  -9 -16  15   -5.29    2.85
  -2  17 -15    8.58    3.38
   2 -17  15    6.27    2.27
  -1  17 -15    0.55    2.76
  -1  17 -15    1.79    2.65
   1 -17  15   -1.12    1.75
   0  17 -15    0.87    4.86
   0  17 -15   19.99    4.67
   0 -17  15   21.32    4.67
   1  17 -15    1.79    3.55
   1  17 -15    1.11    2.92
  -1 -17  15   -1.15    1.76
  -1 -17  15   -1.07    1.72
   2  17 -15    0.90    4.06
  -2 -17  15    2.71    2.12
   3  17 -15    2.03    4.14
  -3 -17  15    4.45    2.19
   4  17 -15   -3.47    5.07
   4  17 -15    2.51    4.45
  -4 -17  15    4.47    1.97
  -4 -17  15    2.26    1.42
   5  17 -15   -1.95    4.73
   5  17 -15   -6.32    5.23
  -5 -17  15   -0.42    1.97
  -5 -17  15    0.67    1.14
   6  17 -15    1.42    6.37
  -6 -17  15    6.35    2.06
  -6 -17  15   -0.31    1.29
  -2  18 -15   -0.51    2.19
   2 -18  15   -1.53    1.57
  -1  18 -15    0.97    3.10
   1 -18  15    1.21    1.75
   0  18 -15    7.43    3.55
   0 -18  15   -1.88    1.58
   1  18 -15    3.06    3.14
   1  18 -15   -4.73    3.27
  -1 -18  15    2.58    1.66
   2  18 -15   12.53    4.12
  -3 -18  15    2.86    1.87
   0   0 -16  841.10  173.51
   0   0 -16  829.59  182.93
   0   0  16  807.02  229.19
   1   0 -16   -0.28    0.95
   0  -1 -16    0.24    0.84
   1   0 -16   -0.13    0.65
   0  -1 -16   -0.66    1.23
   0   1 -16   -0.31    1.09
   1   0 -16    0.44    0.82
   0   1  16   -0.44    1.71
   0  -1  16    3.31    1.72
  -1   0  16    1.10    1.32
   1  -1 -16  119.44   17.22
   1   1 -16  120.72   19.07
   1  -1 -16   52.25   17.24
  -1  -1  16  105.86   22.42
   2   1 -16    8.76    2.26
   2   1 -16    8.22    1.88
   1  -2 -16    9.50    2.32
  -2  -1  16   11.38    2.54
   0   2 -16   11.25    2.47
   2   0 -16    8.72    2.11
   0  -2 -16   10.92    2.70
   2   0 -16    7.42    1.98
   2   0 -16    8.18    2.37
   0   2 -16    9.76    2.20
   0  -2  16    7.53    3.34
  -2   0  16    7.72    2.68
   2  -1 -16    7.03    2.15
   2  -1 -16    6.32    1.83
   1   2 -16    9.06    1.91
   1   2 -16    8.34    2.13
   1   2 -16    6.49    2.20
  -1  -2  16    9.39    2.71
  -2   1  16    3.47    2.61
   2   2 -16   15.91    4.50
   2  -2 -16   22.87    4.44
   2   2 -16   19.77    4.09
   2   2 -16   18.35    3.83
   2   2 -16   21.50    5.17
  -2  -2  16   11.92    4.56
  -2  -2  16   17.06    4.14
   3   2 -16  124.79   26.70
   3   2 -16  120.18   26.86
   2  -3 -16  130.15   23.78
  -3  -2  16  128.84   26.85
  -2   3  16  104.97   32.29
   3   1 -16    4.43    1.38
   3   1 -16    4.32    1.23
   1  -3 -16    5.19    1.40
   1  -3 -16    3.27    1.00
  -3  -1  16    3.96    1.63
  -3  -1  16    4.19    1.21
  -1   3  16    3.40    1.84
  -3  -1  16    1.85    1.00
   3   0 -16   -0.52    0.86
   0  -3 -16    0.33    1.13
   0   3 -16    0.20    0.80
   0   3 -16   -0.30    1.14
   0  -3 -16   -0.23    0.83
   3   0 -16    0.57    0.76
  -3   0  16   -0.19    0.42
  -3   0  16    0.29    1.03
   0   3  16    1.38    1.66
  -3   0  16    0.94    0.93
   1   3 -16    6.01    1.39
   1   3 -16    7.15    1.32
   3  -1 -16    4.00    1.43
   3  -1 -16    4.05    1.10
   1   3 -16    1.64    1.34
  -1  -3  16    3.15    1.05
  -3   1  16    2.96    1.48
  -1  -3  16    2.42    1.84
  -3   1  16    2.36    1.17
   2   3 -16  113.62   27.65
   3  -2 -16  125.03   28.57
   2   3 -16  119.73   29.26
   2   3 -16  107.77   25.73
  -2  -3  16  131.56   28.43
   3   3 -16    6.44    2.36
   3  -3 -16   10.37    2.04
   3   3 -16    9.84    2.51
   3  -3 -16    5.42    2.50
   3   3 -16    8.05    2.26
   3   3 -16    9.13    2.50
  -3   3  16   11.57    2.40
  -3  -3  16    9.22    2.70
  -3  -3  16    9.13    2.30
  -3   3  16   10.57    2.78
  -3  -3  16    8.74    2.27
   4   3 -16    0.40    0.78
   4   3 -16    0.99    0.98
   3  -4 -16    0.55    0.76
   4   3 -16    0.27    1.17
   3  -4 -16   -0.30    1.08
   4   3 -16    1.45    0.94
  -3   4  16   -0.97    1.47
  -3   4  16   -0.47    1.05
  -4  -3  16   -0.65    0.82
  -4  -3  16   -0.82    0.99
  -4  -3  16    0.28    1.18
  -4  -3  16   -0.66    0.65
   4   2 -16    3.57    1.41
   4   2 -16    6.44    1.52
   2  -4 -16    6.26    1.64
   2  -4 -16    6.47    1.30
   4   2 -16    4.72    1.68
   4   2 -16    5.44    1.58
  -4  -2  16    4.57    1.38
  -4  -2  16    4.04    1.64
  -4  -2  16    5.33    1.56
  -2   4  16    5.36    2.08
  -4  -2  16    6.56    1.35
   4   1 -16   67.36   11.98
  -4  -1  16   37.93   11.86
  -1   4  16   61.65   14.79
   0  -4 -16    5.80    2.62
   0   4 -16    8.22    2.67
   0   4 -16    8.40    2.45
   0  -4 -16   13.63    2.29
   4   0 -16   10.18    2.36
   4   0 -16    9.52    2.12
  -4   0  16    6.62    2.25
   0   4  16   11.23    3.40
  -4   0  16    7.99    2.41
   1   4 -16   68.29   14.65
   4  -1 -16   52.43   10.61
   1   4 -16   58.60   12.55
   1   4 -16   42.72   14.77
   4  -1 -16   47.52   12.45
  -4   1  16   55.95   11.98
  -4   1  16   55.30   11.39
  -1  -4  16   55.71   12.43
  -1  -4  16   43.83   15.42
   2   4 -16    7.03    1.83
   2   4 -16    4.65    1.53
   4  -2 -16    3.90    1.61
   2   4 -16    5.32    1.57
   2   4 -16    4.29    1.45
   4  -2 -16    4.39    1.29
  -2  -4  16    3.96    1.93
  -4   2  16    1.72    1.42
  -2  -4  16    3.65    1.37
   3   4 -16   -0.51    1.36
   4  -3 -16    0.60    0.75
   3   4 -16   -1.39    0.87
   4  -3 -16    0.82    0.99
   3   4 -16   -0.43    0.88
   3   4 -16   -0.27    1.08
  -3  -4  16    0.51    0.84
  -4   3  16   -0.90    1.26
  -3  -4  16   -0.86    1.32
  -3  -4  16    0.55    0.90
  -4   3  16   -0.23    1.00
   4   4 -16   13.21    2.60
   4   4 -16    8.74    2.65
   4   4 -16    8.52    2.61
   4  -4 -16    7.91    2.38
   4   4 -16    8.45    2.85
   4  -4 -16   11.79    2.21
  -4  -4  16   11.07    2.54
  -4   4  16   11.79    2.67
  -4  -4  16    6.41    2.35
  -4  -4  16    9.12    2.04
  -4   4  16    4.47    2.90
  -4  -4  16   10.77    2.81
   5   4 -16    3.42    1.82
   4  -5 -16    4.34    1.93
   4  -5 -16    7.41    1.57
   5   4 -16    7.22    2.05
   5   4 -16   12.75    2.43
   5   4 -16    5.89    2.91
  -4   5  16    6.96    2.59
  -5  -4  16    7.73    1.68
  -5  -4  16    7.26    1.68
  -4   5  16    6.83    2.34
  -5  -4  16    6.34    2.04
   5   3 -16    4.70    1.62
   5   3 -16    3.28    1.86
   3  -5 -16    6.73    1.46
   5   3 -16    8.57    1.69
   3  -5 -16    4.21    1.70
   5   3 -16    3.64    2.42
  -3   5  16    4.86    2.02
  -5  -3  16    4.93    1.35
  -5  -3  16    3.35    1.57
  -5  -3  16    4.34    1.44
  -3   5  16    2.13    2.21
   5   2 -16   92.58   21.63
   2  -5 -16   86.14   20.94
   2  -5 -16   94.46   18.47
   5   2 -16   99.70   25.06
  -5  -2  16   85.01   21.68
  -5  -2  16   89.32   20.24
  -5  -2  16   87.88   20.78
  -2   5  16   96.23   25.67
   1  -5 -16    0.87    0.80
   5   1 -16    1.74    1.10
   5   1 -16    0.71    1.00
   1  -5 -16    2.16    1.24
  -5  -1  16    0.75    0.97
  -1   5  16   -0.41    1.57
   0   5 -16   -1.36    0.99
   5   0 -16    0.23    0.86
   0  -5 -16   -0.46    0.81
   0   5 -16    1.42    1.17
   5   0 -16   -0.55    1.06
   0  -5 -16   -1.57    1.32
   0  -5  16   -0.19    0.64
  -5   0  16    0.72    1.05
   0   5  16   -0.97    1.89
   1   5 -16    0.72    1.10
   1   5 -16    2.82    1.35
   5  -1 -16    1.08    1.05
   1   5 -16    2.47    0.98
   1   5 -16    0.47    0.84
   5  -1 -16    0.23    0.80
  -1  -5  16    0.40    0.81
  -1  -5  16    1.73    1.59
  -5   1  16   -2.52    1.21
   5  -2 -16   99.23   20.03
   5  -2 -16   97.48   20.80
   2   5 -16   91.80   22.32
   2   5 -16  104.57   23.09
  -2  -5  16   98.68   23.56
  -2  -5  16   97.58   21.98
  -5   2  16  107.33   21.68
  -2  -5  16   92.39   20.43
   5  -3 -16    6.16    1.76
   3   5 -16    6.22    1.95
   3   5 -16    7.33    1.94
   3   5 -16    5.44    1.75
   3   5 -16    8.24    1.66
   5  -3 -16    2.59    1.47
  -5   3  16    6.28    1.97
  -3  -5  16    7.32    1.56
  -3  -5  16    6.22    2.02
  -3  -5  16    3.95    1.46
   4   5 -16    5.93    1.93
   4   5 -16    5.41    2.37
   4   5 -16    6.29    2.21
   5  -4 -16    4.32    1.88
   5  -4 -16    8.24    1.77
   4   5 -16    8.94    2.20
  -4  -5  16    6.32    2.00
  -4  -5  16    5.82    1.73
  -4  -5  16    6.76    2.15
  -5   4  16    6.37    2.24
  -4  -5  16    7.06    1.54
   5  -5 -16   10.85    3.59
   5   5 -16   16.01    4.31
   5   5 -16   10.02    4.48
   5  -5 -16   15.58    3.20
   5   5 -16   13.73    4.21
   5   5 -16   17.59    4.18
  -5  -5  16   16.29    3.71
  -5  -5  16   12.67    3.30
  -5   5  16   13.28    4.13
  -5  -5  16   18.29    3.24
  -5  -5  16   17.86    3.65
   6   5 -16   17.39    3.53
   5  -6 -16   10.15    2.89
   6   5 -16    9.24    3.83
   5  -6 -16    8.80    3.27
  -6  -5  16   12.39    3.36
  -6  -5  16   11.15    2.80
  -6  -5  16   11.23    2.52
   4  -6 -16    5.73    1.97
   6   4 -16    7.72    2.72
   6   4 -16    3.80    3.59
   6   4 -16    3.93    2.30
   4  -6 -16    9.10    1.70
   6   4 -16    6.77    2.28
  -6  -4  16    6.23    1.65
  -4   6  16    7.53    2.62
  -6  -4  16    8.65    2.22
  -6  -4  16    5.00    1.85
  -4   6  16    6.98    2.39
   6   3 -16   42.54    9.05
   6   3 -16   37.78    9.98
   6   3 -16   33.09   10.79
   3  -6 -16   36.39    8.82
   6   3 -16   32.50   12.57
  -3   6  16   43.80   10.09
  -6  -3  16   35.84    8.83
  -6  -3  16   41.29    8.65
  -3   6  16   47.19   11.32
   2  -6 -16   18.75    4.60
   2  -6 -16   17.76    5.16
   6   2 -16   27.66    5.30
   6   2 -16   23.37    5.42
  -6  -2  16   19.75    5.77
  -6  -2  16   23.46    4.91
  -2   6  16   23.45    5.86
  -2   6  16   25.98    6.65
  -6  -2  16   21.52    5.19
  -1   6 -16   32.00    6.91
   1  -6 -16   23.17    6.49
   6   1 -16   30.67    7.88
   6   1 -16   36.59    6.77
  -1   6  16   34.34    9.11
  -6  -1  16   26.29    6.42
   0   6 -16   13.58    3.11
   0   6 -16    6.35    3.29
   0  -6 -16   13.49    3.10
   0   6 -16   13.66    2.92
   6   0 -16   11.62    2.78
   6   0 -16   15.31    3.12
   0  -6 -16   10.16    2.78
   0  -6  16   13.06    3.07
   0   6  16   14.67    4.18
  -6   0  16    7.56    2.80
   1   6 -16   28.13    7.18
   1   6 -16   28.47    7.41
   6  -1 -16   34.95    7.14
   6  -1 -16   25.03    6.64
   1   6 -16   33.59    6.80
  -6   1  16   36.48    6.50
  -1  -6  16   26.07    7.03
   6  -2 -16   22.81    5.28
   2   6 -16   21.37    5.38
   2   6 -16   22.54    5.56
   2   6 -16   25.66    5.17
   6  -2 -16   16.34    5.17
   2   6 -16   25.95    6.60
  -2  -6  16   24.26    5.05
  -2  -6  16   25.19    6.17
  -6   2  16   25.73    4.95
  -2  -6  16   20.96    4.57
   3   6 -16   41.96    9.18
   3   6 -16   46.46    9.50
   3   6 -16   38.28    9.60
   3   6 -16   43.10   10.97
   6  -3 -16   37.55    9.48
   6  -3 -16   44.71    8.94
  -3  -6  16   39.71    8.88
  -3  -6  16   39.48    9.80
  -3  -6  16   47.75    9.68
  -6   3  16   44.87    8.67
   4   6 -16    5.33    2.29
   4   6 -16    6.24    1.94
   6  -4 -16    6.14    1.91
   4   6 -16    8.31    2.21
   4   6 -16    7.72    2.47
   6  -4 -16    6.12    2.04
  -4  -6  16    5.22    1.89
  -4  -6  16    8.37    2.18
  -4  -6  16    8.50    1.74
  -6   4  16    7.20    2.10
  -4  -6  16    6.56    1.49
   6  -5 -16    8.39    2.93
   6  -5 -16   11.27    3.17
   5   6 -16    8.32    3.75
   5   6 -16    9.15    3.67
   5   6 -16   14.92    3.44
  -5  -6  16   13.74    2.67
  -5  -6  16   12.28    3.09
  -6   5  16    8.55    3.14
  -5  -6  16   14.97    3.02
  -5  -6  16   13.41    2.48
   6  -6 -16   29.94    5.49
   6   6 -16   14.06    6.27
   6   6 -16   17.83    6.58
   6   6 -16   15.15    6.05
   6   6 -16   31.72    7.37
   6  -6 -16   23.00    4.73
  -6  -6  16   35.35    4.69
  -6  -6  16   19.44    4.57
  -6   6  16   29.97    5.73
  -6  -6  16   25.80    5.94
   6  -7 -16    6.24    2.07
   7   6 -16    5.38    2.14
   7   6 -16    2.43    2.79
   7   6 -16    3.47    2.08
   6  -7 -16    3.78    1.63
   7   6 -16    2.67    4.34
  -6   7  16    2.20    2.11
  -7  -6  16    5.38    1.74
  -7  -6  16    9.29    2.26
  -7  -6  16    3.42    1.39
   7   5 -16   14.79    5.33
   5  -7 -16   18.40    3.69
   7   5 -16   21.26    4.51
   7   5 -16   25.86    7.88
   7   5 -16   15.31    4.60
   5  -7 -16   10.49    3.67
  -5   7  16   12.18    4.85
  -7  -5  16   16.20    3.46
  -7  -5  16   14.79    3.31
  -7  -5  16   11.93    4.19
  -5   7  16   16.48    4.39
   7   4 -16   29.71    9.98
   7   4 -16   18.43   13.76
   7   4 -16   30.43    9.02
   4  -7 -16   39.30    7.92
   4  -7 -16   38.76    7.69
   7   4 -16   44.73   10.37
  -4   7  16   48.13   10.62
  -7  -4  16   34.49    7.36
  -4   7  16   32.78    9.37
  -7  -4  16   35.51    8.09
   7   3 -16   45.88   10.83
   3  -7 -16   31.55    8.36
  -3   7  16   33.59   10.19
  -7  -3  16   41.96    9.12
   7   2 -16   42.05   10.57
   7   2 -16   43.51   11.32
   2  -7 -16   44.64    9.61
  -2   7  16   19.60   13.21
  -7  -2  16   45.47    9.32
  -2   7  16   48.88   11.55
   1  -7 -16   18.89    5.27
  -1   7 -16   24.78    6.23
   7   1 -16   33.51    7.00
   1  -7 -16   24.43    6.04
   7   1 -16   26.89    6.19
  -1   7  16   24.10    7.76
  -7  -1  16   29.87    6.03
   7   0 -16    0.78    1.40
   0   7 -16   -0.46    1.28
   7   0 -16    0.91    1.37
   0   7 -16    0.27    1.18
   0  -7 -16    0.43    0.79
   0  -7 -16   -0.33    1.23
  -7   0  16   -0.98    1.52
   0   7  16    1.68    2.04
   0  -7  16   -0.24    0.92
   1   7 -16   25.39    5.75
   7  -1 -16   26.00    6.12
   1   7 -16   27.57    6.17
   7  -1 -16   29.49    6.36
  -7   1  16   25.97    6.02
  -1  -7  16   24.89    5.38
   2   7 -16   50.30   10.24
   7  -2 -16   48.15   10.45
   2   7 -16   45.72   10.10
   7  -2 -16   53.86   10.21
  -7   2  16   43.04    9.97
  -2  -7  16   51.88    9.39
   3   7 -16   44.12    8.84
   3   7 -16   50.25    9.34
  -3  -7  16   35.86    8.02
  -7   3  16   35.89    9.02
   7  -4 -16   29.97    8.53
   4   7 -16   34.10    8.84
   7  -4 -16   38.47    7.97
   4   7 -16   31.82    9.23
  -7   4  16   35.43    8.59
  -4  -7  16   34.70    6.89
  -4  -7  16   35.99    6.35
   7  -5 -16   11.96    4.11
   7  -5 -16   19.98    3.96
   5   7 -16   17.59    4.71
   5   7 -16   11.70    4.69
  -5  -7  16   16.91    3.58
  -5  -7  16   17.82    3.21
  -7   5  16   18.76    4.44
   6   7 -16    4.29    2.68
   7  -6 -16    3.42    1.98
   7  -6 -16    8.29    1.70
   6   7 -16    2.58    3.01
  -6  -7  16    6.21    1.43
  -7   6  16    3.47    2.59
  -6  -7  16    3.26    1.48
   7   7 -16    7.91    3.85
   7   7 -16    3.84    4.91
   7  -7 -16   10.60    2.76
   7  -7 -16    4.95    2.59
  -7  -7  16   13.80    1.96
  -7  -7  16   10.23    2.26
  -7   7  16    8.11    3.05
   7  -8 -16   -0.96    1.67
   8   7 -16    6.52    5.39
   8   7 -16    4.30    3.56
  -7   8  16   -1.51    2.46
  -8  -7  16    1.19    1.00
   8   6 -16    3.75    3.65
   6  -8 -16    7.45    1.87
   6  -8 -16    3.33    2.12
   8   6 -16    6.35    3.05
  -6   8  16    5.57    2.79
  -8  -6  16    8.20    1.75
   5  -8 -16   -0.32    1.28
   8   5 -16    0.45    1.86
   5  -8 -16    1.13    1.04
   8   5 -16    2.05    2.83
  -5   8  16   -0.37    1.92
  -5   8  16    0.72    1.70
  -8  -5  16    3.43    1.84
   4  -8 -16   38.96    7.79
   8   4 -16   41.13   11.08
   8   4 -16   19.63   10.18
   8   4 -16   24.17    9.35
  -8  -4  16   49.28    8.89
  -4   8  16   39.47   10.41
  -4   8  16   39.90    9.77
   3  -8 -16   12.54    3.03
   3  -8 -16   13.73    2.75
   8   3 -16   16.51    3.36
   8   3 -16    3.98    3.77
  -3   8  16    9.95    3.58
  -8  -3  16   13.51    3.30
  -3   8  16   10.72    4.18
   2  -8 -16   70.69   13.03
   8   2 -16   64.85   15.32
   8   2 -16   59.05   17.54
   2  -8 -16   65.76   14.41
  -2   8  16   61.92   20.57
   1  -8 -16    0.68    0.85
   8   1 -16    2.16    1.58
   1  -8 -16    2.01    1.41
  -1   8 -16   -0.59    1.29
   8   1 -16    0.45    1.47
  -1   8  16    0.48    1.91
   1  -8  16    0.99    1.01
  -8  -1  16    0.38    1.66
   8   0 -16   12.93    2.81
   8   0 -16    7.29    3.15
   0   8 -16   10.04    2.88
   0   8 -16    9.54    2.69
   0  -8 -16    8.13    2.54
   0  -8  16    9.63    2.41
  -8   0  16   11.13    2.69
   0   8  16   10.39    4.02
   8  -1 -16    0.97    1.70
   1   8 -16    0.60    1.44
   8  -1 -16    3.59    1.45
   1   8 -16    1.71    1.64
  -1  -8 -16    0.70    1.39
  -8   1  16    0.73    1.69
  -1  -8  16    2.15    1.12
   8  -2 -16   76.22   16.69
   8  -2 -16   69.30   15.12
  -8   2  16   70.93   14.24
   8  -3 -16   12.74    3.52
   3   8 -16   13.57    3.42
   3   8 -16   12.23    3.34
  -8   3  16   12.65    3.41
  -3  -8  16   11.35    2.66
  -3  -8  16   12.04    2.84
   4   8 -16   37.43    9.09
   4   8 -16   39.37    9.51
   8  -4 -16   40.08    9.20
   8  -4 -16   42.09    9.06
  -4  -8  16   40.43    6.62
  -8   4  16   34.32    8.48
   5   8 -16   -1.52    2.44
   8  -5 -16    0.99    1.98
   5   8 -16    2.01    1.93
  -5  -8  16   -0.23    0.89
  -8   5  16   -2.59    2.06
  -5  -8  16    1.49    1.27
   6   8 -16   11.07    3.58
   6   8 -16   23.89    4.20
   8  -6 -16    9.37    2.73
  -6  -8  16    6.40    2.06
  -8   6  16    4.12    2.69
  -6  -8  16    5.04    1.68
   7   8 -16   -2.00    4.35
   7   8 -16    0.79    3.39
  -7  -8  16    1.68    1.67
  -7  -8  16   -0.26    0.86
   8   8 -16   -0.96    4.81
  -8  -8  16    1.48    1.71
   8  -9 -16   14.43    3.67
   8  -9 -16    8.01    3.98
  -8   9  16   23.07    4.94
   6  -9 -16    5.83    1.66
   6  -9 -16    7.92    1.96
   9   6 -16    1.02    4.78
  -6   9  16    5.49    2.21
  -6   9  16    2.26    2.72
   9   5 -16   18.24    7.30
   5  -9 -16   23.03    4.60
   5  -9 -16   26.42    4.67
   9   5 -16   24.50    6.55
  -5   9  16   22.37    6.54
  -5   9  16   19.51    6.18
   4  -9 -16    4.80    1.58
   9   4 -16    4.12    2.46
   4  -9 -16    6.05    1.30
  -4   9  16    2.27    2.02
  -4   9  16    1.60    2.12
   3  -9 -16   74.03   14.24
   3  -9 -16   77.94   14.90
   9   3 -16   71.29   19.05
   9   2 -16    6.24    2.67
   2  -9 -16    3.25    1.72
   2  -9 -16    4.11    1.41
  -2   9  16    7.24    2.41
  -9  -2  16    4.98    2.24
  -2   9  16    5.24    2.53
   1  -9 -16    5.00    2.32
  -1   9 -16   11.23    2.91
   9   1 -16   10.67    3.23
   1  -9 -16    9.52    2.22
  -1   9 -16   12.67    2.68
   9   1 -16    8.93    3.55
   1  -9  16   11.91    2.40
  -1   9  16    8.58    3.76
  -9  -1  16   11.54    2.95
   0   9 -16    1.89    1.63
   9   0 -16    1.67    1.87
   0  -9 -16   -1.26    1.41
   0   9 -16    0.32    1.47
   9   0 -16   -0.90    1.86
   0  -9  16    0.27    1.17
   0   9  16    1.82    2.09
  -9   0  16    1.67    1.77
   1   9 -16    5.50    2.64
   1   9 -16    8.00    2.66
  -1  -9 -16    8.41    2.47
   9  -1 -16    9.11    2.96
   9  -1 -16   12.93    3.27
  -9   1  16    5.72    2.84
  -1  -9  16    9.47    2.27
   2   9 -16    4.16    2.08
   2   9 -16    2.19    1.91
   9  -2 -16    9.34    2.58
  -9   2  16    5.63    2.16
  -2  -9  16    8.01    1.68
   9  -3 -16   60.37   18.16
   3   9 -16   66.46   17.20
   3   9 -16   76.14   16.66
  -9   3  16   54.57   15.19
  -3  -9  16   71.17   13.69
  -3  -9  16   62.88   15.66
   4   9 -16    6.51    2.35
   4   9 -16    0.49    2.16
  -4  -9  16    4.42    1.43
  -4  -9  16    0.94    1.16
   5   9 -16   15.99    5.91
   9  -5 -16   12.41    5.18
   5   9 -16   31.23    6.17
  -5  -9  16   21.93    3.96
   9  -6 -16    1.90    2.12
   6   9 -16    5.40    3.18
  -6  -9  16    6.79    1.83
   9  -8 -16   20.89    4.22
   9  -8 -16   14.93    4.08
   8   9 -16    7.08    8.04
   8   9 -16   19.30    6.39
  -8  -9  16   26.15    3.77
  -9   8  16    8.10    4.68
  -8  -9  16   14.52    2.81
   9   9 -16    1.22    4.82
   9  -9 -16    0.32    1.51
   9  -9 -16    7.06    2.61
  -9   9  16   -0.70    2.96
   9 -10 -16    5.94    2.59
  -9  10  16    8.08    4.06
   8 -10 -16    2.11    1.54
   8 -10 -16    9.48    2.98
  -8  10  16    2.89    3.72
   7 -10 -16    2.08    1.48
   6 -10 -16    0.47    1.95
  -6  10  16   -1.09    2.56
   5 -10 -16    6.32    1.74
   5 -10 -16    5.78    2.04
  -5  10  16    5.01    2.54
  -5  10  16    4.61    2.66
   4 -10 -16   28.80    4.68
   4 -10 -16   36.94    4.81
  -4  10  16   35.91    6.97
  -4  10  16   36.18    6.28
   3 -10 -16    2.01    1.33
   3 -10 -16    1.53    1.02
  -3  10  16   -1.32    2.04
  -3  10  16   -4.61    2.26
   2 -10 -16    6.32    2.15
   2 -10 -16    8.01    2.05
  -2  10  16    9.41    3.03
  -2  10  16    7.85    3.11
   1 -10 -16    1.55    1.09
   1 -10 -16    0.33    1.39
  -1  10  16    2.30    2.28
  -1  10  16    0.34    1.79
   0 -10 -16    5.09    1.85
  -1 -10 -16    0.34    1.30
  10  -4 -16    5.05    5.56
  -4 -10  16    4.84    4.04
  10  -5 -16    4.36    2.26
   5  10 -16    3.59    3.22
  -5 -10  16    4.76    1.42
   6  10 -16   -6.10    3.21
  10  -6 -16   -1.62    1.98
   6  10 -16   -0.73    3.80
  -6 -10  16    0.53    0.96
  -6 -10  16    0.32    1.55
   7  10 -16   -2.62    3.75
   7  10 -16   -2.01    4.88
  10  -7 -16    5.20    1.80
  -7 -10  16    8.75    1.42
  -7 -10  16    2.40    1.68
   8  10 -16    5.77    7.07
   8  10 -16   -3.26    4.57
  10  -8 -16    4.93    2.30
  -8 -10  16    4.63    2.28
  -8 -10  16    6.83    1.31
  10  -9 -16    8.85    3.06
   9  10 -16   13.82    7.31
  -9 -10  16   12.28    1.99
  -9 -10  16   12.08    2.98
  10 -11 -16   -3.09    1.97
   8 -11 -16    4.89    1.89
   8 -11 -16    6.60    2.86
  -8  11  16    8.51    3.74
   7 -11 -16    3.56    2.24
   7 -11 -16    2.24    1.39
  -7  11  16    3.44    3.08
   5 -11 -16    3.03    1.90
  -5  11  16    2.01    2.01
  -5  11  16    1.04    2.60
   4 -11 -16   -0.37    1.58
   4 -11 -16    2.11    1.09
  -4  11  16    3.22    2.37
  -4  11  16    3.83    2.48
   2 -11 -16    4.65    1.56
   2 -11 -16    6.60    1.70
  -1  11 -16    3.53    1.92
  -1  11 -16    4.04    1.90
   1 -11 -16    1.64    1.56
   1 -11 -16    4.18    1.29
   1 -11  16    3.81    1.61
   0  11 -16    0.36    1.78
   0  11 -16   -1.09    1.84
   0 -11  16   -0.28    1.16
   1  11 -16    3.71    2.05
   1  11 -16   -0.74    1.91
  -1 -11  16    0.29    1.30
   2  11 -16    1.24    2.16
   2  11 -16    1.04    2.09
  -2 -11  16    3.43    1.40
   4  11 -16    2.57    2.82
   4  11 -16    0.59    2.21
  -4 -11  16   -0.88    1.33
  -4 -11  16    0.27    1.16
   5  11 -16    1.96    3.39
   5  11 -16    2.07    2.78
  -5 -11  16   -0.63    1.42
  -5 -11  16    0.27    1.12
   6  11 -16    0.87    4.11
   6  11 -16   -3.21    4.15
  -6 -11  16    7.41    1.69
  -6 -11  16   10.41    2.35
   7  11 -16    0.98    4.02
   7  11 -16   -5.16    4.71
  -7 -11  16    4.16    1.16
  -7 -11  16    3.76    1.72
   8  11 -16    1.32    5.25
   8  11 -16   -9.97    6.55
  -8 -11  16    3.12    1.20
  -8 -11  16    4.90    2.45
  -2  12 -16    3.43    2.33
   2 -12  16    5.71    1.89
  -1  12 -16    2.83    1.84
  -1  12 -16    0.64    2.22
   1 -12  16    3.82    1.64
   0  12 -16    8.91    3.01
   0  12 -16    5.29    3.01
   0 -12  16   12.53    2.56
   1  12 -16    4.59    2.40
   1  12 -16    5.56    2.12
  -1 -12  16    3.64    1.52
   2  12 -16    3.01    2.49
   2  12 -16   13.07    2.85
  -2 -12  16    5.84    1.88
  -2 -12  16    5.43    1.76
   3  12 -16    0.64    2.45
   3  12 -16   -1.47    2.28
  -3 -12  16    1.83    1.37
  -3 -12  16    2.32    1.29
   4  12 -16    0.65    2.78
   4  12 -16    0.55    2.59
  -4 -12  16    0.58    1.22
  -4 -12  16    7.09    1.68
   5  12 -16   -1.98    3.09
   5  12 -16    2.50    3.70
  -5 -12  16   -0.87    1.22
  -5 -12  16    0.32    1.51
   6  12 -16    3.52    3.68
   6  12 -16    0.84    4.37
  -6 -12  16    0.57    1.11
  -6 -12  16    0.34    1.53
   7  12 -16   -1.07    4.44
   7  12 -16    2.20    5.20
  -7 -12  16    0.85    1.00
  -7 -12  16   -0.39    1.77
   8  12 -16   11.87    6.91
   8  12 -16   -5.03    4.95
  -8 -12  16    0.86    0.99
  -8 -12  16   -0.43    2.17
   9  12 -16    6.13    6.56
  -9 -12  16    0.96    1.13
  -9 -12  16    3.13    2.67
  -2  13 -16   -5.23    1.94
   2 -13  16    2.27    1.35
  -1  13 -16   -0.68    2.38
  -1  13 -16    4.41    1.93
   1 -13  16   -0.99    1.37
   0  13 -16    3.13    2.31
   0  13 -16   -0.63    2.24
   0 -13  16    0.31    1.27
   1  13 -16    0.91    2.08
   1  13 -16    0.63    2.07
  -1 -13  16   -0.31    1.40
   2  13 -16   -0.48    2.58
   2  13 -16    1.91    2.25
  -2 -13  16    2.31    1.43
  -2 -13  16    1.26    1.33
   3  13 -16    1.07    2.53
   3  13 -16    3.41    2.77
  -3 -13  16    1.27    1.42
  -3 -13  16    0.55    1.11
   4  13 -16    2.23    2.91
   4  13 -16    4.10    2.71
  -4 -13  16   -0.33    1.54
  -4 -13  16    0.62    1.24
   5  13 -16   -0.88    3.41
   5  13 -16   -2.98    3.77
  -5 -13  16    3.34    1.86
  -5 -13  16    6.52    1.47
   7  13 -16    9.19    5.23
   7  13 -16    3.72    4.72
  -7 -13  16    1.46    1.09
  -7 -13  16   -2.05    1.92
   8  13 -16   -1.39    5.96
   8  13 -16   -1.54    6.56
  -8 -13  16    0.46    2.22
  -8 -13  16    3.28    1.17
   9  13 -16   10.71    8.37
  -9 -13  16    4.61    1.45
  -9 -13  16    1.64    2.80
  -1  14 -16    0.85    1.92
  -1  14 -16   -2.19    2.36
   1 -14  16    0.34    1.34
   0  14 -16   -0.68    2.27
   0  14 -16    1.73    2.09
   0 -14  16   -1.58    1.40
   1  14 -16   -1.41    2.22
   1  14 -16   -3.43    2.50
  -1 -14  16    1.92    1.50
   2  14 -16   -0.68    2.43
   4  14 -16   -3.18    3.34
   4  14 -16    3.26    3.14
  -4 -14  16    4.12    1.82
  -4 -14  16    2.19    1.37
   5  14 -16    4.54    4.51
   5  14 -16   11.67    4.47
  -5 -14  16   11.09    1.94
  -5 -14  16    2.19    2.16
   6  14 -16    5.38    4.47
   6  14 -16   -1.99    4.90
  -6 -14  16   -0.31    1.29
  -6 -14  16    2.77    1.85
   7  14 -16   -1.28    6.84
   7  14 -16   12.66    7.36
  -7 -14  16    7.16    2.97
  -7 -14  16   11.31    2.09
   8  14 -16   -3.00    6.35
   8  14 -16   -1.60    7.69
  -8 -14  16    0.59    1.12
  -8 -14  16    4.26    2.03
   2 -15  16   -3.15    1.50
  -1  15 -16   -0.78    2.55
   1 -15  16    2.50    1.73
   0  15 -16   -2.86    2.65
   0  15 -16   -2.98    2.84
   0 -15  16   -1.28    1.47
   1  15 -16    4.50    2.95
   1  15 -16    5.83    2.69
  -1 -15  16    5.64    1.72
  -1 -15  16    1.11    1.89
   2  15 -16    0.74    2.90
   2  15 -16    1.58    2.37
  -2 -15  16   -0.60    1.32
  -2 -15  16   -0.35    1.40
   3  15 -16    1.80    3.43
   3  15 -16    8.88    3.71
  -3 -15  16    4.97    1.86
  -3 -15  16    8.36    2.17
   4  15 -16    6.22    3.88
   4  15 -16    3.55    3.89
  -4 -15  16    8.71    1.84
  -4 -15  16    3.25    2.21
   5  15 -16    5.01    4.13
   5  15 -16    1.97    3.69
  -5 -15  16    0.37    1.83
  -5 -15  16    0.90    1.20
   6  15 -16    4.42    5.88
   6  15 -16   18.14    6.40
  -6 -15  16    4.06    1.52
  -6 -15  16    5.21    2.21
   8  15 -16   -5.18    7.94
   8  15 -16    6.78    7.59
  -8 -15  16    2.09    1.15
  -8 -15  16    0.48    2.28
   9  15 -16   -1.90    7.32
  -9 -15  16   -0.56    2.82
  -9 -15  16    0.33    1.10
  -2  16 -16    5.40    2.59
   2 -16  16    3.98    1.75
  -1  16 -16   -1.67    2.67
  -1  16 -16    3.28    2.25
   1 -16  16   -0.76    1.68
   0  16 -16    8.68    2.96
   0 -16  16    0.35    1.54
   1  16 -16    2.44    2.77
  -1 -16  16   -0.34    1.56
   2  16 -16    1.18    3.15
   2  16 -16    3.34    3.27
  -2 -16  16    4.80    1.68
  -2 -16  16    0.35    1.64
   3  16 -16   -0.64    3.11
   3  16 -16   -0.92    3.31
  -3 -16  16    1.14    1.76
  -3 -16  16    0.36    1.62
   5  16 -16   -3.40    4.60
   5  16 -16   -5.57    4.52
  -5 -16  16    0.40    1.87
  -5 -16  16   -2.66    1.46
   6  16 -16    2.43    6.10
   6  16 -16    1.27    4.87
  -6 -16  16   -0.93    1.13
  -6 -16  16    2.56    1.92
   7  16 -16   -4.28    7.44
   7  16 -16    9.01    6.23
  -7 -16  16   -4.24    2.27
  -7 -16  16    3.95    1.28
   8  16 -16   10.26    6.72
  -8 -16  16   -2.03    2.34
  -8 -16  16    1.95    1.11
  -2  17 -16    4.89    2.47
   2 -17  16    3.73    1.79
  -1  17 -16    8.92    3.66
  -1  17 -16    9.34    3.52
   1 -17  16    7.66    2.33
   0  17 -16    0.86    3.00
   0  17 -16   -4.10    2.35
   0 -17  16    1.68    1.78
   0 -17  16    0.38    1.42
   1  17 -16   -1.72    3.59
  -1 -17  16    8.31    2.33
   2  17 -16   -0.95    3.73
  -2 -17  16    1.19    1.96
   3  17 -16    3.61    3.48
   3  17 -16   -4.91    3.72
  -3 -17  16    1.08    1.43
  -3 -17  16   -0.39    1.94
   4  17 -16    0.84    4.15
   4  17 -16    1.08    4.49
  -4 -17  16    0.40    1.83
  -4 -17  16    0.67    1.37
   5  17 -16    3.72    4.78
  -5 -17  16   -0.42    2.32
  -6 -17  16   -2.64    2.19
   0   0 -17    0.35    1.24
   0   0 -17   -0.43    0.75
   0   0  17    0.51    1.77
   1   0 -17  296.59   63.11
   0  -1 -17  249.47   68.12
   0  -1 -17  302.09   59.39
   1   0 -17  326.46   60.03
   0   1 -17  253.70   67.39
  -1   0  17  265.22   74.55
   1  -1 -17   -0.23    0.81
   1   1 -17   -0.16    0.85
   1   1 -17    0.30    1.00
   1   1 -17   -0.47    0.89
   1  -1 -17   -1.23    1.12
  -1   1  17    0.41    1.48
  -1  -1  17    0.40    1.60
   2   1 -17    1.46    0.93
   1  -2 -17    1.25    1.20
   2   1 -17    2.19    1.07
  -2  -1  17    0.38    1.56
   0  -2 -17    0.35    1.28
   2   0 -17   -0.28    0.95
   0   2 -17   -0.19    0.82
   0   2 -17    0.68    1.21
   2   0 -17   -0.20    0.79
  -2   0  17   -1.06    1.51
   1   2 -17    0.29    1.13
   2  -1 -17    0.57    1.06
   2  -1 -17    1.15    0.72
   1   2 -17    1.74    0.84
   1   2 -17    2.12    0.91
  -1  -2  17   -0.82    1.65
  -2   1  17    1.09    1.54
   2  -2 -17   -2.11    1.13
   2   2 -17    0.68    0.85
   2   2 -17   -0.71    0.77
   2   2 -17    0.28    1.07
   2   2 -17    1.23    0.89
  -2  -2  17   -0.14    0.56
  -2  -2  17    1.15    1.71
   3   2 -17   63.24   13.73
   3   2 -17   60.56   14.86
   3   2 -17   54.79   12.55
   2  -3 -17   56.42   13.83
  -2   3  17   47.48   15.29
  -3  -2  17   54.63   12.00
  -3  -2  17   51.25   12.83
   1  -3 -17   38.87    9.38
   3   1 -17   35.75    8.75
  -3  -1  17   44.00   10.01
  -1   3  17   31.13   11.62
   0  -3 -17   20.83    4.18
   0   3 -17   15.83    4.50
   3   0 -17   14.02    4.37
   0  -3 -17   20.09    4.69
   0   3 -17   15.87    4.72
   3   0 -17   15.71    3.77
  -3   0  17   22.88    4.03
  -3   0  17   19.03    4.68
   0   3  17   22.05    5.82
   1   3 -17   48.55    8.92
   3  -1 -17   46.33    9.59
   1   3 -17   44.70   10.27
   1   3 -17   41.64    9.38
  -3   1  17   37.02    8.92
  -1  -3  17   37.77   12.13
  -3   1  17   43.30   10.20
   3  -2 -17   53.05   11.26
   2   3 -17   46.75   13.08
   2   3 -17   58.74   11.60
   3  -2 -17   60.00   13.13
   2   3 -17   52.35   13.20
  -2  -3  17   57.35   12.77
  -3   2  17   59.89   12.45
  -3   2  17   65.61   14.35
  -2  -3  17   58.31   14.38
   3   3 -17    1.10    1.10
   3  -3 -17   -0.59    1.13
   3   3 -17    0.22    0.84
   3   3 -17    1.13    1.14
   3   3 -17    0.27    1.05
   3  -3 -17    0.19    0.73
  -3  -3  17   -0.66    1.40
  -3  -3  17    0.17    0.75
  -3   3  17    0.69    1.06
  -3   3  17   -1.06    1.41
  -3  -3  17   -0.20    0.90
   4   3 -17    9.17    2.97
   3  -4 -17   12.03    3.03
   4   3 -17   10.15    2.97
   4   3 -17   10.46    3.02
   4   3 -17   11.65    3.02
   3  -4 -17    9.16    2.46
  -4  -3  17   11.97    2.74
  -4  -3  17   11.91    2.93
  -4  -3  17    9.07    3.14
  -3   4  17    9.55    3.50
  -3   4  17   11.73    2.98
  -4  -3  17   11.55    2.32
   4   2 -17  117.30   28.34
   4   2 -17   99.61   25.43
   4   2 -17  112.70   25.08
  -4  -2  17   81.93   27.20
  -2   4  17  128.92   31.14
  -4  -2  17  127.22   24.77
   1  -4 -17   12.45    3.70
   4   1 -17   14.59    3.73
   1  -4 -17   22.19    3.50
   4   1 -17   15.69    3.36
  -4  -1  17    9.33    3.84
  -4  -1  17   14.42    3.35
  -1   4  17   15.00    4.74
   4   0 -17    0.82    1.08
   0   4 -17    0.31    1.16
   0  -4 -17    0.50    0.80
   4   0 -17   -0.20    0.81
   0  -4 -17    0.35    1.37
   0   4 -17    0.45    0.99
  -4   0  17    0.43    0.85
   0   4  17   -1.00    1.95
  -4   0  17   -0.63    1.26
   1   4 -17   14.12    3.73
   4  -1 -17    9.06    3.06
   4  -1 -17   19.76    3.55
   1   4 -17   15.54    4.38
   1   4 -17   15.19    3.46
   1   4 -17   16.76    4.29
  -1  -4  17   17.10    4.65
  -4   1  17   14.24    4.04
  -1  -4  17   14.28    3.65
  -4   1  17   16.05    3.46
   4  -2 -17  129.45   22.15
   4  -2 -17  124.77   24.77
   2   4 -17  110.75   27.09
   2   4 -17  132.14   26.73
   2   4 -17  117.35   28.60
  -4   2  17  112.20   25.16
  -2  -4  17  137.80   28.01
  -2  -4  17  129.02   26.41
  -4   2  17  125.36   28.67
   3   4 -17   12.75    2.87
   4  -3 -17   10.50    2.82
   3   4 -17   12.13    3.10
   3   4 -17   12.78    3.01
   4  -3 -17   11.53    2.55
   3   4 -17   10.68    2.97
  -3  -4  17   11.01    2.70
  -3  -4  17   12.63    3.52
  -4   3  17   13.15    2.85
  -3  -4  17    9.96    2.79
  -4   3  17   14.72    3.48
   4   4 -17    0.70    0.96
   4   4 -17    0.29    1.08
   4  -4 -17    1.82    1.20
   4   4 -17   -2.21    1.45
   4   4 -17    0.25    1.00
   4  -4 -17    0.81    0.92
  -4  -4  17   -0.95    0.87
  -4  -4  17    0.54    0.67
  -4   4  17   -0.35    1.52
  -4   4  17   -0.25    1.22
  -4  -4  17    0.21    1.00
  -4  -4  17    1.20    1.37
   4  -5 -17    0.87    0.93
   5   4 -17    1.20    2.04
   5   4 -17    0.26    1.24
   4  -5 -17    0.29    1.12
   5   4 -17   -1.02    1.39
   5   4 -17    0.52    0.97
  -4   5  17    1.10    1.50
  -5  -4  17    0.91    1.12
  -5  -4  17   -1.79    1.02
  -5  -4  17    1.40    1.41
  -4   5  17    0.75    1.70
  -5  -4  17    1.93    0.94
   5   3 -17   62.04   14.35
   5   3 -17   60.26   13.82
   3  -5 -17   52.84   12.63
   5   3 -17   57.69   14.93
   3  -5 -17   58.91   14.06
  -3   5  17   56.76   15.43
  -5  -3  17   65.08   13.02
  -5  -3  17   57.73   11.86
  -5  -3  17   63.20   12.99
   2  -5 -17    6.82    1.56
   2  -5 -17    1.52    1.72
   5   2 -17    7.92    1.92
   5   2 -17    8.41    1.69
  -2   5  17    5.34    2.42
  -5  -2  17    5.36    1.93
   5   1 -17   71.91   12.81
   5   1 -17   64.23   11.61
   1  -5 -17   49.56   13.35
  -1   5  17   55.48   17.23
  -5  -1  17   52.76   13.28
   5   0 -17    0.64    0.92
   0   5 -17   -0.24    0.99
   0   5 -17    0.30    0.99
   5   0 -17    0.86    1.02
   0  -5 -17    0.24    0.85
   0  -5 -17   -1.04    1.32
  -5   0  17   -0.24    1.03
   0   5  17    1.04    1.85
   5  -1 -17   59.46   11.28
   1   5 -17   62.98   15.56
   5  -1 -17   51.04   12.74
   1   5 -17   57.55   13.82
   1   5 -17   45.95   13.66
  -5   1  17   58.59   12.32
  -1  -5  17   70.16   17.60
   5  -2 -17    8.48    1.84
   2   5 -17    5.01    1.93
   5  -2 -17    6.85    1.49
   2   5 -17    5.45    2.00
   2   5 -17    6.70    2.06
   2   5 -17    3.68    1.74
  -5   2  17    4.47    1.70
  -2  -5  17    5.04    2.29
  -2  -5  17    6.12    1.62
  -2  -5  17    5.48    1.55
   3   5 -17   54.90   14.66
   5  -3 -17   59.41   12.81
   3   5 -17   50.41   13.98
  -3  -5  17   60.47   13.20
  -5   3  17   57.23   12.96
  -3  -5  17   64.29   13.96
  -3  -5  17   59.59   14.60
   4   5 -17    0.69    1.60
   4   5 -17    1.77    0.99
   4   5 -17    0.99    1.30
   5  -4 -17    1.39    1.03
   5  -4 -17    1.54    1.28
   4   5 -17   -0.25    1.26
  -5   4  17    1.96    1.59
  -4  -5  17    1.79    0.99
  -4  -5  17    1.03    1.01
  -4  -5  17    2.74    0.81
  -5   4  17    1.65    1.41
  -4  -5  17    0.92    1.41
   5  -5 -17    2.13    1.93
   5  -5 -17    3.96    1.44
   5   5 -17    0.57    1.16
   5   5 -17    0.28    1.32
  -5  -5  17    0.21    0.99
  -5  -5  17   -1.16    1.18
  -5   5  17    1.53    1.83
  -5  -5  17    0.84    0.94
   6   5 -17   -1.95    2.95
   6   5 -17   -1.31    1.86
   5  -6 -17    1.92    1.32
   6   5 -17    0.34    1.31
   6   5 -17    2.55    1.46
   5  -6 -17    0.66    0.98
  -5   6  17    0.34    1.70
  -6  -5  17    1.22    1.51
  -5   6  17    1.71    1.73
  -6  -5  17    1.66    1.33
  -6  -5  17    0.24    1.00
   4  -6 -17   22.24    5.42
   6   4 -17   26.31    5.79
   4  -6 -17   16.84    5.23
   6   4 -17   23.92    5.67
   6   4 -17   20.97    6.27
   6   4 -17   23.18    7.73
  -4   6  17   23.58    6.84
  -4   6  17   18.74    6.61
  -6  -4  17   27.08    5.62
  -6  -4  17   27.65    5.09
  -6  -4  17   26.01    4.95
   6   3 -17    2.24    1.11
   3  -6 -17   -0.64    1.66
   3  -6 -17   -1.65    1.07
   6   3 -17    1.26    1.29
  -6  -3  17    2.92    1.02
  -3   6  17    0.36    2.29
  -3   6  17   -0.29    1.27
  -6  -3  17    2.70    1.33
  -6  -3  17    0.99    1.01
   6   2 -17   81.03   16.85
   6   2 -17   86.07   18.47
   2  -6 -17   71.24   15.62
   2  -6 -17   65.87   15.11
  -2   6  17   71.75   19.16
  -6  -2  17   75.99   15.58
  -2   6  17   79.76   22.61
   6   1 -17    0.33    1.18
   1  -6 -17   -0.23    0.84
   1  -6 -17    0.30    1.23
   6   1 -17   -0.84    0.98
  -6  -1  17    1.29    1.24
  -1   6  17   -2.38    2.10
   6   0 -17    0.33    1.21
   0  -6 -17   -0.23    0.72
   6   0 -17    0.27    1.17
   0   6 -17    1.62    1.17
   0   6 -17   -0.28    1.14
   0   6 -17    0.26    1.16
   0  -6 -17   -0.34    1.37
   0  -6  17   -0.42    0.81
  -6   0  17   -1.87    1.12
   0   6  17    0.58    2.07
   1   6 -17   -0.40    1.40
   1   6 -17    1.88    1.33
   6  -1 -17   -1.61    1.27
   6  -1 -17    0.80    1.07
   1   6 -17    1.19    0.93
  -1  -6  17    0.67    0.98
  -6   1  17    0.29    1.39
   2   6 -17   77.23   21.41
   6  -2 -17   85.95   16.31
   2   6 -17   69.30   18.06
   6  -2 -17   88.58   16.06
   2   6 -17   71.06   16.78
   2   6 -17   71.34   17.40
  -2  -6  17   77.03   16.31
  -6   2  17   70.81   16.40
  -2  -6  17   79.40   20.71
   3   6 -17    1.05    1.33
   6  -3 -17    4.65    1.59
   3   6 -17    3.94    1.68
   3   6 -17    1.69    1.11
   3   6 -17    1.41    1.22
  -3  -6  17    3.86    1.01
  -3  -6  17    0.44    1.04
  -6   3  17    0.61    1.75
  -3  -6  17    3.38    1.75
   4   6 -17   23.99    6.95
   4   6 -17   20.08    6.26
   4   6 -17   26.47    5.93
   6  -4 -17   27.88    4.91
   6  -4 -17   18.56    5.41
   4   6 -17   20.29    5.80
  -4  -6  17   29.36    5.61
  -4  -6  17   26.12    4.93
  -6   4  17   17.36    5.91
  -4  -6  17   27.99    4.87
  -4  -6  17   25.13    6.30
   5   6 -17   -0.29    1.29
   5   6 -17    6.28    2.46
   5   6 -17    2.13    1.83
   5   6 -17    2.10    1.19
   6  -5 -17   -0.26    1.30
   6  -5 -17    1.05    1.33
  -5  -6  17    3.80    1.82
  -5  -6  17    1.33    0.90
  -5  -6  17    0.47    1.16
  -5  -6  17    0.69    1.11
  -6   5  17   -0.33    1.58
   6  -6 -17   -0.24    0.93
   6  -6 -17    2.19    1.66
   6   6 -17   -1.80    1.48
   6   6 -17    0.35    1.26
   6   6 -17    0.61    3.12
   6   6 -17    3.85    2.15
  -6   6  17   -0.35    1.80
  -6  -6  17   -1.15    1.38
  -6  -6  17    1.24    1.06
  -6  -6  17    0.51    1.33
   7   6 -17    0.91    5.05
   6  -7 -17    6.93    2.15
   6  -7 -17    5.03    1.57
   7   6 -17    4.39    3.23
  -6   7  17    3.41    2.35
  -7  -6  17    6.95    1.88
  -7  -6  17    5.63    1.55
  -7  -6  17    8.37    2.32
   7   5 -17    0.75    1.69
   7   5 -17    3.78    4.21
   5  -7 -17    1.44    1.52
   7   5 -17   -1.04    2.28
   7   5 -17    0.88    1.58
   5  -7 -17   -0.45    1.06
  -7  -5  17    0.55    1.04
  -5   7  17    0.38    1.80
  -7  -5  17    2.99    1.33
  -5   7  17   -0.37    1.84
  -7  -5  17   -1.59    1.48
   4  -7 -17    6.38    1.27
   7   4 -17    3.41    1.88
   7   4 -17    2.93    1.65
   4  -7 -17    5.32    1.50
  -7  -4  17    2.30    1.79
  -4   7  17    4.17    2.02
  -4   7  17    2.03    1.84
  -7  -4  17    1.18    1.30
  -7  -4  17    2.61    1.31
   7   3 -17   76.54   17.27
   3  -7 -17   69.51   14.27
   7   3 -17   77.09   15.65
   3  -7 -17   78.01   13.86
  -3   7  17   45.80   16.83
  -7  -3  17   68.27   14.58
  -3   7  17   72.15   19.89
   2  -7 -17    7.06    2.45
   7   2 -17    7.35    2.89
   2  -7 -17   12.00    2.09
   7   2 -17    9.34    2.70
  -2   7  17    6.74    2.84
  -2   7  17    5.76    3.72
  -7  -2  17    6.39    2.61
   1  -7 -17   18.72    4.67
   7   1 -17   23.11    5.31
  -1   7  17   19.25    7.06
  -1  -7  17   25.40    4.97
   2   7 -17    8.11    2.46
   7  -2 -17   11.47    2.45
   2   7 -17    7.05    2.60
   7  -2 -17   10.67    2.54
  -2  -7  17   10.18    2.29
  -7   2  17   10.48    2.53
   7  -3 -17   50.48   13.75
   3   7 -17   66.35   15.44
   3   7 -17   66.54   14.97
  -7   3  17   69.66   14.08
   7  -4 -17    1.93    1.32
   4   7 -17    3.57    1.83
   7  -4 -17    2.93    1.64
   4   7 -17    7.66    2.25
  -4  -7  17    2.94    1.22
  -7   4  17    1.73    1.89
  -4  -7  17    1.72    1.05
   7  -5 -17   -1.80    1.37
   5   7 -17    1.43    1.85
   7  -5 -17   -0.38    1.39
   5   7 -17    0.95    2.24
  -7   5  17    0.76    1.64
  -5  -7  17   -1.24    1.18
  -5  -7  17   -0.95    0.90
   7  -6 -17    6.51    2.18
   6   7 -17    5.64    3.53
   6   7 -17    4.27    2.61
  -6  -7  17    2.63    1.72
  -7   6  17    4.46    2.27
  -6  -7  17    7.24    1.58
   7   7 -17    1.41    2.70
   7   7 -17    4.80    4.39
  -7  -7  17    1.54    1.05
  -7  -7  17    0.32    1.54
   8   7 -17    9.02    3.77
   8   7 -17    1.35    5.57
   7  -8 -17    3.42    1.41
  -8  -7  17    3.24    1.94
  -8  -7  17    4.22    1.33
   8   6 -17    3.76    2.76
   6  -8 -17    0.86    1.73
  -6   8  17   -1.22    2.03
  -8  -6  17    1.29    1.12
   5  -8 -17    7.70    2.14
   5  -8 -17    7.63    1.87
   8   5 -17    5.51    2.79
   8   5 -17   12.23    3.02
   8   5 -17    3.32    3.52
  -8  -5  17    5.58    2.53
  -5   8  17    6.49    2.92
  -5   8  17   12.50    2.73
   4  -8 -17    7.97    1.92
   4  -8 -17    4.39    1.63
   8   4 -17   10.13    2.57
   8   4 -17    4.07    2.36
  -8  -4  17    7.44    2.17
  -4   8  17    5.28    2.67
  -4   8  17   15.20    2.61
   8   3 -17   18.91    6.48
   8   3 -17   22.82    6.58
   3  -8 -17   30.04    5.31
   3  -8 -17   19.08    5.09
  -8  -3  17   30.10    5.79
  -3   8  17   25.71    7.47
  -3   8  17   28.99    6.52
   2  -8 -17   13.34    3.67
   8   2 -17   19.08    5.18
   8   2 -17   20.88    4.90
   2  -8 -17   18.38    4.20
  -8  -2  17   17.91    4.44
  -2   8  17   24.20    5.69
  -2   8  17   20.90    5.20
   1  -8 -17    1.65    1.01
   1  -8 -17    2.76    1.42
   8   1 -17   -0.49    1.60
   8   1 -17    1.10    1.74
  -1   8 -17    0.30    1.21
  -1   8  17    3.74    2.53
  -8  -1  17   -0.71    1.66
   0   8 -17   -1.01    1.72
   8   0 -17    0.72    1.58
   8   0 -17   -0.94    1.77
   0   8 -17   -0.31    1.44
   0  -8 -17   -0.34    1.39
   0   8  17    0.62    2.46
   0  -8  17   -0.51    0.99
  -8   0  17    1.47    1.71
   1   8 -17    0.90    1.30
   1   8 -17   -0.87    1.49
   8  -1 -17    6.19    2.06
   8  -1 -17   -0.36    1.45
  -1  -8  17   -0.24    1.06
  -8   1  17    1.51    1.89
   2   8 -17   16.11    4.43
   8  -2 -17   16.70    4.71
   8  -2 -17   14.69    4.92
   2   8 -17   15.44    4.27
  -8   2  17   14.34    4.48
  -2  -8  17   21.33    3.45
   3   8 -17   28.16    5.79
   8  -3 -17   26.84    6.28
   3   8 -17   22.06    5.97
  -8   3  17   24.89    5.61
  -3  -8  17   23.86    5.03
  -3  -8  17   20.46    5.41
   4   8 -17    2.17    2.43
   4   8 -17    1.31    2.23
   8  -4 -17    4.77    2.43
  -4  -8  17    3.24    1.34
  -4  -8  17    5.78    1.65
  -8   4  17    5.60    2.43
   5   8 -17    5.60    2.70
   5   8 -17    4.54    2.87
  -5  -8  17    6.61    1.86
  -5  -8  17    5.26    1.67
   6   8 -17    3.09    2.66
   8  -6 -17   -2.50    1.50
   6   8 -17    5.99    3.22
  -6  -8  17    0.27    0.95
  -6  -8  17   -0.28    1.27
   8  -7 -17   -0.30    1.61
   7   8 -17    2.78    2.88
   7   8 -17   15.94    5.22
  -7  -8  17    4.86    1.69
   8  -8 -17   -1.96    1.61
   8  -8 -17    0.56    2.20
  -8   8  17   -2.69    2.78
   8  -9 -17    6.91    2.10
   8  -9 -17   13.98    2.96
  -8   9  17    4.02    3.14
   9   7 -17    1.94    4.17
   7  -9 -17    6.28    1.71
   9   6 -17   -2.66    4.39
   5  -9 -17    2.06    1.55
   9   5 -17    0.49    2.27
   5  -9 -17    0.74    1.01
  -5   9  17    0.82    2.02
  -5   9  17   -1.72    2.05
   9   4 -17   61.46   12.33
   4  -9 -17   47.51   10.13
  -4   9  17   52.45   13.97
  -4   9  17   66.66   12.75
   3  -9 -17   14.03    3.29
   3  -9 -17   14.68    3.00
   9   3 -17   18.14    4.14
  -3   9  17   11.12    4.31
  -3   9  17   16.24    4.52
  -9  -3  17   17.27    3.94
   2  -9 -17    8.47    2.53
   2  -9 -17    8.51    2.08
   9   2 -17    7.73    2.88
   9   2 -17   10.64    3.37
  -2   9  17    9.21    3.18
  -9  -2  17   15.91    3.02
  -2   9  17    8.88    3.37
   1  -9 -17   -0.33    1.25
   9   1 -17    1.14    1.64
   1  -9 -17   -0.25    1.03
  -1   9 -17    3.20    1.50
   9   1 -17   -1.24    1.75
  -1   9  17   -1.17    2.25
  -9  -1  17    0.86    1.94
   1  -9  17    0.81    1.06
   0   9 -17    2.68    1.69
   0   9 -17    1.03    1.68
   9   0 -17   -0.57    1.85
   0  -9 -17    3.80    1.29
   0  -9  17    0.85    1.13
  -9   0  17    1.23    1.84
  -1  -9 -17    0.70    1.41
   9  -1 -17    1.72    2.04
   1   9 -17    2.33    1.60
   1   9 -17    4.58    1.95
  -9   1  17    1.76    1.99
  -1  -9  17    1.78    1.19
   2   9 -17    7.98    2.68
   2   9 -17    5.41    2.61
  -2  -9  17    9.38    2.03
   3   9 -17   12.38    3.93
   3   9 -17   17.99    3.69
  -3  -9  17   10.50    3.02
  -3  -9  17    9.45    3.22
   9  -4 -17   36.03   13.09
   4   9 -17   56.18   11.89
   9  -5 -17   -1.69    2.06
   9  -5 -17   -1.11    1.45
   5   9 -17    0.57    2.26
  -5  -9  17    1.39    1.33
  -9   5  17    0.48    1.94
   9  -6 -17   -1.08    1.69
   9  -6 -17   -1.20    1.97
  -9   6  17   -3.27    2.38
   9  -7 -17    6.87    2.86
   9  -7 -17    5.10    1.98
   7   9 -17   -0.96    4.68
  -7  -9  17    1.88    1.27
  -9   7  17   10.75    2.86
   8   9 -17    4.08    4.72
   8   9 -17    8.11    5.85
   9  -8 -17    1.04    2.21
   9  -8 -17    5.75    2.77
  -8  -9  17    8.89    1.54
  -8  -9  17    9.04    2.28
  -9   8  17    0.60    3.03
   9   9 -17   -1.23    4.73
   9  -9 -17   -0.33    1.46
   9  -9 -17    0.67    2.39
  -9   9  17    2.09    2.76
  -9  -9  17   -0.33    1.05
  -9  -9  17    0.91    2.14
   9 -10 -17    1.76    1.93
   9 -10 -17    6.58    3.11
  10   9 -17   -9.58    6.35
  -9  10  17    6.03    3.65
  10   8 -17    1.27    4.90
   8 -10 -17    3.75    1.62
   8 -10 -17    0.57    1.97
  -8  10  17    2.80    3.38
   7 -10 -17    1.07    2.32
   7 -10 -17    1.95    1.58
  -7  10  17    7.51    2.88
   6 -10 -17    1.99    1.51
   5 -10 -17    4.23    1.57
  10   5 -17   -0.62    2.91
  -5  10  17   -1.96    2.38
   4 -10 -17    1.17    1.10
   4 -10 -17    1.01    1.46
  -4  10  17    2.11    2.19
  -4  10  17    3.65    2.43
   3 -10 -17   27.64    4.71
   3 -10 -17   30.76    4.76
  -3  10  17   29.59    7.02
  -3  10  17   24.40    7.00
   2 -10 -17    4.81    1.65
   2 -10 -17    3.99    1.35
  -2  10  17    4.62    2.34
  -2  10  17    1.56    2.04
  -1  10 -17   -2.19    1.58
   1 -10 -17   -0.34    1.40
   1 -10 -17    2.48    1.16
  -1  10  17    3.25    1.85
  -1  10  17    1.73    2.11
   0  10 -17   -0.65    1.66
  10   0 -17   -2.06    2.15
   0 -10 -17   -0.35    1.40
  10  -1 -17    0.50    2.14
  -1 -10 -17    0.35    1.37
  10  -2 -17    0.96    2.29
 -10   2  17    2.53    2.27
   3  10 -17    9.49    5.42
  -3 -10  17   16.26    4.88
 -10   3  17   12.09    5.29
   4  10 -17    0.47    2.31
  10  -4 -17   -2.13    2.03
  -4 -10  17   -0.25    0.96
 -10   4  17   -0.56    2.14
  10  -5 -17   -2.04    1.72
   5  10 -17    1.35    2.79
   5  10 -17    0.58    2.78
  -5 -10  17    1.03    1.06
 -10   5  17    4.02    2.26
  -5 -10  17    2.89    1.48
   6  10 -17   -1.48    3.63
  10  -6 -17    4.08    2.26
   6  10 -17   -2.17    3.00
 -10   6  17    7.30    2.73
  -6 -10  17    4.81    1.42
  -6 -10  17    9.93    1.96
   7  10 -17   14.10    5.47
  10  -7 -17    3.58    1.84
   7  10 -17    0.88    3.64
  -7 -10  17    5.89    1.34
  -7 -10  17    1.09    2.05
 -10   7  17    3.24    2.63
   8  10 -17    1.10    4.38
   8  10 -17   -4.04    6.03
  10  -8 -17    1.55    1.75
  -8 -10  17    2.34    1.19
  -8 -10  17   -0.42    2.00
 -10   8  17   -1.48    3.14
  10  -9 -17    7.83    2.26
   9  10 -17   16.90    5.78
  -9 -10  17    4.97    1.35
  -9 -10  17    8.18    2.62
  10  10 -17    1.50    5.75
  10 -10 -17    1.06    1.77
  10 -11 -17   -1.51    1.69
   9 -11 -17    0.29    1.33
  -9  11  17    5.53    3.90
   8 -11 -17    3.34    2.47
   8 -11 -17    0.57    1.29
  -8  11  17   -3.96    3.74
   7 -11 -17    5.22    1.98
   7 -11 -17    5.27    2.65
  -7  11  17    4.62    2.65
  -7  11  17   14.05    4.25
   6 -11 -17   -0.78    1.22
  -6  11  17    0.90    2.25
   4 -11 -17    2.00    1.70
  -4  11  17    0.51    2.58
   3 -11 -17    6.50    1.73
   3 -11 -17    5.92    1.52
  -3  11  17    6.55    2.84
  -3  11  17    1.49    2.44
   2 -11 -17    0.33    1.30
   2 -11 -17   -0.54    1.16
  -2  11  17   -2.16    2.73
  -2  11  17   -0.41    2.22
   1 -11 -17    4.05    1.34
  -1  11 -17    1.21    1.98
   1 -11 -17    8.52    1.87
  -1  11 -17    3.44    2.00
   1 -11  17    2.78    1.59
   0  11 -17    6.82    3.38
   0 -11 -17   15.81    3.35
   0  11 -17    4.54    3.31
   0 -11  17   16.50    3.00
   1  11 -17    0.56    1.93
   1  11 -17   -2.37    2.23
  -1 -11  17    3.40    1.49
   2  11 -17    0.52    1.97
   2  11 -17   -2.17    2.17
  -2 -11  17    1.03    1.21
   3  11 -17   -0.88    2.46
   3  11 -17    1.11    2.47
  -3 -11  17    1.84    1.49
  -3 -11  17    5.50    1.64
   4  11 -17    0.60    2.56
   4  11 -17    1.92    2.36
  -4 -11  17    3.58    1.30
  -4 -11  17    2.36    1.42
   5  11 -17    6.37    3.41
   5  11 -17    6.59    3.11
  -5 -11  17    1.87    1.25
  -5 -11  17    2.70    1.57
   6  11 -17    1.56    3.46
   6  11 -17    3.86    3.24
  -6 -11  17    3.74    1.51
  -6 -11  17    2.05    1.23
   7  11 -17    5.27    5.34
   7  11 -17    7.62    4.61
  -7 -11  17    7.63    1.50
  -7 -11  17    3.31    2.04
   8  11 -17   11.00    6.78
   8  11 -17   -5.53    4.95
  -8 -11  17   -0.40    1.92
  -8 -11  17    3.31    1.13
   9  11 -17  -11.26    6.19
  -9 -11  17   -1.32    1.09
  -9 -11  17    7.83    2.56
  10  11 -17    4.93    7.33
 -10 -11  17    1.12    2.68
  -1  12 -17   19.66    4.21
  -1  12 -17   12.68    4.52
   1 -12  17   13.58    4.00
   0  12 -17    2.02    1.99
   0  12 -17    0.60    2.06
   0 -12  17   -0.32    1.35
   1  12 -17   12.57    4.27
   1  12 -17   11.40    4.47
  -1 -12  17   22.73    3.53
   2  12 -17    4.62    2.66
   2  12 -17    0.44    2.37
  -2 -12  17    7.61    1.57
  -2 -12  17    5.04    1.98
   3  12 -17   -0.47    2.31
   3  12 -17    1.21    2.25
  -3 -12  17   -0.59    1.16
  -3 -12  17    1.23    1.38
   4  12 -17    1.14    2.41
   4  12 -17    0.66    2.39
  -4 -12  17    1.55    1.34
  -4 -12  17   -0.29    1.02
   5  12 -17    2.95    2.96
   5  12 -17   -2.07    3.61
  -5 -12  17    1.45    1.17
  -5 -12  17    1.64    1.48
   6  12 -17   -6.38    3.62
   6  12 -17   -4.88    4.20
  -6 -12  17   -0.29    1.15
  -6 -12  17   -1.07    1.68
   8  12 -17   -1.39    6.52
   8  12 -17   -2.50    5.09
  -8 -12  17   -0.44    1.98
  -8 -12  17   -0.31    1.21
   9  12 -17   -3.43    7.89
   9  12 -17    1.55    6.10
  -9 -12  17   -0.33    1.11
  -9 -12  17   -1.52    2.36
  10  12 -17    1.66    6.81
 -10 -12  17   -1.62    2.61
  -1  13 -17   -2.71    2.36
  -1  13 -17   -0.42    1.83
   1 -13  17    0.71    1.42
   0  13 -17    4.37    2.15
   0  13 -17    1.28    2.16
   0 -13  17    1.31    1.45
   1  13 -17    0.65    2.15
   1  13 -17    1.79    2.36
  -1 -13  17    0.30    1.36
   2  13 -17    7.38    2.95
   2  13 -17    6.25    3.02
  -2 -13  17    4.33    1.83
  -2 -13  17   10.51    2.48
   3  13 -17   -3.88    3.22
   3  13 -17   -5.35    2.59
  -3 -13  17    0.29    1.15
  -3 -13  17    0.33    1.30
   4  13 -17    0.59    2.79
   4  13 -17    0.73    2.73
  -4 -13  17    2.90    1.50
  -4 -13  17   -0.95    1.26
   6  13 -17   -1.01    4.08
   6  13 -17    0.88    4.02
  -6 -13  17    1.85    1.67
  -6 -13  17    0.89    1.16
   7  13 -17   -1.12    4.11
   7  13 -17   -4.57    5.65
  -7 -13  17   -0.29    1.11
  -7 -13  17    0.81    2.03
   8  13 -17   -1.34    5.19
   8  13 -17    4.33    6.45
  -8 -13  17    0.89    2.07
  -8 -13  17   -1.59    1.32
   9  13 -17   -1.54    6.46
   9  13 -17    3.57    8.62
  -9 -13  17   -1.90    2.22
  -9 -13  17   -0.32    1.20
  10  13 -17    1.99    9.46
 -10 -13  17    0.58    2.93
  -1  14 -17    0.44    1.97
  -1  14 -17   -4.34    2.05
   1 -14  17    1.10    1.63
   1  14 -17    2.40    2.33
   1  14 -17    0.69    2.39
  -1 -14  17    0.62    1.46
   2  14 -17    0.49    2.32
   2  14 -17    0.69    2.30
  -2 -14  17   -1.00    1.35
  -2 -14  17   -0.64    1.46
   3  14 -17    2.24    2.82
   3  14 -17    0.75    2.80
  -3 -14  17   -0.30    1.25
  -3 -14  17    2.11    1.57
   4  14 -17   -0.82    3.63
   4  14 -17    3.99    3.57
  -4 -14  17    4.41    1.56
  -4 -14  17    5.38    1.96
   5  14 -17   -0.89    3.71
   5  14 -17    4.74    3.71
  -5 -14  17   -2.52    1.71
  -5 -14  17   -1.19    1.15
   6  14 -17    8.02    5.21
   6  14 -17    3.79    5.01
  -6 -14  17    0.75    2.04
  -6 -14  17    4.35    1.64
   7  14 -17    1.26    4.88
   7  14 -17    1.20    5.32
  -7 -14  17    0.60    1.03
  -7 -14  17   -0.40    1.84
   8  14 -17   -4.61    7.63
   8  14 -17   -9.28    6.96
  -8 -14  17    1.26    1.32
  -8 -14  17   -2.75    2.40
   9  14 -17    5.17    7.16
   9  14 -17    9.22    8.81
  -9 -14  17    0.53    2.65
  10  14 -17   -7.56    7.63
 -10 -14  17    1.69    2.40
  -1  15 -17   -2.32    2.37
  -1  15 -17   -0.50    2.50
   1 -15  17    1.91    1.61
   0  15 -17   -2.38    2.52
   0  15 -17    1.51    2.70
   0 -15  17    1.07    1.43
   1  15 -17    0.74    2.51
   1  15 -17    0.50    2.55
  -1 -15  17    0.76    1.52
  -1 -15  17    0.67    1.51
   2  15 -17   -2.65    2.47
   2  15 -17    2.38    3.01
  -2 -15  17   -1.05    1.38
  -2 -15  17    0.36    1.40
   3  15 -17    4.47    2.97
   3  15 -17    0.81    3.09
  -3 -15  17    0.34    1.32
  -3 -15  17   -0.71    1.62
   4  15 -17   -3.74    3.86
   4  15 -17   -1.36    3.48
  -4 -15  17    0.33    1.38
  -4 -15  17   -2.91    1.68
   5  15 -17   -3.32    4.39
   5  15 -17   -3.96    3.84
  -5 -15  17    1.90    1.56
  -5 -15  17    3.68    1.32
  -6 -15  17   -0.41    1.78
   7  15 -17    2.64    6.16
   7  15 -17   -2.69    5.68
  -7 -15  17    0.44    2.16
  -7 -15  17    6.47    1.47
   8  15 -17   -7.76    6.84
   8  15 -17   -3.25    7.93
  -8 -15  17    0.94    1.21
  -8 -15  17    4.82    2.52
   9  15 -17    5.67    7.87
   9  15 -17    7.42    7.10
  -9 -15  17   -2.01    1.08
  -9 -15  17    1.06    2.45
  -1  16 -17   -0.83    2.92
   1 -16  17   -1.17    1.65
   0  16 -17    0.82    2.74
   0  16 -17    0.52    2.84
   0 -16  17    1.07    1.64
   1  16 -17    0.81    2.88
   1  16 -17    2.73    2.75
  -1 -16  17    0.40    2.07
  -1 -16  17   -2.77    1.87
   2  16 -17   -3.65    3.21
  -2 -16  17   -1.92    1.83
  -2 -16  17    2.39    1.53
   4  16 -17    1.54    3.93
   4  16 -17   -0.97    3.95
  -4 -16  17   -4.30    1.46
  -4 -16  17   -0.38    1.81
   5  16 -17   -1.11    4.57
   5  16 -17   -1.82    4.55
  -5 -16  17   -1.59    1.82
  -5 -16  17   -0.33    1.25
   6  16 -17    1.24    4.91
   6  16 -17   -6.98    6.43
  -6 -16  17   -0.65    1.17
  -6 -16  17    0.42    1.98
   7  16 -17    1.42    7.02
   7  16 -17    6.43    6.57
  -7 -16  17    0.31    1.15
  -7 -16  17    4.02    1.92
  -8 -16  17   -0.49    2.20
  -1  17 -17   -1.08    2.94
  -1  17 -17   -2.68    2.78
   1 -17  17   -0.77    1.52
   0  17 -17    5.41    3.31
   0 -17  17    3.08    1.91
   1  17 -17    0.91    3.35
  -1 -17  17    3.04    1.52
   2  17 -17    3.85    4.34
   2  17 -17   -1.81    2.98
  -2 -17  17    2.62    1.65
  -2 -17  17    1.13    1.47
   3  17 -17   -1.39    3.43
   3  17 -17    4.86    3.70
  -3 -17  17    0.69    1.62
  -3 -17  17    1.46    1.58
   4  17 -17    1.09    4.53
  -4 -17  17    0.42    1.91
  -4 -17  17    0.36    1.24
   5  17 -17   -1.26    4.72
  -5 -17  17   -3.05    2.14
   0   0 -18  295.46   61.88
   0   0  18  280.74   77.50
   1   0 -18    0.64    1.19
   0  -1 -18   -1.83    1.41
   0  -1 -18    0.22    0.82
   0   1 -18   -1.09    1.31
   1   0 -18   -0.24    0.84
   0   1  18   -0.55    1.88
  -1   0  18    2.20    1.52
   0  -1  18   -1.08    1.92
   1   1 -18  115.51   25.11
   1  -1 -18  109.79   23.76
   1  -1 -18  103.44   26.10
   1   1 -18  110.99   23.95
   1  -2 -18    0.46    0.95
   2   1 -18   -0.23    0.86
   2   1 -18    0.29    1.14
   1  -2 -18    1.28    1.28
  -2  -1  18   -0.42    1.73
   2   0 -18   15.62    3.53
   2   0 -18   18.42    3.80
   0  -2 -18   17.25    4.20
   0   2 -18   14.58    4.26
  -2   0  18   12.93    4.83
   2  -1 -18    0.30    1.03
   1   2 -18   -1.23    1.18
   2  -1 -18   -0.42    0.89
   1   2 -18    0.76    0.88
   1   2 -18    0.57    0.99
  -1  -2  18    0.94    1.82
  -2   1  18    0.84    1.72
   2  -2 -18   13.14    2.66
   2   2 -18   11.80    2.82
   2  -2 -18   12.38    3.20
   2   2 -18   13.81    2.86
   2   2 -18    7.19    3.17
  -2  -2  18    9.28    3.52
  -2   2  18   15.54    4.07
   2  -3 -18    5.06    2.36
   3   2 -18    7.77    2.37
   3   2 -18    9.71    2.08
   3   2 -18   10.17    2.10
   3   2 -18    4.54    2.17
   2  -3 -18    9.78    1.90
  -2   3  18    7.52    3.18
  -3  -2  18    5.62    1.83
  -3  -2  18    8.59    2.04
  -3  -2  18    6.96    2.66
   1  -3 -18   72.48   16.42
   3   1 -18   77.57   16.57
   3   1 -18   76.76   15.31
  -3  -1  18   74.85   14.96
  -3  -1  18   66.61   17.46
  -1   3  18   60.03   20.42
   0   3 -18    0.34    1.27
   3   0 -18    0.22    0.87
   0   3 -18    1.34    1.00
   0  -3 -18   -0.49    0.86
   3   0 -18    0.87    1.02
   0  -3 -18   -0.38    1.42
  -3   0  18   -0.64    1.10
   0   3  18    0.56    2.06
  -3   0  18    0.32    1.25
   1   3 -18   65.20   15.85
   1   3 -18   64.94   18.34
   3  -1 -18   78.99   15.02
   1   3 -18   73.94   15.33
  -3   1  18   74.91   15.60
  -1  -3  18   59.84   20.38
  -3   1  18   50.35   16.49
   2   3 -18   10.14    2.13
   2   3 -18    8.76    2.26
   2   3 -18    9.71    2.57
   2   3 -18    9.12    1.95
   3  -2 -18    7.90    1.91
   3  -2 -18    7.56    2.28
  -3   2  18    7.19    2.13
  -3   2  18    7.56    2.64
  -2  -3  18   11.39    2.73
  -2  -3  18    6.43    2.10
   3   3 -18   49.53   13.03
   3  -3 -18   61.17   13.66
   3   3 -18   61.03   14.58
   3   3 -18   55.02   15.53
   3   3 -18   61.16   13.76
  -3  -3  18   60.94   14.87
  -3  -3  18   63.65   12.98
  -3   3  18   60.66   14.28
  -3  -3  18   61.55   12.85
   4   3 -18  107.43   25.33
   4   3 -18  123.49   26.11
   4   3 -18  116.48   26.43
   3  -4 -18  135.65   22.96
   4   3 -18  101.65   27.40
  -4  -3  18  120.52   24.04
  -3   4  18  101.74   27.29
  -3   4  18   97.33   26.29
  -4  -3  18   96.56   25.45
   2  -4 -18  154.18   32.13
   4   2 -18  163.68   37.03
   4   2 -18  159.11   34.00
   2  -4 -18  171.05   35.75
  -4  -2  18  166.26   35.08
  -4  -2  18  150.59   33.12
  -2   4  18  175.23   46.54
   4   1 -18   78.26   18.73
   1  -4 -18   86.08   17.45
   1  -4 -18   85.76   19.72
  -4  -1  18   78.62   18.25
  -1   4  18   83.92   24.56
  -4  -1  18   82.56   19.61
   0   4 -18   69.97   17.64
   0   4 -18   71.54   16.32
   4   0 -18   69.19   16.87
  -4   0  18   76.56   15.37
   0   4  18   74.26   23.24
  -4   0  18   80.55   17.56
   1   4 -18   86.58   22.54
   4  -1 -18   92.68   19.41
   1   4 -18   88.53   18.45
   1   4 -18   85.11   19.56
  -1  -4  18  100.68   25.31
  -4   1  18   82.23   20.99
  -4   1  18   80.93   18.25
   4  -2 -18  169.42   34.03
   4  -2 -18  159.06   35.66
   2   4 -18  144.85   37.33
  -2  -4  18  139.60   36.67
  -4   2  18  159.99   39.82
   3   4 -18  126.09   28.15
   3   4 -18  125.50   27.10
   3   4 -18  109.06   24.79
   3   4 -18  115.06   26.57
   4  -3 -18  106.46   25.43
  -4   3  18  105.76   28.73
  -3  -4  18  117.97   25.69
  -3  -4  18  118.68   26.50
  -3  -4  18  114.54   26.51
   4   4 -18   46.24   11.59
   4  -4 -18   47.67   11.01
   4   4 -18   55.13   12.27
   4  -4 -18   54.33   10.50
   4   4 -18   50.27   12.67
  -4  -4  18   55.81   10.75
  -4  -4  18   51.04   12.01
  -4   4  18   46.00   13.24
  -4  -4  18   42.34   11.86
  -4  -4  18   60.76   11.55
  -4   4  18   37.86   11.93
   5   4 -18   11.31    3.49
   5   4 -18   13.20    3.51
   4  -5 -18   15.03    3.00
   5   4 -18   14.44    3.66
   5   4 -18    9.06    3.93
   4  -5 -18   11.31    3.49
  -5  -4  18   13.56    3.08
  -5  -4  18   15.86    3.54
  -4   5  18    8.57    4.08
  -5  -4  18   14.30    2.88
  -4   5  18    8.43    3.54
  -5  -4  18   12.93    3.30
   3  -5 -18   20.73    4.72
   5   3 -18   17.78    5.54
   5   3 -18   19.63    5.35
   3  -5 -18   25.74    5.54
  -3   5  18   20.24    5.70
  -5  -3  18   28.78    5.66
  -3   5  18   21.41    6.90
  -5  -3  18   19.50    5.04
  -5  -3  18   20.30    5.00
   2  -5 -18   75.15   20.97
   5   2 -18   98.45   20.27
  -2   5  18  113.45   27.90
  -5  -2  18   96.61   18.61
  -5  -2  18   77.37   20.89
   5   1 -18    4.70    2.11
   1  -5 -18    9.86    2.02
   5   1 -18   10.99    2.29
   1  -5 -18    9.81    2.48
  -1   5  18   12.40    3.42
  -5  -1  18    7.31    2.09
  -5  -1  18    4.79    2.28
   0   5 -18    0.25    1.07
   0  -5 -18   -0.37    1.38
   5   0 -18   -0.30    1.01
   0  -5 -18   -0.23    0.86
   0   5 -18   -0.32    1.18
   5   0 -18    1.25    1.04
  -5   0  18    0.93    1.13
  -5   0  18    0.67    1.49
   0   5  18    0.59    2.02
   1   5 -18    8.36    2.33
   1   5 -18    8.78    2.33
   5  -1 -18   10.42    2.31
   5  -1 -18    6.13    2.13
   1   5 -18    8.87    2.64
  -1  -5  18    6.67    2.29
  -5   1  18    7.52    2.68
  -5   1  18    9.65    2.21
  -1  -5  18   10.60    3.36
   2   5 -18  103.22   22.73
   2   5 -18   97.97   20.72
   2   5 -18   87.19   20.45
   2   5 -18   99.75   25.24
   5  -2 -18  101.89   20.52
  -5   2  18   96.57   20.14
  -2  -5  18   82.04   24.11
   3   5 -18   25.66    6.04
   3   5 -18   27.41    5.57
   3   5 -18   23.69    5.28
   5  -3 -18   19.67    5.13
   3   5 -18   20.94    5.31
  -3  -5  18   21.92    6.28
  -5   3  18   15.17    5.20
  -3  -5  18   23.38    4.61
  -3  -5  18   28.54    5.06
   5  -4 -18   16.06    3.10
   5  -4 -18   12.72    3.35
   4   5 -18    8.99    3.65
   4   5 -18   12.49    3.88
   4   5 -18   14.77    3.54
   4   5 -18   14.07    3.51
  -5   4  18   11.67    3.89
  -4  -5  18   18.47    3.36
  -4  -5  18   16.31    3.25
  -4  -5  18   17.90    3.53
  -4  -5  18   13.44    3.03
  -5   4  18    5.51    3.33
   5   5 -18    1.25    2.18
   5   5 -18    2.54    1.30
   5  -5 -18    1.61    1.34
   5  -5 -18    2.11    1.31
   5   5 -18    5.07    1.97
   5   5 -18    2.57    1.51
  -5   5  18    6.84    2.11
  -5   5  18    2.41    1.68
  -5  -5  18    3.71    1.72
  -5  -5  18    3.82    1.17
  -5  -5  18    3.14    1.16
  -5  -5  18    4.83    1.50
   6   5 -18    2.23    1.70
   6   5 -18    0.33    1.45
   6   5 -18    0.97    1.26
   6   5 -18   -1.84    2.87
   5  -6 -18    0.33    1.22
   5  -6 -18   -0.65    0.91
  -6  -5  18   -0.60    1.42
  -5   6  18   -1.35    1.67
  -5   6  18   -0.39    1.78
  -6  -5  18   -0.29    1.34
  -6  -5  18   -1.25    0.93
  -6  -5  18   -0.47    1.20
   4  -6 -18    4.02    1.68
   6   4 -18    7.76    1.86
   4  -6 -18    4.54    1.50
   6   4 -18    6.83    1.83
  -6  -4  18    5.93    1.92
  -4   6  18    6.41    2.39
  -6  -4  18    4.60    1.57
  -6  -4  18    3.49    1.37
  -4   6  18    0.62    1.91
   6   3 -18  147.34   30.35
   3  -6 -18  133.70   30.45
   6   3 -18  143.28   33.32
   3  -6 -18  130.82   27.88
  -6  -3  18  139.60   28.20
  -3   6  18  142.49   35.95
   2  -6 -18    3.39    2.01
   6   2 -18    5.65    2.12
   6   2 -18   11.77    2.24
   2  -6 -18    9.75    1.82
  -2   6  18    4.14    2.45
  -2   6  18    5.24    3.18
  -6  -2  18    3.97    1.97
   0   6 -18   14.83    2.93
   6   0 -18    7.40    2.79
  -6   0  18    8.59    2.68
   0   6  18   14.06    4.44
   6  -2 -18    4.06    1.94
   6  -2 -18    5.99    2.02
   2   6 -18    5.50    2.13
   2   6 -18    8.18    2.12
   2   6 -18    9.48    2.54
   2   6 -18    7.24    2.27
  -2  -6  18    8.83    1.88
  -2  -6  18    8.38    2.86
  -6   2  18    8.41    2.16
  -2  -6  18    8.54    1.90
   6  -3 -18  116.55   26.85
   3   6 -18  146.49   32.01
   3   6 -18  132.18   32.09
   3   6 -18  136.31   31.40
   3   6 -18  126.12   35.77
  -3  -6  18  140.09   28.91
  -3  -6  18  133.43   29.72
  -6   3  18  141.71   27.82
  -3  -6  18  123.94   32.31
   6  -4 -18    4.94    1.63
   4   6 -18    5.38    2.13
   4   6 -18    3.44    2.06
   6  -4 -18    4.28    1.76
   4   6 -18    6.72    2.24
   4   6 -18    5.85    1.55
  -4  -6  18    6.68    1.61
  -4  -6  18    6.13    1.78
  -4  -6  18    2.63    2.21
  -4  -6  18    5.79    1.40
  -6   4  18    3.67    1.74
   6  -5 -18   -1.40    1.12
   5   6 -18    0.64    1.51
   5   6 -18    1.33    1.83
   5   6 -18    1.36    2.10
   6  -5 -18   -0.35    1.29
   5   6 -18    0.90    1.18
  -5  -6  18    0.72    1.01
  -5  -6  18    0.67    1.04
  -5  -6  18   -0.50    1.23
  -5  -6  18    0.99    1.63
  -6   5  18    0.32    1.55
   6   6 -18   20.33    6.80
   6   6 -18   20.45    6.50
   6  -6 -18   21.45    5.08
  -6  -6  18   25.03    5.26
  -6  -6  18   19.22    4.82
  -6  -6  18   19.19    4.51
  -6   6  18   30.41    6.03
  -6  -6  18   19.92    5.90
   7   6 -18   -2.79    4.40
   7   6 -18    4.93    2.54
  -7  -6  18    2.61    1.12
  -7  -6  18   -0.71    1.70
  -7  -6  18    2.56    1.36
   5  -7 -18    1.39    1.03
   5  -7 -18   -0.68    1.38
   7   5 -18   -0.43    1.63
   7   5 -18    1.64    1.47
  -5   7  18    4.49    2.02
  -7  -5  18    1.97    1.14
  -7  -5  18    1.01    1.63
  -7  -5  18    2.80    1.17
  -5   7  18    1.23    2.01
   4  -7 -18   16.16    3.90
   7   4 -18   15.34    5.04
   7   4 -18   22.31    5.15
   4  -7 -18   24.45    4.26
  -4   7  18   11.53    5.21
  -4   7  18   13.27    5.30
  -7  -4  18   18.20    4.30
   7   3 -18    1.07    1.58
   3  -7 -18   -0.22    1.00
   7   3 -18    0.81    1.56
   3  -7 -18    0.32    1.35
  -3   7  18    0.45    2.00
  -3   7  18    1.28    1.69
  -7  -3  18    0.33    1.65
   7   2 -18   53.97   14.12
   2  -7 -18   60.36   12.66
   7   2 -18   74.58   14.29
   2  -7 -18   62.69   10.84
  -7  -2  18   57.42   12.81
  -2   7  18   54.58   15.83
  -2   7  18   36.06   14.71
   1  -7 -18    0.35    1.31
   7   1 -18    1.64    1.61
   7   1 -18    1.93    1.38
  -1   7 -18    1.51    1.29
   1  -7 -18    2.14    0.98
  -1   7  18    3.29    2.38
  -7  -1  18    2.22    1.54
   7   0 -18    0.32    1.36
   0  -7 -18    0.36    1.47
   0   7 -18   -2.60    1.40
   7   0 -18   -0.69    1.30
   0   7 -18    1.82    1.39
   0   7  18    1.86    2.36
  -7   0  18   -0.30    1.51
   0  -7  18    0.23    0.93
   7  -1 -18   -0.34    1.30
   1   7 -18    2.66    1.40
   1   7 -18    0.58    1.41
   7  -1 -18    0.63    1.29
  -7   1  18   -0.31    1.47
  -1  -7  18    0.25    1.07
   2   7 -18   59.44   13.48
   2   7 -18   60.76   12.02
   3   7 -18    2.81    1.68
   3   7 -18   -1.64    1.45
   7  -3 -18    1.09    1.46
  -3  -7  18    0.49    1.15
  -7   3  18   -1.02    1.74
   4   7 -18   20.48    4.67
   7  -4 -18   18.44    4.04
   4   7 -18   13.90    4.69
  -4  -7  18   20.21    3.76
  -4  -7  18   17.25    3.75
  -7   4  18   18.42    4.29
   5   7 -18    0.49    2.01
   5   7 -18   -0.49    2.34
  -5  -7  18    3.19    1.15
  -5  -7  18    1.44    1.17
   6   7 -18    1.05    2.13
   6   7 -18   -1.96    3.43
  -6  -7  18    0.53    1.08
  -6  -7  18    4.41    1.46
   7   7 -18    2.70    4.85
   7   7 -18    3.72    3.43
   7  -7 -18    7.23    2.28
  -7  -7  18    7.58    2.10
  -7  -7  18    9.42    1.85
   7  -8 -18    2.40    2.12
   8   7 -18   -1.61    4.03
   8   7 -18    5.50    6.65
   7  -8 -18    1.59    1.28
  -8  -7  18    4.82    1.76
  -8  -7  18    5.14    1.41
  -7   8  18    7.95    2.73
   8   6 -18   12.69    6.06
   8   6 -18   20.27    8.80
  -8  -6  18   23.45    3.92
  -8  -6  18   17.64    3.66
   5  -8 -18    0.77    1.41
   8   5 -18   -0.51    1.78
   8   5 -18   -0.40    1.71
  -8  -5  18    2.71    1.84
  -5   8  18    0.81    2.06
   8   4 -18   22.53    4.75
   4  -8 -18   17.72    3.59
   8   4 -18   12.42    4.52
   4  -8 -18   16.27    3.67
  -8  -4  18   12.77    4.14
  -4   8  18   18.93    4.96
  -4   8  18   18.21    4.83
   3  -8 -18   24.01    5.05
   8   3 -18   22.41    5.71
   8   3 -18   23.63    6.59
   3  -8 -18   26.20    4.73
  -3   8  18   21.31    6.39
  -3   8  18   20.24    6.69
  -8  -3  18   22.43    5.34
   2  -8 -18   -0.67    0.95
   8   2 -18    0.36    1.69
   2  -8 -18    0.33    1.45
   8   2 -18   -1.95    1.97
  -2   8  18   -2.39    2.11
  -8  -2  18   -0.36    1.65
  -2   8  18    1.33    1.52
   8   1 -18   17.12    3.24
   8   1 -18    6.36    2.76
  -1   8 -18    9.46    2.63
   1  -8 -18    7.73    2.18
   1  -8 -18    4.69    2.63
  -8  -1  18    8.88    2.76
  -1   8  18   11.03    3.94
   0   8 -18   -0.32    1.46
   0  -8 -18    0.71    1.45
   8   0 -18    1.03    1.64
   0   8 -18   -1.55    1.71
   8   0 -18    0.47    1.68
  -8   0  18   -1.43    1.67
   0  -8  18   -1.12    1.18
   0   8  18    2.60    2.48
   1   8 -18    9.61    2.56
   8  -1 -18   10.74    3.07
   1   8 -18    7.14    2.69
  -8   1  18   11.14    2.76
  -1  -8  18   10.18    2.26
   2   8 -18    4.79    1.87
   2   8 -18    0.91    1.56
   8  -2 -18    0.93    1.66
  -8   2  18    0.38    1.70
  -2  -8  18    0.27    1.13
   3   8 -18   24.74    5.41
   3   8 -18   13.44    5.68
  -3  -8  18   19.86    5.08
  -3  -8  18   28.72    5.03
   4   8 -18   16.26    4.56
   4   8 -18   14.45    4.31
   8  -4 -18    6.92    3.93
  -4  -8  18   15.93    3.20
  -4  -8  18   19.56    3.46
   8  -5 -18    1.87    1.39
   5   8 -18   -3.16    2.55
   5   8 -18    0.53    2.27
  -5  -8  18    0.77    1.07
  -5  -8  18   -0.51    1.36
   8  -6 -18   20.62    4.95
   6   8 -18   19.91    5.46
   6   8 -18   17.48    6.20
   8  -6 -18   16.51    4.72
  -6  -8  18   16.55    3.58
  -6  -8  18   14.95    3.47
  -8   6  18    9.23    4.56
   7   8 -18    0.70    2.99
   8  -7 -18    2.60    2.38
   8  -7 -18    0.99    1.53
  -8   7  18    2.92    2.54
  -7  -8  18    4.50    1.76
   8  -8 -18   29.77    8.31
   8  -8 -18   33.77    7.52
  -8   8  18   39.74    9.05
   8  -9 -18    6.42    2.53
   8  -9 -18    4.80    1.59
   9   8 -18   -5.85    4.40
  -9  -8  18    3.32    2.07
  -8   9  18   -1.79    2.72
   9   7 -18   11.64    4.95
   7  -9 -18    9.03    2.48
   7  -9 -18    2.97    2.75
  -7   9  18   10.28    3.21
  -7   9  18    3.99    3.82
  -9  -7  18    8.39    2.51
   6  -9 -18    4.48    1.30
  -6   9  18   -0.43    2.22
   9   5 -18    5.55    2.85
   9   4 -18    0.49    2.03
   4  -9 -18    0.35    1.50
  -4   9  18   -1.59    2.12
  -9  -4  18    1.35    1.93
   9   3 -18   23.07    6.16
   3  -9 -18   25.29    4.71
   3  -9 -18   25.86    4.86
   9   3 -18   23.59    6.76
  -9  -3  18   22.00    5.36
  -3   9  18   19.56    6.71
  -3   9  18   24.44    6.27
   9   2 -18    7.44    2.64
   2  -9 -18    6.42    1.83
   2  -9 -18   12.89    2.32
  -2   9  18    2.18    2.59
  -9  -2  18    8.30    2.39
  -2   9  18    2.03    2.66
   1  -9 -18    9.36    2.77
   9   1 -18    4.06    3.63
   1  -9 -18    9.80    2.64
  -9  -1  18    9.64    3.15
  -1   9  18   17.20    4.50
   0   9 -18    1.12    1.53
   0  -9 -18    1.32    1.33
   0  -9  18   -0.57    1.00
   1   9 -18   14.54    3.29
  -1  -9  18   12.78    2.70
   9  -2 -18    4.34    2.49
   2   9 -18    8.38    2.45
  -2  -9  18    9.39    1.97
   3   9 -18   17.89    5.55
   9  -3 -18   12.36    5.63
  -9   3  18   13.42    5.22
  -3  -9  18   25.05    4.76
   9  -4 -18    1.09    1.98
   9  -4 -18    0.38    1.61
  -4  -9  18    3.75    1.27
  -9   4  18    2.76    1.89
   9  -5 -18    7.04    2.71
  -9   5  18    4.90    2.74
   6   9 -18    2.86    3.72
   9  -6 -18    1.02    1.51
   9  -6 -18    3.81    2.20
  -9   6  18    2.13    2.65
  -6  -9  18    4.50    1.26
   7   9 -18   -1.52    3.99
   9  -7 -18    6.13    2.91
   7   9 -18    0.97    5.26
   9  -7 -18   10.94    2.62
  -9   7  18   13.67    3.37
  -7  -9  18    7.17    1.79
  -7  -9  18   11.04    2.32
   8   9 -18   -3.61    4.11
   9  -8 -18    1.28    2.64
   9  -8 -18    0.34    1.55
   8   9 -18    2.61    6.05
  -9   8  18    2.48    3.11
  -8  -9  18    4.13    1.19
  -8  -9  18    2.89    1.74
   9  -9 -18   10.77    2.85
   9   9 -18    4.36    5.55
   9  -9 -18    4.07    3.15
  -9  -9  18    2.97    2.50
  -9   9  18    0.67    3.70
   8 -10 -18    3.51    1.71
   8 -10 -18    5.04    2.51
  10   8 -18   -1.22    5.00
  -8  10  18    7.70    3.46
   7 -10 -18    7.84    2.95
   7 -10 -18    8.94    2.25
  -7  10  18    4.95    3.81
  -7  10  18    2.14    2.70
   6 -10 -18    5.74    1.98
   6 -10 -18    3.35    1.39
  -6  10  18    5.88    2.39
  -6  10  18   -2.64    2.60
   5 -10 -18    1.50    1.14
   4 -10 -18    8.59    2.54
   3 -10 -18    3.66    1.60
   2 -10 -18   -0.80    1.18
   2 -10 -18    0.35    1.54
  10   2 -18   -3.47    2.70
  -2  10  18   -2.20    3.00
  -2  10  18   -2.48    2.28
  10   1 -18    0.48    1.85
  -1  10 -18   -1.13    1.72
   1 -10 -18    1.76    1.06
   1 -10 -18    0.35    1.39
  -1  10  18   -3.02    2.50
   1 -10  18    0.87    1.16
  -1  10  18    3.00    1.87
   0  10 -18   16.54    4.42
   0  10 -18    9.38    3.73
   0 -10 -18   18.05    3.94
  10   0 -18   19.34    4.50
   0 -10  18   18.67    3.72
 -10   0  18   11.32    4.29
   1  10 -18    5.53    1.73
  10  -1 -18    0.45    1.97
  10  -1 -18   -0.68    2.31
 -10   1  18   -0.51    2.05
   2  10 -18   -2.34    2.03
  10  -2 -18   -1.33    2.91
  10  -2 -18   -1.76    2.51
 -10   2  18   -2.89    2.24
  -3 -10  18    1.79    1.54
  -3 -10  18   -0.29    1.36
  10  -4 -18    3.89    3.38
   4  10 -18    8.90    3.55
  10  -4 -18    7.12    3.60
   4  10 -18   11.12    3.60
 -10   4  18   18.94    3.40
  -4 -10  18    6.59    2.19
  -4 -10  18   13.93    2.41
  10  -5 -18    4.67    2.02
   5  10 -18   -2.29    2.85
  10  -5 -18   -1.35    2.56
  -5 -10  18    1.18    1.41
 -10   5  18   -1.61    2.40
  -5 -10  18    0.27    1.05
   6  10 -18   -4.51    3.84
  10  -6 -18    0.42    1.86
  10  -6 -18    3.49    2.54
   6  10 -18    5.16    3.46
 -10   6  18    0.57    2.68
  -6 -10  18    8.28    1.71
  -6 -10  18    3.82    1.27
   7  10 -18    4.41    4.30
   7  10 -18    2.06    5.18
  10  -7 -18    7.61    2.73
  10  -7 -18    8.05    3.35
 -10   7  18    3.30    3.42
  -7 -10  18   12.73    2.35
  -7 -10  18   10.66    1.70
  10  -8 -18    0.73    1.91
   8  10 -18   11.67    6.48
   8  10 -18    3.96    4.22
 -10   8  18    2.88    3.20
  -8 -10  18    4.99    1.39
  -8 -10  18    6.50    1.91
  10  10 -18    8.52    7.20
  10 -10 -18    8.54    3.14
 -10 -10  18   18.29    3.44
  10 -11 -18   -1.90    1.69
   9 -11 -18    6.12    3.78
   9 -11 -18   13.93    3.38
  -9  11  18    4.16    4.76
   8 -11 -18   -1.27    1.47
   8 -11 -18   -1.82    2.30
   7 -11 -18   20.35    4.36
   7 -11 -18   14.85    4.80
  -7  11  18    7.79    5.97
  -7  11  18    5.02    5.59
   6 -11 -18    2.72    2.04
   6 -11 -18    5.31    1.56
  -6  11  18    1.35    2.36
  -6  11  18    3.53    3.02
   5 -11 -18   -0.53    1.23
  -5  11  18    0.45    2.08
  -5  11  18   -2.10    2.60
   3 -11 -18   -0.36    1.48
  -3  11  18   -0.48    2.28
   2 -11 -18    0.34    1.37
  -2  11  18   -0.43    2.12
  -1  11 -18   20.42    4.81
  -1  11 -18   20.49    5.38
   1 -11 -18    8.79    4.47
  -1  11  18   26.16    7.48
  -1  11  18   13.05    6.53
   1 -11  18   32.82    4.57
   0  11 -18   -3.08    2.06
   0  11 -18    0.39    2.00
   0 -11 -18   -0.37    1.56
   0 -11  18   -1.27    1.45
  -1 -11 -18   24.30    4.67
   1  11 -18   16.86    5.36
  -1 -11  18   24.19    4.09
   2  11 -18    5.42    2.32
   2  11 -18    1.15    1.98
  -2 -11  18   -3.29    1.39
   3  11 -18    0.58    2.39
   3  11 -18   -1.73    2.03
  -3 -11  18    3.39    1.57
  -3 -11  18    2.28    1.17
   4  11 -18   -1.50    2.43
   4  11 -18    0.61    2.38
  -4 -11  18    0.56    1.07
  -4 -11  18    1.19    1.40
   5  11 -18   -0.66    2.54
   5  11 -18   -0.62    2.99
  -5 -11  18   -0.82    0.96
  -5 -11  18    0.31    1.39
   6  11 -18    3.87    3.25
   6  11 -18    0.81    3.90
  -6 -11  18    4.08    1.35
  -6 -11  18    2.68    1.76
   7  11 -18   19.56    7.12
   7  11 -18   21.53    7.76
  -7 -11  18   30.89    3.33
  -7 -11  18   16.34    3.98
   8  11 -18   -1.11    4.43
  -8 -11  18    0.42    1.93
  -8 -11  18   -0.64    1.22
   9  11 -18   -5.30    7.26
   9  11 -18  -11.75    9.09
  -9 -11  18   14.80    3.21
  10  11 -18    1.52    6.19
 -10 -11  18    1.60    2.26
  -1  12 -18    2.42    2.00
  -1  12 -18    4.91    2.04
   1 -12  18    2.82    1.30
   0  12 -18   20.82    6.19
   0  12 -18   19.84    6.27
   0 -12  18   26.77    5.28
   1  12 -18   -0.60    2.05
   1  12 -18   -0.41    2.25
  -1 -12  18    5.39    1.62
   2  12 -18    7.90    3.37
   2  12 -18    9.33    3.49
  -2 -12  18   11.61    2.88
  -2 -12  18    9.51    2.59
   3  12 -18    4.88    2.50
   3  12 -18   -0.64    2.52
  -3 -12  18    2.96    1.40
  -3 -12  18    2.23    1.47
   4  12 -18    0.56    2.74
   4  12 -18    0.68    2.40
  -4 -12  18    2.28    1.67
  -4 -12  18    0.30    1.17
   5  12 -18   -6.08    3.24
   5  12 -18    2.15    2.64
  -5 -12  18   -1.14    1.22
  -5 -12  18   -1.26    1.50
   7  12 -18    1.12    5.37
   7  12 -18   -3.90    4.10
  -7 -12  18    2.13    1.73
  -7 -12  18    1.99    1.11
   8  12 -18   -4.78    4.70
   8  12 -18   -3.90    5.72
  -8 -12  18    0.98    1.19
  -8 -12  18   -0.42    1.93
   9  12 -18   -1.38    5.31
   9  12 -18    5.24    7.43
  -9 -12  18    0.44    2.14
  -9 -12  18    0.32    1.11
  10  12 -18    3.64    7.78
 -10 -12  18    3.34    2.49
  -1  13 -18   22.68    6.39
  -1  13 -18   13.22    5.97
   1 -13  18   14.84    5.12
   0  13 -18   -3.43    2.13
   0  13 -18    3.36    2.01
   0 -13  18    0.34    1.42
   1  13 -18   27.37    6.34
   1  13 -18   26.41    6.27
  -1 -13  18   33.63    4.69
   2  13 -18    0.68    2.36
   2  13 -18   -1.85    2.47
  -2 -13  18    1.03    1.52
  -2 -13  18   -0.68    1.60
   4  13 -18   -1.57    3.47
   4  13 -18   -0.59    3.17
  -4 -13  18    0.64    1.31
   5  13 -18   -0.72    3.35
   5  13 -18   -1.65    3.33
  -5 -13  18    1.73    1.70
  -5 -13  18   -0.94    1.28
   6  13 -18   -0.99    4.48
   6  13 -18    4.28    4.67
  -6 -13  18    4.59    1.97
  -6 -13  18    6.95    1.65
   7  13 -18   -5.78    5.44
   7  13 -18   -1.14    4.75
  -7 -13  18    1.15    1.15
  -7 -13  18   -0.40    1.95
   8  13 -18   -6.73    6.17
   8  13 -18    1.37    5.83
  -8 -13  18    3.43    2.02
  -8 -13  18    0.66    1.21
  10  13 -18    3.45    6.94
 -10 -13  18    3.75    2.80
  -1  14 -18    4.10    2.40
  -1  14 -18   -0.73    2.38
   1 -14  18   -0.34    1.31
   0  14 -18    4.54    2.65
   0  14 -18    2.20    2.83
   0 -14  18    6.99    1.93
   1  14 -18   -1.41    2.49
   1  14 -18    0.50    2.42
  -1 -14  18    1.00    1.41
   2  14 -18   -1.46    2.31
   2  14 -18   -1.53    2.48
  -2 -14  18    5.28    1.67
  -2 -14  18   -2.78    1.68
   3  14 -18    2.27    2.67
   3  14 -18   -2.29    3.16
  -3 -14  18    2.42    1.32
  -3 -14  18    2.71    1.57
   4  14 -18   -6.36    3.33
   4  14 -18   -0.81    3.21
  -4 -14  18   -1.31    1.43
  -4 -14  18   -0.69    1.74
   5  14 -18    2.37    4.03
   5  14 -18    2.61    3.63
  -5 -14  18    4.37    1.63
  -5 -14  18   10.07    2.24
   6  14 -18    5.55    4.75
   6  14 -18    1.01    3.69
  -6 -14  18    2.69    1.81
  -6 -14  18   -1.26    1.32
   7  14 -18   -7.16    6.89
   7  14 -18    4.88    5.42
  -7 -14  18    4.53    1.46
  -7 -14  18    3.33    2.31
   8  14 -18   -2.76    6.36
   8  14 -18   -7.16    6.98
  -8 -14  18    0.67    1.17
  -8 -14  18    2.60    2.23
   9  14 -18   -7.53    9.82
   9  14 -18   -8.39    7.30
  -9 -14  18    0.32    1.20
  -9 -14  18   -2.51    2.41
  10  14 -18   -7.45    7.82
 -10 -14  18   -2.17    2.53
  -1  15 -18    0.77    2.30
  -1  15 -18   -1.46    2.12
   1 -15  18   -1.06    1.50
   0  15 -18   -2.93    2.46
   0  15 -18    5.67    2.76
   0 -15  18    0.73    1.49
   1  15 -18   -0.51    2.55
   1  15 -18    1.55    2.83
  -1 -15  18    2.74    1.57
  -1 -15  18    1.44    1.63
   2  15 -18    0.55    2.48
   2  15 -18   -3.20    3.17
  -2 -15  18    1.41    1.51
  -2 -15  18    0.35    1.51
   3  15 -18   -4.91    2.86
   3  15 -18    1.14    2.90
  -3 -15  18    0.69    1.39
  -3 -15  18   -1.36    1.58
   4  15 -18   -4.50    3.60
   4  15 -18    1.38    3.03
  -4 -15  18    1.04    1.35
  -4 -15  18   -1.47    1.72
   6  15 -18   -1.01    5.42
   6  15 -18    5.50    5.06
  -6 -15  18    3.95    1.69
  -6 -15  18    8.91    2.39
   7  15 -18   -3.75    5.81
   7  15 -18   -4.28    6.23
  -7 -15  18   -1.58    1.29
  -7 -15  18   -2.53    1.90
   8  15 -18   14.25    6.80
   8  15 -18    4.66    6.94
  -8 -15  18    0.67    1.29
  -8 -15  18    1.86    1.95
   9  15 -18   -1.82    7.02
   9  15 -18    7.68    8.58
  -9 -15  18    1.07    2.34
  -1  16 -18   -3.22    2.95
  -1  16 -18    1.96    2.55
   1 -16  18   -2.91    1.87
   1  16 -18   -0.56    2.83
   1  16 -18   -3.43    3.36
  -1 -16  18   -0.36    1.87
  -1 -16  18  -10.38    2.36
   2  16 -18   -0.88    3.18
   2  16 -18   -3.69    2.98
  -2 -16  18   -0.71    1.60
  -2 -16  18   -1.80    1.59
   3  16 -18   -1.99    3.15
   3  16 -18   -3.57    3.08
  -3 -16  18   -0.96    1.31
  -3 -16  18    1.11    1.63
   4  16 -18    1.48    3.77
   4  16 -18    3.98    4.18
  -4 -16  18   -2.44    1.90
  -4 -16  18    0.34    1.38
   5  16 -18   -1.76    4.34
   5  16 -18    1.13    4.48
  -5 -16  18    0.32    1.35
  -5 -16  18    6.11    2.15
   6  16 -18    1.26    4.54
   6  16 -18   -4.54    6.18
  -6 -16  18    1.34    1.24
  -6 -16  18   -0.84    1.97
   7  16 -18   -1.41    6.00
  -7 -16  18   -2.72    2.14
  -1  17 -18    0.84    2.62
   1 -17  18    0.36    1.40
   0  17 -18   -0.97    2.88
   0  17 -18    1.62    2.54
   0 -17  18   -1.15    1.63
   1  17 -18    3.53    2.94
   1  17 -18   -0.93    3.19
  -1 -17  18    1.08    1.59
   2  17 -18   -4.89    3.81
   2  17 -18    7.97    3.24
  -2 -17  18   -0.37    1.30
  -2 -17  18   -1.83    1.65
   3  17 -18   -3.01    3.91
  -3 -17  18    0.39    1.67
   0   0 -19    1.14    1.22
   0   0  19    1.16    1.82
   0   1 -19  120.19   25.96
   1   0 -19  113.50   22.94
   1   0 -19  107.93   24.81
  -1   0  19  103.93   30.37
   0   1  19  121.65   33.62
   1   1 -19    0.26    0.93
   1  -1 -19   -0.25    1.05
   1   1 -19    2.30    1.37
   1  -1 -19    1.33    1.23
  -1   1  19    1.42    1.97
  -1  -1  19    2.01    1.77
   2   1 -19    0.31    1.23
   1  -2 -19   -0.33    1.23
   2   1 -19    0.70    0.84
   1  -2 -19   -1.47    0.96
  -2  -1  19    3.21    2.00
  -1   2  19   -0.97    1.81
   2   0 -19   -0.46    0.75
   0  -2 -19    1.95    1.50
   0   2 -19    3.67    1.40
   2   0 -19   -0.92    1.23
  -2   0  19   -0.83    1.69
   0   2  19    0.59    2.07
   1   2 -19   -0.31    1.18
   2  -1 -19    0.95    1.05
   1   2 -19    0.57    0.91
   1   2 -19    0.41    0.96
   2  -1 -19    0.23    0.82
  -1  -2  19    0.52    2.08
  -2   1  19    1.33    2.05
   2  -2 -19    3.00    1.26
   2  -2 -19    0.22    0.88
   2   2 -19    0.24    0.86
   2   2 -19    0.95    1.26
  -2   2  19   -1.86    1.91
  -2  -2  19   -2.03    1.73
   2  -3 -19  129.52   30.50
   3   2 -19  134.84   28.82
  -3  -2  19  117.70   26.56
  -3  -2  19  129.88   29.29
  -2   3  19  118.48   35.65
   1  -3 -19    8.77    1.93
   3   1 -19    5.67    2.14
   3   1 -19    9.12    2.04
   1  -3 -19    6.66    2.38
  -3  -1  19    6.98    1.97
  -3  -1  19    6.42    2.80
  -1   3  19    5.45    2.88
   0   3 -19   57.65   13.47
   3   0 -19   53.10   13.88
   0   3  19   65.16   19.55
  -3   0  19   65.88   13.07
  -3   0  19   64.11   15.28
   3  -1 -19    5.07    1.97
   1   3 -19    7.28    2.30
   3  -1 -19    6.81    2.15
   1   3 -19    6.45    2.17
   1   3 -19    8.11    2.07
  -3   1  19    9.83    2.18
  -1  -3  19   12.26    3.10
  -3   1  19   14.51    2.97
   2   3 -19  129.49   25.65
   2   3 -19  121.21   32.57
   2   3 -19  141.83   29.49
   3  -2 -19  125.66   26.23
   3  -2 -19  122.28   29.00
  -2  -3  19  127.08   28.06
  -3   2  19  106.66   28.41
  -2  -3  19  126.33   31.63
   3   3 -19   -0.71    1.22
   3   3 -19   -0.34    1.03
   3  -3 -19    0.65    1.29
   3   3 -19    0.75    1.07
   3   3 -19    1.48    1.15
  -3   3  19    0.26    1.23
  -3  -3  19   -0.18    0.80
  -3  -3  19   -1.04    1.03
  -3  -3  19   -0.38    1.69
   2  -4 -19   66.59   12.91
   2  -4 -19   52.16   11.10
   4   2 -19   58.68   12.74
  -2   4  19   45.83   15.85
  -4  -2  19   60.02   12.99
   1  -4 -19  120.11   23.77
   1  -4 -19  106.09   26.82
   4   1 -19  123.75   27.01
   4   1 -19  121.31   24.74
  -4  -1  19  112.30   24.56
  -4  -1  19  103.40   25.32
  -1   4  19  115.27   33.06
   0   4 -19   -1.07    1.33
   0  -4 -19   -1.10    1.47
   0   4 -19    0.50    1.06
   4   0 -19    0.30    1.17
   4   0 -19    0.94    0.98
   0   4  19    0.62    2.12
  -4   0  19    1.68    1.40
  -4   0  19   -0.23    1.08
   1   4 -19  114.36   25.08
   1   4 -19  109.48   26.70
  -1  -4  19   99.62   35.05
  -4   1  19  113.65   26.43
   2   4 -19   55.49   15.74
   2   4 -19   55.08   12.07
   4  -2 -19   55.35   11.58
   2   4 -19   53.89   14.59
   4  -2 -19   50.92   12.50
   2   4 -19   61.88   13.36
  -4   2  19   49.48   13.31
  -2  -4  19   57.94   13.11
  -4   2  19   61.06   12.17
  -2  -4  19   58.52   14.71
   4   4 -19   -0.31    1.39
   4   4 -19    0.28    1.17
   4  -4 -19    1.11    0.94
   4  -4 -19   -0.66    1.37
   4   4 -19   -0.85    1.21
   4   4 -19   -0.34    1.20
  -4  -4  19   -0.61    0.77
  -4  -4  19   -0.34    1.65
  -4  -4  19   -0.24    1.22
  -4  -4  19   -0.41    0.98
  -4   4  19   -0.28    1.44
  -4   4  19    0.37    1.71
   4  -5 -19   33.10    7.20
   4  -5 -19   38.04    7.07
   5   4 -19   34.35    8.50
   5   4 -19   35.99    8.72
  -4   5  19   30.07    9.09
  -4   5  19   32.59    8.20
  -5  -4  19   33.79    7.95
  -5  -4  19   31.78    6.84
  -5  -4  19   29.22    7.89
  -5  -4  19   34.77    7.30
   3  -5 -19  123.33   29.72
   5   3 -19  116.84   28.14
   3  -5 -19  146.63   25.73
   5   3 -19  120.72   29.68
  -5  -3  19  139.32   28.26
  -5  -3  19  134.05   29.53
  -3   5  19  119.08   36.93
   5   2 -19   96.34   21.37
   2  -5 -19   82.04   21.82
   5   2 -19  100.41   19.96
  -2   5  19  121.31   26.86
  -5  -2  19   90.56   20.18
   2   5 -19   84.41   21.16
   5  -2 -19  102.81   19.43
   2   5 -19   99.98   26.36
   2   5 -19   89.66   24.02
   5  -2 -19  100.57   21.53
  -2  -5  19   88.60   26.66
  -5   2  19  110.46   20.87
  -2  -5  19   97.29   21.91
   3   5 -19  122.22   28.11
   5  -3 -19  127.96   28.50
   3   5 -19  129.26   32.05
   3   5 -19  121.33   30.06
   3   5 -19  142.38   33.32
  -3  -5  19  141.68   31.36
  -5   3  19  124.12   28.25
  -3  -5  19  129.10   28.15
  -3  -5  19  130.53   29.75
   4   5 -19   31.23    7.92
   4   5 -19   34.73    8.36
   4   5 -19   31.65    7.73
   5  -4 -19   37.30    7.63
   4   5 -19   33.18    8.94
   5  -4 -19   28.95    6.71
  -5   4  19   34.54    7.75
  -4  -5  19   35.29    6.92
  -5   4  19   24.20    8.95
  -4  -5  19   35.15    8.58
  -4  -5  19   31.44    7.47
  -4  -5  19   34.39    7.80
   5  -5 -19    0.68    1.33
   5  -5 -19    0.24    0.99
   5   5 -19    0.43    1.95
   5   5 -19   -0.37    1.44
   5   5 -19   -1.82    1.34
   5   5 -19   -0.60    1.43
  -5  -5  19   -0.47    0.84
  -5  -5  19   -1.27    1.32
  -5  -5  19    0.34    1.66
  -5   5  19   -0.40    1.91
  -5  -5  19   -1.99    1.08
  -5   5  19    1.57    1.47
   5  -6 -19   22.44    4.52
   6   5 -19   21.53    4.55
   6   5 -19   20.64    5.28
  -6  -5  19   17.41    4.18
  -6  -5  19   19.50    4.41
  -6  -5  19   20.98    4.75
  -5   6  19   14.93    4.80
  -6  -5  19   15.07    4.08
   4  -6 -19   23.96    6.21
   6   4 -19   29.21    7.90
   6   4 -19   25.12    8.13
   4  -6 -19   32.86    6.67
  -4   6  19   33.83    7.58
  -6  -4  19   33.47    6.78
  -4   6  19   30.47    8.57
  -6  -4  19   22.30    6.92
   3  -6 -19   28.40    6.03
   6   3 -19   34.33    7.41
   6   3 -19   33.35    7.31
   3  -6 -19   26.99    7.09
  -3   6  19   32.63    8.35
  -6  -3  19   31.38    6.59
  -3   6  19   30.20    8.52
  -6  -3  19   27.75    6.26
   6   2 -19   85.17   20.77
   6   2 -19   92.90   19.09
  -2   6  19  103.77   24.73
  -6  -2  19   96.66   20.40
   6   1 -19   10.65    2.90
   6   1 -19   17.28    3.25
   1  -6 -19    9.21    3.14
   1  -6 -19    8.85    2.80
  -1   6  19   12.33    4.63
  -6  -1  19    7.48    2.93
   6   0 -19   -0.51    1.11
   0  -6 -19   -1.48    1.61
   0   6 -19   -0.33    1.42
   0   6 -19   -1.15    1.34
   6   0 -19   -0.33    1.30
  -6   0  19    0.56    1.30
   0   6  19   -2.54    2.32
   6  -1 -19   14.39    2.87
   1   6 -19   11.02    3.05
   1   6 -19   15.54    3.82
   1   6 -19   14.74    3.31
   6  -1 -19   12.27    3.32
  -6   1  19   15.95    3.20
  -1  -6  19   14.37    3.40
   6  -2 -19   94.57   20.39
   2   6 -19   93.46   20.28
   2   6 -19   91.73   27.76
   2   6 -19   85.22   21.40
   2   6 -19   86.89   22.02
  -2  -6  19   98.58   20.02
  -6   2  19   87.78   19.17
  -2  -6  19   97.62   20.25
   3   6 -19   33.70    7.33
   3   6 -19   20.44    8.15
   3   6 -19   28.99    7.03
   3   6 -19   33.24    7.15
   6  -3 -19   29.96    6.86
  -6   3  19   29.65    6.68
  -3  -6  19   25.17    6.74
  -3  -6  19   33.20    7.59
  -3  -6  19   32.81    6.42
   6  -4 -19   34.21    6.96
   4   6 -19   22.90    7.54
   4   6 -19   23.96    7.13
  -6   4  19   30.87    7.02
  -4  -6  19   28.97    6.26
  -4  -6  19   32.75    6.87
  -4  -6  19   34.42    6.51
  -4  -6  19   33.67    7.40
   6  -5 -19   14.47    4.38
   5   6 -19   17.82    5.42
   5   6 -19   19.92    5.10
  -6   5  19   20.87    4.82
  -5  -6  19   18.15    4.04
  -5  -6  19   18.60    4.88
  -5  -6  19   23.16    4.83
  -5  -6  19   14.40    3.99
   6   6 -19    0.49    1.91
   6   6 -19   -1.22    3.16
  -6  -6  19   -1.07    1.85
  -6  -6  19    1.26    1.21
  -6  -6  19    1.89    1.66
  -6  -6  19    2.67    1.13
   6  -7 -19   15.25    3.92
  -7  -6  19   17.79    3.26
  -6   7  19   15.81    4.86
  -7  -6  19   14.90    3.45
   7   5 -19    8.17    2.77
   7   5 -19   14.80    2.83
  -7  -5  19    9.19    2.52
   7   4 -19   -1.49    1.74
   4  -7 -19    0.67    1.46
   7   4 -19   -1.28    1.51
  -4   7  19   -0.36    1.77
  -7  -4  19    0.68    1.69
  -4   7  19   -0.41    1.96
   3  -7 -19   80.58   14.91
   7   3 -19   76.19   19.50
   3  -7 -19   71.57   17.03
   7   3 -19   85.43   16.39
  -7  -3  19   72.93   17.58
  -3   7  19   71.47   20.97
  -3   7  19   69.33   20.19
   2  -7 -19   14.99    4.40
   2  -7 -19   19.53    3.54
   7   2 -19   18.51    4.03
   7   2 -19   20.19    4.41
  -7  -2  19   16.37    4.20
  -2   7  19    8.45    4.92
  -2   7  19   16.57    5.41
   7   1 -19   35.99    6.91
   7   1 -19   25.15    6.63
   1  -7 -19   30.20    6.30
   1  -7 -19   22.05    7.34
  -1   7  19   39.77   10.21
  -7  -1  19   23.17    6.59
   0   7 -19    3.30    1.78
   0  -7 -19    5.20    2.02
   7   0 -19    4.84    1.95
   7   0 -19    5.54    1.81
  -7   0  19    4.18    1.92
   0  -7  19    8.29    1.69
   0   7  19    5.31    3.11
   7  -1 -19   28.28    6.73
   1   7 -19   25.94    6.91
   1   7 -19   30.54    8.22
   7  -1 -19   26.24    7.11
  -7   1  19   37.29    6.66
  -1  -7  19   36.52    7.08
   2   7 -19   24.86    4.54
   7  -2 -19   20.43    4.40
   2   7 -19   18.39    4.10
  -7   2  19   14.58    4.01
  -2  -7  19   15.54    3.84
   3   7 -19   72.13   17.48
   3   7 -19   79.78   17.63
  -3  -7  19   67.39   13.76
   4   7 -19   -0.39    1.85
   4   7 -19   -0.45    1.76
  -4  -7  19   -0.24    0.95
  -4  -7  19    0.25    1.01
   5   7 -19    8.15    3.27
   5   7 -19    8.98    2.74
   7  -5 -19    3.02    2.29
  -5  -7  19    7.69    1.92
  -5  -7  19    6.79    1.89
   7  -6 -19    7.81    3.87
   6   7 -19   13.31    5.01
   7  -6 -19   23.54    4.01
   6   7 -19   11.04    5.42
  -6  -7  19   21.43    3.57
  -6  -7  19   20.08    3.36
  -7   6  19   10.71    4.42
   7  -7 -19   -0.39    1.67
   7  -7 -19    0.79    1.25
   7   7 -19   -0.89    4.50
  -7  -7  19    2.75    1.28
  -7   7  19   -0.43    1.85
  -7  -7  19    2.01    1.42
   8   7 -19   58.72   19.15
   7  -8 -19   43.70   11.07
   8   7 -19   54.34   13.89
   7  -8 -19   60.23    9.62
  -7   8  19   35.05   12.08
  -7   8  19   39.72   13.01
  -8  -7  19   64.75    8.76
   6  -8 -19    9.43    2.74
   6  -8 -19    9.85    2.34
  -6   8  19    6.74    3.32
  -6   8  19    6.64    3.56
   8   5 -19    0.50    1.91
   5  -8 -19    0.99    1.12
   8   5 -19   -0.92    1.95
  -8  -5  19    1.21    1.79
   4  -8 -19    1.42    1.60
   8   4 -19   -1.30    1.86
   8   4 -19    1.98    1.85
  -4   8  19    2.37    2.01
  -8  -4  19    1.15    1.79
   8   3 -19    5.79    2.18
   8   3 -19   10.92    2.69
   3  -8 -19    4.01    1.88
  -3   8  19    2.10    2.40
  -8  -3  19    7.73    2.25
  -3   8  19    2.91    2.79
   8   2 -19   17.19    4.18
   2  -8 -19   18.05    3.36
   2  -8 -19   13.52    3.30
   8   2 -19   12.62    3.57
  -8  -2  19   17.01    3.70
  -2   8  19    7.14    4.41
  -2   8  19   10.59    4.22
   1  -8 -19    4.51    1.80
   8   1 -19    2.36    1.92
   1  -8 -19    4.33    1.47
  -1   8  19   -0.63    2.59
  -8  -1  19    2.44    1.95
   8   0 -19    0.97    1.73
   0  -8 -19   -0.37    1.51
   0   8 -19    0.66    1.56
   0   8 -19   -1.47    1.48
  -8   0  19    0.75    1.83
   0  -8  19    1.55    1.06
   1   8 -19    4.18    1.68
   1   8 -19    5.07    1.82
  -1  -8  19    2.63    1.30
   2   8 -19   14.64    3.75
   2   8 -19   14.53    3.82
  -2  -8  19   12.99    2.93
   3   8 -19    5.21    2.31
   3   8 -19    6.01    2.53
  -3  -8  19    9.05    1.71
   4   8 -19    3.11    2.03
   8  -4 -19   -0.48    1.92
   8  -4 -19   -0.35    1.45
   4   8 -19    2.51    1.93
  -8   4  19   -2.08    1.74
  -4  -8  19    2.10    1.32
  -4  -8  19    0.74    0.97
   8  -5 -19    0.68    1.63
   5   8 -19    0.49    2.14
   8  -5 -19    1.01    1.93
   5   8 -19    1.53    2.55
  -8   5  19   -0.44    2.23
  -5  -8  19    0.26    1.29
  -5  -8  19    1.03    0.99
   8  -6 -19    8.61    3.34
   6   8 -19   10.87    3.70
   8  -6 -19    8.90    2.76
  -6  -8  19   11.91    2.33
  -8   6  19    7.59    3.11
   8  -7 -19   53.81   10.94
   8  -7 -19   46.14   10.14
  -8   7  19   34.84   11.71
   8  -8 -19    2.20    2.09
   8  -8 -19   -1.98    1.50
   8   8 -19   -9.03    6.21
  -8  -8  19   -1.46    1.04
  -8   8  19   -1.54    2.43
   9   8 -19   13.37   11.61
   8  -9 -19   26.10    7.03
   8  -9 -19   28.05    7.61
  -9  -8  19   29.84    5.31
  -8   9  19   25.08    8.55
  -9  -8  19   30.74    6.44
   7  -9 -19    0.86    1.31
   7  -9 -19   -2.03    1.94
  -7   9  19   -2.16    2.18
  -7   9  19    5.50    2.75
   6  -9 -19    5.63    2.03
   6  -9 -19    6.97    1.79
  -6   9  19    4.20    2.58
  -6   9  19    6.07    2.69
   9   5 -19    0.50    2.35
   5  -9 -19    1.02    1.16
  -5   9  19    0.91    2.15
  -9  -5  19    3.33    1.97
   3  -9 -19    2.48    1.47
  -3   9  19   -0.38    2.00
  -9  -3  19    0.42    1.89
   2  -9 -19    0.72    1.47
  -2   9  19    2.24    2.00
   1  -9 -19    6.78    1.52
   1  -9 -19    4.78    1.78
  -1   9  19    8.52    2.73
   9   0 -19   15.86    4.92
   0  -9 -19   19.40    3.91
   9  -1 -19   -0.40    1.95
   9  -1 -19    1.68    2.14
  -9   1  19    2.80    2.22
   9  -2 -19   -1.53    1.45
   9  -2 -19    1.72    2.07
  -9   2  19   -0.82    1.80
   9  -3 -19   -2.88    2.06
  -9   3  19   -2.56    2.06
   9  -4 -19   20.36    5.44
   5   9 -19   -1.12    2.63
   9  -5 -19    1.19    2.22
   9  -5 -19    2.83    1.70
  -5  -9  19    1.61    1.07
  -9   5  19    3.26    2.26
   9  -6 -19    0.70    1.80
   6   9 -19    4.67    2.83
   9  -6 -19    1.82    2.39
   6   9 -19    2.78    3.41
  -9   6  19    1.97    2.35
  -6  -9  19    6.85    1.42
  -6  -9  19    2.07    1.58
   9  -7 -19   -1.52    1.74
   7   9 -19    9.76    4.94
   7   9 -19    0.75    2.92
   9  -7 -19    1.20    2.21
  -7  -9  19    2.78    1.07
  -7  -9  19    2.03    1.59
  -9   7  19   -3.76    2.46
   8   9 -19   21.37   11.62
   8   9 -19   31.36   10.52
   9  -8 -19   39.14    7.24
   9  -8 -19   35.48    8.23
  -8  -9  19   38.21    5.51
  -9   8  19   17.31    7.91
  -8  -9  19   34.41    6.23
   9   9 -19   -2.30    4.87
   9  -9 -19    1.22    1.33
   9  -9 -19    1.24    2.14
  -9  -9  19    2.16    2.10
  -9   9  19   -3.84    2.89
  -9  -9  19   -1.00    1.24
   9 -10 -19    4.32    3.22
  10   9 -19   15.69    6.04
   9 -10 -19    4.64    2.63
  -9  10  19   -1.52    4.05
   8 -10 -19    3.25    1.67
   8 -10 -19   -0.61    2.35
  -8  10  19    0.67    3.09
  -8  10  19    1.82    2.33
   7 -10 -19   20.98    4.70
   7 -10 -19   22.06    5.04
  -7  10  19   17.15    6.22
  -7  10  19   16.49    6.83
   6 -10 -19    4.17    1.85
   6 -10 -19    4.47    2.18
  -6  10  19    1.41    2.74
  -6  10  19    4.58    2.89
   5 -10 -19    0.38    1.67
   5 -10 -19    0.26    1.21
  -5  10  19    2.41    2.48
  -5  10  19   -2.37    2.36
   4 -10 -19    0.25    1.09
  10   4 -19   -0.56    2.56
  -4  10  19    0.96    2.10
  10   3 -19    1.67    2.37
   2 -10 -19    0.37    1.58
  10   2 -19    0.54    2.19
 -10  -2  19   -4.03    2.05
  -1  10 -19   24.33    6.27
  10   1 -19   26.50    7.32
   1 -10 -19   32.26    5.51
 -10  -1  19   10.25    6.21
  -1  10  19   30.53    7.73
   0 -10 -19   -0.38    1.82
   0  10 -19   -0.60    2.04
  10   0 -19   -3.30    3.19
   0  10 -19   -2.09    1.61
  10   0 -19   -3.01    2.83
   0 -10  19   -1.93    1.90
 -10   0  19   -0.93    2.25
   1  10 -19   28.10    5.88
  10  -1 -19   23.09    7.04
  10  -1 -19   11.58    6.97
   1  10 -19   30.66    6.24
  -1 -10  19   31.13    4.88
 -10   1  19   22.80    5.99
   2  10 -19    2.01    2.00
   2  10 -19    0.55    1.78
  10  -2 -19   -3.91    2.47
  10  -2 -19    0.46    2.07
 -10   2  19    2.45    2.40
  -2 -10  19   -1.97    1.20
   3  10 -19    4.32    2.20
  10  -3 -19   -1.30    2.27
   3  10 -19   -0.55    2.13
  -3 -10  19    1.49    1.28
 -10   3  19    2.45    2.26
  -3 -10  19    0.57    1.27
  10  -4 -19    4.31    1.98
  10  -4 -19   -1.29    2.28
   4  10 -19   -3.54    2.28
   4  10 -19   -3.46    2.50
  -4 -10  19    0.51    0.98
  -4 -10  19    0.29    1.31
 -10   4  19   -0.51    2.09
   5  10 -19   -0.59    3.01
   5  10 -19    0.61    2.33
  10  -5 -19   -1.26    1.95
  10  -5 -19   -1.33    2.58
  -5 -10  19    0.29    1.31
 -10   5  19   -0.53    2.50
  -5 -10  19   -1.79    1.36
  10  -6 -19    6.15    2.94
  10  -6 -19    6.14    2.43
   6  10 -19    9.16    3.77
   6  10 -19    0.73    3.63
 -10   6  19    3.49    3.16
  -6 -10  19    8.87    1.91
  -6 -10  19   10.31    1.63
   7  10 -19   10.25    6.81
   7  10 -19   11.28    7.93
  10  -7 -19   18.83    5.74
  10  -7 -19    9.00    5.42
 -10   7  19   13.80    5.67
  -7 -10  19   27.03    3.60
  -7 -10  19   29.51    3.95
  10  -8 -19   -0.37    1.77
   8  10 -19   -2.43    5.68
  10  -8 -19   -0.73    2.76
   8  10 -19    4.79    4.62
  -8 -10  19    1.88    1.95
 -10   8  19   -3.27    2.97
  10  -9 -19    5.53    3.68
  10  -9 -19    8.98    3.03
   9  10 -19   22.88    7.92
   9  10 -19    6.70    5.84
 -10   9  19   10.08    4.12
  -9 -10  19    8.59    2.66
  -9 -10  19   11.43    1.84
  10 -10 -19    1.90    1.83
  10  10 -19   -2.82    5.60
 -10 -10  19    1.01    2.25
 -10  10  19   -3.34    3.51
  10 -11 -19    2.40    1.98
   9 -11 -19   -1.49    3.05
   9 -11 -19    3.79    1.73
  -9  11  19   -0.82    3.93
   8 -11 -19   14.10    3.70
   8 -11 -19    8.39    2.43
  -8  11  19    7.05    3.21
  -8  11  19    5.73    3.78
   6 -11 -19    1.26    2.09
   6 -11 -19    5.54    1.71
  -6  11  19    3.51    3.11
  -6  11  19    3.19    2.60
   5 -11 -19   -0.54    1.20
   5 -11 -19    0.42    1.71
  -5  11  19   -0.56    2.67
  -5  11  19    1.88    2.27
   4 -11 -19    0.28    1.18
   4 -11 -19   -1.11    1.43
  -4  11  19    0.51    2.23
  -4  11  19   -0.53    2.49
   3 -11 -19   -0.53    1.11
  -3  11  19    1.59    2.19
  -1  11 -19   -0.81    1.91
   1 -11  19    0.63    1.23
   0  11 -19   37.26   10.75
   0 -11 -19   60.23    9.88
   0  11 -19   35.76   11.17
   1  11 -19    0.44    2.09
   1  11 -19    0.60    2.00
  -1 -11  19    0.87    1.14
   2  11 -19   10.25    3.96
   2  11 -19    7.73    3.75
  -2 -11  19   13.58    2.74
   3  11 -19    2.77    2.33
   3  11 -19   -1.19    2.29
  -3 -11  19    2.65    1.38
  -3 -11  19    1.21    1.26
   4  11 -19   -3.55    2.58
   4  11 -19    3.16    2.53
  -4 -11  19   -1.43    1.13
  -4 -11  19   -0.30    1.37
   5  11 -19   -0.68    2.74
   5  11 -19    1.22    2.78
  -5 -11  19    2.34    1.14
  -5 -11  19    0.31    1.44
   6  11 -19    4.83    3.57
   6  11 -19    6.24    3.77
  11  -6 -19    4.16    2.36
  -6 -11  19    2.86    1.73
  -6 -11  19    3.93    1.30
   8  11 -19   -3.83    5.92
   8  11 -19    2.22    5.79
  11  -8 -19    4.80    2.68
  -8 -11  19   11.40    1.79
  -8 -11  19    9.46    2.47
   9  11 -19   10.31    8.04
  11  -9 -19    6.23    2.17
   9  11 -19    3.74    5.69
  -9 -11  19    6.86    2.26
  -9 -11  19    1.90    1.19
  11 -10 -19    9.27    2.52
  10  11 -19    1.60    7.02
 -10 -11  19    9.57    2.96
  -1  12 -19   30.71    5.72
   1 -12  19   28.81    5.07
   0  12 -19   -2.99    2.09
   0  12 -19    0.69    1.86
   0 -12  19   -0.65    1.41
   1  12 -19   23.31    5.68
   1  12 -19   21.93    6.11
  -1 -12  19    8.34    4.44
   2  12 -19    1.82    2.19
   2  12 -19    1.92    2.36
  -2 -12  19    5.22    1.60
   3  12 -19    3.21    2.75
   3  12 -19    3.01    2.77
  -3 -12  19    3.00    1.60
  -3 -12  19    6.89    1.79
   4  12 -19   -1.04    2.52
   4  12 -19    2.01    2.80
  -4 -12  19    0.30    1.21
  -4 -12  19   -1.27    1.47
   6  12 -19   -1.72    4.43
   6  12 -19   14.03    3.93
  -6 -12  19    1.84    1.25
  -6 -12  19   -1.74    1.82
   7  12 -19    0.98    4.69
   7  12 -19   -1.11    5.79
  -7 -12  19    9.85    2.44
  -7 -12  19    7.63    1.84
   8  12 -19    7.00    4.83
   8  12 -19    1.33    6.21
  -8 -12  19   -1.30    1.97
  -8 -12  19   -0.91    1.13
   9  12 -19  -10.78    8.60
   9  12 -19   -2.71    5.64
  -9 -12  19    1.89    2.59
  10  12 -19  -12.28    7.35
 -10 -12  19   -1.49    2.43
  -2 -13  19   16.46    3.22
  -2 -13  19    5.07    2.36
   3  13 -19   -2.69    2.69
   3  13 -19   -2.07    2.59
  -3 -13  19   -0.33    1.44
  -3 -13  19   -0.30    1.29
   4  13 -19    2.93    2.82
   4  13 -19    4.90    3.08
  -4 -13  19   -0.34    1.57
  -4 -13  19    2.92    1.41
   5  13 -19    1.64    3.13
   5  13 -19   -3.69    3.95
  -5 -13  19    3.38    1.68
  -5 -13  19    3.15    1.38
   6  13 -19   -2.59    3.98
   6  13 -19    0.90    4.04
  -6 -13  19    1.46    1.76
  -6 -13  19   -1.94    1.28
   7  13 -19   -8.07    5.43
   7  13 -19    3.47    5.37
  -7 -13  19    0.39    1.77
  -7 -13  19    6.03    1.43
   8  13 -19   -9.61    6.44
   8  13 -19   -4.81    4.56
  -8 -13  19    2.01    1.93
  -8 -13  19    2.15    1.29
   9  13 -19    5.60    8.98
   9  13 -19   -1.53    6.36
  -9 -13  19    1.96    1.17
  -9 -13  19    0.47    2.18
  10  13 -19    6.74    6.81
 -10 -13  19   -0.53    2.49
  -1  14 -19   10.28    3.27
   1 -14  19   11.69    2.37
   0  14 -19   -2.32    2.19
   0  14 -19    0.78    2.33
   0 -14  19    1.72    1.38
   1  14 -19    0.74    3.59
   1  14 -19    4.13    3.23
  -1 -14  19    8.11    2.16
   2  14 -19   -1.52    2.49
   2  14 -19   -1.59    2.63
  -2 -14  19    0.33    1.56
  -2 -14  19    0.37    1.62
   3  14 -19    2.33    2.81
   3  14 -19    2.99    2.95
  -3 -14  19    2.95    1.40
  -3 -14  19    2.14    1.24
   4  14 -19   -1.62    3.20
   4  14 -19    1.90    3.35
  -4 -14  19    1.48    1.71
  -4 -14  19    0.69    1.42
   5  14 -19   -0.73    3.64
   5  14 -19   -1.80    3.74
  -5 -14  19   -0.65    1.40
  -5 -14  19    2.22    1.67
   6  14 -19   -0.99    4.28
   6  14 -19   -7.47    5.08
  -6 -14  19    7.58    2.23
  -6 -14  19    6.06    1.57
   7  14 -19    1.21    6.07
   7  14 -19   -1.26    5.60
  -7 -14  19    0.79    1.93
  -7 -14  19    0.60    1.32
   8  14 -19    1.40    7.00
   8  14 -19    1.42    6.20
  -8 -14  19    5.57    1.65
  -8 -14  19    3.60    2.14
   9  14 -19   -4.90    7.03
   9  14 -19   -1.92    9.44
  -9 -14  19    5.58    2.77
  -9 -14  19    7.92    1.72
  10  14 -19    3.60    7.76
 -10 -14  19   -3.82    2.77
  -1  15 -19    2.50    2.54
   1 -15  19   -2.48    1.28
   0  15 -19    4.19    3.70
   0  15 -19    8.57    3.38
   0 -15  19   10.02    2.45
   1  15 -19   -1.62    2.86
   1  15 -19    2.06    2.72
  -1 -15  19   -0.33    1.36
  -1 -15  19   -0.41    1.74
   2  15 -19    6.73    3.00
   2  15 -19   -1.66    2.98
  -2 -15  19   -1.36    1.57
  -2 -15  19    4.63    1.68
   3  15 -19   -4.96    3.46
   3  15 -19   -5.30    3.33
  -3 -15  19   -2.45    1.75
  -3 -15  19   -0.35    1.71
   5  15 -19    0.83    4.35
   5  15 -19   -3.16    4.23
  -5 -15  19    2.55    1.32
  -5 -15  19    1.90    1.66
   6  15 -19    6.60    4.91
   6  15 -19   -2.92    4.90
  -6 -15  19    2.40    2.07
  -6 -15  19   -0.33    1.42
   7  15 -19    1.26    5.57
   7  15 -19   -4.97    5.96
  -7 -15  19    2.21    1.35
  -7 -15  19    2.58    1.97
   8  15 -19    6.26    7.00
   8  15 -19   -5.95    7.35
  -8 -15  19    1.04    1.24
  -8 -15  19    7.40    2.42
   9  15 -19  -19.64    7.72
  -9 -15  19   -2.85    2.33
  -1  16 -19    2.01    2.52
   1 -16  19    0.74    1.42
   0  16 -19   -2.78    2.72
   0  16 -19   -2.73    2.83
   0 -16  19    0.38    1.37
   1  16 -19    2.85    2.84
   1  16 -19    0.86    2.88
  -1 -16  19   -2.04    1.36
  -1 -16  19   -1.28    1.72
   2  16 -19    9.63    3.22
   2  16 -19   -7.44    3.32
  -2 -16  19   -0.34    1.44
  -2 -16  19    2.25    1.45
   3  16 -19    0.67    3.51
   3  16 -19    0.95    3.46
  -3 -16  19    0.37    1.57
  -3 -16  19    0.38    1.62
   4  16 -19    2.96    3.45
   4  16 -19    1.48    3.84
  -4 -16  19    1.38    1.21
  -4 -16  19   -0.38    1.64
   5  16 -19    3.25    4.23
   5  16 -19    6.14    4.60
  -5 -16  19    2.65    1.45
  -5 -16  19    1.59    1.89
   6  16 -19    1.23    4.76
  -6 -16  19    5.84    2.24
   0  17 -19    0.97    3.45
   0 -17  19   -3.23    1.77
  -1 -17  19    0.39    1.55
   0   0 -20  163.11   36.80
   0   1 -20   -1.57    1.42
   1   0 -20   -2.04    1.34
   1   0 -20   -0.27    1.02
   0  -1 -20    1.63    1.60
   0   1  20   -0.62    2.35
  -1   0  20   -2.70    1.96
   1   1 -20   21.67    4.37
   1  -1 -20   18.63    4.36
   1  -1 -20   16.36    4.10
   1   1 -20   18.17    4.45
  -1   1  20   15.22    5.94
  -1  -1  20   23.67    6.02
   2   1 -20    0.50    1.05
   1  -2 -20    0.36    1.51
   2   1 -20    2.89    1.26
   1  -2 -20    3.57    1.02
  -1   2  20    1.65    2.01
  -2  -1  20    0.87    1.74
   2   0 -20    0.66    1.25
   2   0 -20    0.49    1.01
   0  -2 -20    1.58    1.56
   0   2 -20    0.39    1.52
   0   2  20   -0.62    2.38
  -2   0  20    0.86    1.94
   1   2 -20    1.82    1.20
   2  -1 -20   -0.33    1.37
   2  -1 -20    0.24    0.88
   1   2 -20    0.33    1.31
  -2   1  20   -0.42    1.85
  -1  -2  20    2.59    2.11
   2   2 -20   38.77   10.18
   2  -2 -20   45.87    9.93
   2   2 -20   51.60   10.50
  -2  -2  20   34.49   11.02
  -2   2  20   46.49   11.05
   1  -3 -20   61.41   15.08
  -3  -1  20   57.36   15.72
  -3  -1  20   57.83   14.14
   0   3 -20   -0.47    1.10
   3   0 -20   -0.94    0.97
   0   3 -20   -0.39    1.55
   0  -3 -20   -1.15    1.63
   3   0 -20   -0.95    1.27
  -3   0  20   -1.58    1.84
   0   3  20   -3.14    2.83
  -3   0  20    0.48    1.14
   3  -1 -20   60.79   13.21
   1   3 -20   70.01   15.21
   3  -1 -20   66.24   14.73
   1   3 -20   63.44   14.84
  -3   1  20   70.75   14.64
  -3   1  20   66.30   15.87
  -1  -3  20   63.99   19.57
   3   3 -20  160.64   34.85
   3   3 -20  166.29   34.36
  -3  -3  20  108.67   31.67
  -3   3  20  168.94   34.17
  -3  -3  20  158.89   37.99
   4   3 -20    3.38    1.44
   3  -4 -20    0.45    0.99
   3  -4 -20    0.33    1.46
   4   3 -20    1.99    1.31
  -3   4  20   -0.43    1.98
  -3   4  20    4.23    1.74
  -4  -3  20    0.35    1.76
  -4  -3  20    0.92    1.31
   2  -4 -20   98.87   22.78
   4   2 -20  112.54   23.12
   4   2 -20  104.74   23.46
  -4  -2  20   99.41   21.32
   1  -4 -20    1.77    1.10
   1  -4 -20    0.37    1.39
   4   1 -20    0.50    1.19
   4   1 -20    1.54    1.29
  -4  -1  20    0.93    1.19
  -4  -1  20    1.90    1.93
  -1   4  20   -0.57    2.72
   0   4 -20   95.65   19.76
   4   0 -20   90.40   19.16
   0  -4 -20   79.48   20.85
   4   0 -20   87.69   17.87
   0   4  20   81.82   28.34
  -4   0  20   83.05   20.22
  -4   0  20   78.26   18.70
   4  -1 -20    6.57    1.24
   4  -1 -20    1.88    1.31
   1   4 -20    0.98    1.20
   1   4 -20    2.94    1.34
  -4   1  20    1.90    1.80
  -4   1  20    2.01    1.32
  -1  -4  20    1.14    2.27
   2   4 -20   89.12   27.83
   2   4 -20  103.15   23.58
   4  -2 -20   91.17   22.01
   2   4 -20   95.91   25.89
   4  -2 -20   99.30   20.22
  -4   2  20  106.08   22.17
  -2  -4  20  112.60   26.09
  -2  -4  20  111.91   23.32
   3   4 -20    3.30    1.53
   3   4 -20    3.67    1.41
   3   4 -20    3.13    1.54
   3   4 -20    4.38    1.39
   4  -3 -20    0.32    1.35
  -3  -4  20    0.43    1.89
  -3  -4  20    2.66    1.26
  -4   3  20    4.02    1.39
  -3  -4  20    1.01    0.94
   4   4 -20   21.50    4.40
   4  -4 -20   13.22    3.88
   4  -4 -20   20.14    4.47
   4   4 -20   21.57    5.03
  -4   4  20   18.48    5.35
  -4   4  20   21.21    4.52
  -4  -4  20   16.30    4.51
  -4  -4  20   16.30    5.04
   5   4 -20   27.40    5.77
   5   4 -20   23.43    5.33
   4  -5 -20   23.43    5.17
  -4   5  20   23.81    5.62
  -5  -4  20   16.27    5.11
  -5  -4  20   29.04    5.55
   3  -5 -20   92.92   20.58
   5   3 -20   81.21   20.14
   5   3 -20   82.94   20.76
  -5  -3  20   84.08   19.40
  -5  -3  20   85.47   19.08
  -3   5  20   91.69   23.56
   5   2 -20  106.91   24.50
   2  -5 -20   94.74   23.64
   5   2 -20   96.23   23.40
  -5  -2  20   96.75   21.94
  -2   5  20  107.04   27.64
   5   1 -20  130.10   28.56
   5   1 -20  122.05   29.13
   1  -5 -20  116.90   26.92
   1  -5 -20  114.30   25.78
  -5  -1  20  124.69   26.99
   0  -5 -20   -0.39    1.47
   5   0 -20   -0.65    1.26
   0   5 -20    0.29    1.29
   5   0 -20    0.26    1.04
   0   5 -20    0.69    1.37
  -5   0  20    0.27    1.29
  -5   0  20    0.38    1.65
   0   5  20   -1.97    2.67
   5  -1 -20  127.43   26.15
   5  -1 -20  128.60   28.15
   1   5 -20  112.44   28.43
   1   5 -20  126.49   29.05
  -5   1  20  124.49   27.84
   2   5 -20  111.63   28.14
   5  -2 -20  112.37   22.70
   2   5 -20  112.64   22.33
   2   5 -20  112.04   28.54
   5  -2 -20  113.29   21.08
  -5   2  20  113.54   23.22
  -2  -5  20  117.46   22.87
  -2  -5  20   89.83   23.56
  -2  -5  20   91.32   29.43
   3   5 -20   91.02   23.02
   3   5 -20   96.12   19.71
   3   5 -20   88.11   21.05
   5  -3 -20   90.97   19.51
   3   5 -20   81.73   22.23
  -3  -5  20   91.78   21.05
  -3  -5  20   96.76   19.98
  -3  -5  20   91.50   18.96
   5  -4 -20   20.31    5.22
   4   5 -20   20.31    5.30
   4   5 -20   18.59    5.44
   4   5 -20   20.43    5.83
   4   5 -20   23.71    6.00
  -4  -5  20   27.01    5.61
  -4  -5  20   22.88    5.54
  -4  -5  20   22.43    5.02
  -5   4  20   18.41    5.47
  -4  -5  20   18.36    4.60
   5   5 -20   39.49    9.93
   5   5 -20   43.62   11.07
  -5  -5  20   42.26    8.41
  -5  -5  20   43.57    9.33
  -5  -5  20   39.22    9.38
  -5  -5  20   36.84    8.98
   6   5 -20   22.25    5.20
   6   5 -20   16.29    5.54
  -6  -5  20   17.06    4.81
  -6  -5  20   22.79    4.97
   6   4 -20   25.71    5.09
   4  -6 -20   16.13    4.71
   6   4 -20   16.96    5.02
  -6  -4  20   18.59    4.61
  -4   6  20   17.21    5.20
  -6  -4  20   18.48    4.49
   6   3 -20   69.76   16.65
   3  -6 -20   61.47   16.54
  -3   6  20   71.25   19.80
  -6  -3  20   51.38   14.38
  -6  -3  20   62.97   16.19
   6   2 -20   32.71    8.55
   2  -6 -20   37.73    7.41
   2  -6 -20   38.26    8.18
   6   2 -20   38.67    8.58
  -6  -2  20   31.84    7.81
  -2   6  20   30.31   10.60
  -2   6  20   41.99   10.70
  -6  -2  20   35.85    8.03
   1  -6 -20   32.25    5.73
   6   1 -20   31.54    6.61
   1  -6 -20   24.21    6.08
   6   1 -20   25.55    6.38
  -1   6  20   28.53    9.17
  -6  -1  20   28.19    6.54
  -6  -1  20   25.81    6.08
   0   6 -20    9.11    2.69
   6   0 -20   11.49    2.75
   6   0 -20   10.97    2.64
   0  -6 -20    8.56    2.83
   0   6 -20   12.89    2.89
  -6   0  20    7.84    2.95
   0   6  20    7.47    4.20
  -6   0  20    8.01    2.62
   6  -1 -20   28.73    6.25
   1   6 -20   27.89    6.43
   6  -1 -20   20.02    6.42
   1   6 -20   28.05    6.23
   1   6 -20   28.38    7.03
  -6   1  20   14.82    6.64
  -6   1  20   25.14    5.91
  -1  -6  20   27.67    6.14
   6  -2 -20   35.86    8.92
   2   6 -20   34.95    8.54
   2   6 -20   37.33    9.58
   2   6 -20   32.89    9.14
  -6   2  20   41.34    8.12
  -2  -6  20   50.33   10.84
  -2  -6  20   33.44    8.46
  -2  -6  20   44.01    8.50
   3   6 -20   82.87   18.09
   6  -3 -20   78.49   16.46
   3   6 -20   71.96   16.00
  -3  -6  20   72.75   15.18
  -3  -6  20   73.37   16.09
  -6   3  20   78.05   15.30
  -3  -6  20   58.00   18.56
   4   6 -20   14.71    5.10
   4   6 -20   19.78    4.89
  -4  -6  20   22.42    5.06
  -4  -6  20   21.52    4.09
  -4  -6  20   18.11    4.75
  -4  -6  20   17.98    4.44
   5   6 -20   25.45    5.52
   5   6 -20   20.35    5.44
   6  -5 -20   11.41    4.56
  -6   5  20   13.05    5.33
  -5  -6  20   25.92    4.32
  -5  -6  20   28.28    4.28
   6  -6 -20   10.53    2.89
   6  -6 -20   11.31    2.61
  -6   6  20   10.17    3.62
  -6  -6  20   12.30    2.44
  -6   6  20    2.62    3.13
  -6  -6  20    9.26    2.40
   6  -7 -20    2.68    1.64
   6  -7 -20    0.26    1.35
  -6   7  20    1.56    2.08
  -6   7  20    3.63    2.34
   7   5 -20    5.70    2.13
   7   5 -20    2.74    2.03
   5  -7 -20    4.32    1.46
  -7  -5  20    4.54    1.77
  -5   7  20    0.85    2.35
  -7  -5  20    3.24    2.04
   7   4 -20    8.80    3.36
   7   4 -20   12.60    3.23
  -7  -4  20   11.07    3.26
   7   3 -20    0.76    1.67
   7   3 -20    1.68    1.64
   3  -7 -20    4.40    1.76
  -7  -3  20    2.00    1.83
  -3   7  20    1.10    1.94
   7   2 -20   45.22   10.11
   7   2 -20   46.36    9.18
   2  -7 -20   41.96    9.79
  -7  -2  20   45.72    9.07
  -2   7  20   33.91   11.64
   7   1 -20   12.28    3.05
   7   1 -20   11.77    3.11
   1  -7 -20   12.08    3.15
   1  -7 -20   14.31    2.74
  -7  -1  20   13.21    3.05
  -1   7  20    9.59    4.49
   0   7 -20   -0.93    1.53
   0  -7 -20   -1.49    1.56
   7   0 -20    0.42    1.56
  -7   0  20    0.62    1.67
   1   7 -20    7.29    3.39
   1   7 -20    6.48    2.82
  -1  -7  20   12.54    2.99
   2   7 -20   42.55   10.67
   2   7 -20   38.58    9.46
  -2  -7  20   44.03    8.77
   3   7 -20    9.55    2.14
   3   7 -20    2.33    1.68
  -3  -7  20    4.89    1.47
   7  -4 -20    6.24    2.77
   4   7 -20    6.77    3.18
   4   7 -20   12.26    3.37
   7  -4 -20   12.94    3.38
  -4  -7  20   16.55    2.61
  -7   4  20    5.77    3.15
  -4  -7  20   12.57    2.74
   7  -5 -20    4.90    1.46
   7  -5 -20   -0.45    1.85
   5   7 -20    5.56    2.37
   5   7 -20    1.90    2.44
  -7   5  20   -0.37    1.91
  -5  -7  20    6.16    1.48
  -5  -7  20    2.57    1.42
   7  -6 -20    1.29    1.78
   7  -6 -20   -0.30    1.36
   6   7 -20    0.63    3.27
  -7   6  20    3.15    2.05
  -6  -7  20    4.39    1.49
  -6  -7  20    2.57    1.22
  -7   6  20    8.11    2.38
   7  -7 -20   41.61   10.06
  -7   7  20   50.33   10.60
   7  -8 -20    2.45    1.77
   7  -8 -20    0.57    1.41
  -7   8  20    0.86    2.07
  -7   8  20   -2.84    2.41
   6  -8 -20    8.92    2.17
   6  -8 -20    9.02    1.95
  -6   8  20    0.48    2.73
  -6   8  20    0.91    2.47
   5  -8 -20    0.77    1.09
   8   5 -20    3.31    1.78
   5  -8 -20    0.72    1.43
   8   5 -20   -0.97    1.72
  -5   8  20   -0.47    2.37
  -5   8  20    0.86    2.09
  -8  -5  20   -1.64    1.93
   4  -8 -20    3.05    1.48
   8   4 -20    3.11    2.13
   8   4 -20    3.75    1.91
  -8  -4  20    6.82    2.17
  -4   8  20    1.51    2.65
   8   3 -20    7.01    3.12
  -8  -3  20   14.32    3.00
   2  -8 -20   -0.71    1.46
  -2   8  20   -1.48    1.78
  -8  -2  20   -0.72    1.75
   1  -8 -20   12.91    2.88
   0  -8 -20    1.55    1.84
   8   0 -20    7.25    2.29
   0  -8  20    6.06    1.63
   1   8 -20   11.94    2.70
   8  -1 -20    6.70    2.92
   1   8 -20   11.80    3.17
  -1  -8  20    7.72    2.43
   2   8 -20   -1.49    1.71
   2   8 -20    3.39    1.92
   8  -2 -20    1.08    1.55
   8  -2 -20   -0.47    1.69
  -8   2  20   -0.41    1.88
  -2  -8  20    0.28    1.18
   3   8 -20    5.49    2.93
   8  -3 -20    7.17    2.91
   3   8 -20    8.45    2.89
  -3  -8  20    8.73    2.28
  -8   3  20   10.81    3.11
   8  -4 -20    2.50    1.75
   4   8 -20    2.92    2.08
   4   8 -20    5.92    2.40
   8  -4 -20    0.97    1.98
  -8   4  20    3.03    2.30
   8  -5 -20   -1.47    2.23
   8  -5 -20    1.16    1.29
   5   8 -20   -1.02    2.04
  -8   5  20    0.92    2.18
  -5  -8  20    2.44    1.34
   8  -6 -20    7.43    2.12
   8  -6 -20    3.55    2.48
  -8   6  20    3.86    2.68
   8  -7 -20    4.83    2.41
   8  -7 -20    0.32    1.49
  -7  -8  20    5.88    1.22
  -8   7  20    2.53    2.53
   8  -8 -20   48.12    7.93
   8   8 -20   44.72   10.28
   8  -8 -20   21.56    7.07
  -8   8  20   22.89    8.58
  -8  -8  20   41.21    6.31
   8  -9 -20   12.18    3.32
   8  -9 -20    7.96    2.82
  -8   9  20    7.10    3.53
  -8   9  20   11.88    3.79
   7  -9 -20   41.33    9.30
   7  -9 -20   48.49    8.72
  -7   9  20   33.37   11.18
  -7   9  20   38.46   12.13
   6  -9 -20   11.20    2.95
   6  -9 -20   17.27    3.29
  -6   9  20    9.77    4.06
  -6   9  20   10.42    4.14
   5  -9 -20   -0.41    1.62
   5  -9 -20   -0.26    1.18
  -5   9  20   -0.96    2.23
  -5   9  20    0.49    2.25
   4  -9 -20   11.27    2.24
   4  -9 -20    6.78    1.78
  -4   9  20    3.08    2.77
  -4   9  20    4.39    3.05
   9   3 -20    2.60    2.08
   3  -9 -20    0.78    1.29
  -3   9  20    1.06    2.76
   9   2 -20    1.70    1.95
  -9  -1  20    2.84    2.12
   9   0 -20    0.41    1.66
   0   9 -20   -1.11    1.92
   9   0 -20   -1.15    1.90
  -9   0  20    2.42    2.11
  -9   1  20    4.16    2.13
   9  -2 -20    6.67    2.34
   9  -2 -20    1.47    1.89
   2   9 -20    3.35    1.86
   9  -3 -20   10.05    2.62
   3   9 -20    3.24    2.22
  -3  -9  20    3.47    1.36
  -9   3  20    0.44    2.19
   9  -4 -20   10.37    2.37
   4   9 -20    2.42    2.81
   9  -4 -20    1.69    2.46
  -9   4  20    1.84    2.50
  -4  -9  20    5.50    1.63
   5   9 -20    0.56    2.44
   5   9 -20    0.55    2.61
   9  -5 -20   -1.98    1.86
   9  -5 -20   -2.30    2.09
  -5  -9  20    0.28    1.08
  -5  -9  20    1.99    1.40
  -9   5  20    2.92    2.46
   9  -6 -20    6.12    3.56
   6   9 -20    7.66    4.70
   9  -6 -20    8.96    3.86
   6   9 -20   12.35    4.03
  -6  -9  20   19.51    2.52
  -9   6  20    9.19    3.85
  -6  -9  20   11.64    2.75
   9  -7 -20   58.94   10.53
   7   9 -20   13.02   13.29
   7   9 -20   33.71   12.61
  -7  -9  20   27.02    7.60
  -9   7  20   37.19    9.98
  -7  -9  20   58.01    6.98
   8   9 -20   12.56    5.19
   9  -8 -20    6.59    2.55
   8   9 -20    4.70    6.69
  -9   8  20    4.54    3.44
  -8  -9  20    7.75    2.52
  -8  -9  20   13.17    2.22
   9  -9 -20   11.20    4.20
   9  -9 -20   13.07    4.13
   9   9 -20    1.58    9.01
   9   9 -20   11.98    6.88
  -9  -9  20   15.60    3.37
  -9   9  20    8.58    5.10
  -9  -9  20   25.90    3.07
   9 -10 -20   -1.96    2.78
   9 -10 -20    5.11    1.77
  -9  10  20    6.34    3.46
   8 -10 -20   35.50    5.55
   8 -10 -20   19.16    5.78
  -8  10  20    7.16    6.59
  -8  10  20   18.96    6.92
   7 -10 -20   -1.07    2.03
   7 -10 -20    1.19    1.41
  -7  10  20    0.61    2.85
  -7  10  20    0.50    2.40
   6 -10 -20    5.61    1.76
   6 -10 -20    2.37    2.29
  -6  10  20   11.13    2.93
  -6  10  20   -1.06    3.02
   5 -10 -20    6.85    2.07
   5 -10 -20    9.36    2.33
  10   5 -20    1.65    2.99
  -5  10  20    8.78    3.28
  -5  10  20   10.08    3.04
   4 -10 -20   -0.38    1.60
  10   4 -20   -1.09    2.47
   4 -10 -20   -0.80    1.29
  -4  10  20    4.67    2.51
  -4  10  20   -0.46    2.20
   3 -10 -20    1.57    1.24
  10   3 -20    1.62    2.64
   3 -10 -20    2.29    1.54
 -10  -3  20    1.49    1.90
  -3  10  20    3.20    2.41
  -3  10  20   -0.43    2.01
  10   2 -20    4.64    3.10
  10   2 -20   12.54    3.45
   2 -10 -20   11.18    2.22
  -2  10  20    5.74    3.62
 -10  -2  20    6.56    2.79
  10   1 -20    0.65    2.17
  10   1 -20   -1.49    2.41
  -1  10 -20    1.99    1.90
 -10  -1  20   -0.47    2.16
  10   0 -20   41.75   10.51
  10   0 -20   44.24   10.90
   0  10 -20   50.49    9.57
   0  10 -20   34.12    8.40
 -10   0  20   30.11    8.75
  10  -1 -20   -0.93    2.13
   1  10 -20    1.52    1.89
  10  -1 -20   -0.65    2.21
   1  10 -20   -0.59    1.79
 -10   1  20    1.39    2.06
  -1 -10  20    0.59    1.25
   2  10 -20    4.12    2.48
  10  -2 -20    4.06    2.83
   2  10 -20    2.23    2.44
  10  -2 -20    7.29    3.32
  -2 -10  20   14.62    2.09
 -10   2  20    6.77    2.70
  10  -3 -20    0.67    2.50
  10  -3 -20    1.26    1.96
   3  10 -20    2.21    2.23
   3  10 -20    2.14    2.23
 -10   3  20    2.05    2.33
  -3 -10  20    4.00    1.34
  -3 -10  20    0.57    1.31
  10  -4 -20   -0.68    2.31
   4  10 -20   -3.55    2.59
   4  10 -20   -1.72    2.11
  10  -4 -20    1.58    1.64
  -4 -10  20    1.28    1.12
 -10   4  20    1.07    2.41
  -4 -10  20   -2.74    1.41
  10  -5 -20    5.03    2.58
   5  10 -20    6.85    3.08
  10  -5 -20    0.68    3.03
   5  10 -20    3.03    3.39
  -5 -10  20    9.19    1.81
  -5 -10  20    7.07    1.90
 -10   5  20    3.35    2.96
  10  -6 -20    4.56    2.21
   6  10 -20    6.58    3.80
  10  -6 -20    3.47    2.74
   6  10 -20    6.09    3.10
  -6 -10  20    3.48    1.78
 -10   6  20    1.14    2.55
  -6 -10  20    7.56    1.60
   7  10 -20   -1.05    5.11
  10  -7 -20   -3.54    1.78
   7  10 -20   -0.80    3.19
  10  -7 -20    4.21    2.45
  -7 -10  20    1.45    1.19
 -10   7  20    0.59    2.74
  -7 -10  20   -0.34    1.43
  10  -8 -20   12.96    5.89
   8  10 -20    3.73    8.65
  10  -8 -20   27.38    6.56
   8  10 -20   10.57    8.30
 -10   8  20   11.05    5.99
  -8 -10  20   30.84    4.67
  10  -9 -20    6.10    2.21
  10  -9 -20    0.75    2.83
   9  10 -20   13.49    5.34
   9  10 -20   -1.68    7.40
  -9 -10  20    3.01    2.36
 -10   9  20    0.73    3.28
  -9 -10  20    8.40    1.58
  10 -10 -20    1.76    1.78
  10 -10 -20   -0.82    2.97
  10  10 -20   11.92    5.73
 -10  10  20    1.62    3.24
 -10 -10  20    5.25    2.26
  10 -11 -20    2.56    1.99
 -10  11  20   -1.86    3.90
   9 -11 -20    6.86    2.92
   9 -11 -20    2.87    2.00
  -9  11  20    9.30    4.12
  -9  11  20    1.55    2.76
   8 -11 -20    2.63    2.59
   8 -11 -20    4.40    1.62
  -8  11  20    0.74    3.65
  -8  11  20    1.02    2.62
   7 -11 -20    4.07    1.44
   7 -11 -20    0.56    2.16
  -7  11  20   -3.42    3.21
  -7  11  20    2.61    2.55
  11   5 -20    0.69    3.02
   5 -11 -20   -0.28    1.36
   5 -11 -20    2.07    1.71
  -5  11  20   -1.59    2.71
  -5  11  20   -0.54    2.48
  11   4 -20   -0.66    2.90
   4 -11 -20    1.94    1.59
   4 -11 -20   -0.87    1.22
  -4  11  20   -4.69    2.63
  -4  11  20    3.56    2.42
   3 -11 -20    2.20    1.59
   3 -11 -20    4.54    1.71
  11   3 -20    1.95    3.07
  -3  11  20    1.72    2.65
  -3  11  20    2.57    2.57
   2 -11 -20    0.74    1.59
   2 -11 -20    0.31    1.22
  11   2 -20    1.84    2.82
  -2  11  20    1.82    2.26
  -2  11  20    4.86    3.02
  -1  11 -20   57.79    8.67
  11   1 -20   20.64    9.77
  -1  11  20   44.07   11.00
  -1  11  20   33.15   11.90
  11   0 -20   -0.57    2.56
   0  11 -20    0.65    2.20
   0  11 -20    0.83    1.90
   0 -11  20    0.99    1.28
   1  11 -20   68.15    8.64
   1  11 -20   56.27    8.84
  11  -1 -20   18.83    9.69
 -11   1  20   37.77    8.35
   2  11 -20   -1.41    2.24
   2  11 -20   -0.60    1.92
  11  -2 -20    2.62    2.14
 -11   2  20    0.57    2.21
  -2 -11  20   -1.43    1.20
  11  -3 -20    2.95    2.33
   3  11 -20    5.98    2.43
   3  11 -20    3.34    2.42
  -3 -11  20    2.37    1.49
  -3 -11  20    3.51    1.51
 -11   3  20    2.83    2.27
  11  -4 -20   -0.48    1.92
   4  11 -20   -1.88    2.69
   4  11 -20   -5.16    2.62
  -4 -11  20    0.33    1.50
 -11   4  20    1.17    2.40
  -4 -11  20    1.97    1.14
   5  11 -20    0.62    3.19
  11  -5 -20   -2.34    2.39
   5  11 -20    0.68    2.59
 -11   5  20   -0.61    2.42
  -5 -11  20   -0.31    1.40
  -5 -11  20   -0.30    1.14
   7  11 -20    1.09    5.38
  11  -7 -20    3.46    1.98
   7  11 -20    1.84    3.91
  -7 -11  20   -0.70    1.67
 -11   7  20   -0.71    2.74
  -7 -11  20    6.77    1.46
   8  11 -20    1.00    3.90
   8  11 -20    9.11    6.26
  11  -8 -20    3.22    1.85
  -8 -11  20    3.99    1.36
  -8 -11  20    5.55    1.90
   9  11 -20   -1.20    5.25
  11  -9 -20    6.84    2.32
   9  11 -20   -8.83    8.43
  -9 -11  20    7.94    1.54
  -9 -11  20    2.14    2.20
  10  11 -20  -13.78    6.42
  11 -10 -20   -7.38    2.18
 -10 -11  20    0.45    2.13
  11 -11 -20   -1.78    1.73
  11 -12 -20    0.83    1.85
  -1  12 -20    1.60    2.10
   0  12 -20   43.89   11.98
   0  12 -20   46.97   12.11
   0 -12  20   55.18   10.81
   1  12 -20   -5.88    2.33
   1  12 -20   -2.60    2.35
  -1 -12  20   -0.99    1.32
   2  12 -20    7.19    4.46
   2  12 -20   13.10    4.30
  -2 -12  20   18.11    3.15
   3  12 -20   -0.65    2.32
   3  12 -20   -1.51    2.44
  -4 -12  20   -0.62    1.40
  -4 -12  20    5.71    1.64
   5  12 -20    0.76    2.85
   5  12 -20    1.32    3.34
  -5 -12  20    1.22    1.22
  -5 -12  20    0.69    1.64
   6  12 -20    0.84    4.24
   6  12 -20    0.80    3.65
  -6 -12  20    9.01    2.12
  -6 -12  20    6.22    1.70
   7  12 -20    1.04    4.36
   7  12 -20    1.13    5.12
  -7 -12  20    0.30    1.01
  -7 -12  20   -1.08    1.65
   8  12 -20    4.00    8.17
   8  12 -20    7.74    7.84
  -8 -12  20   17.01    3.27
  -8 -12  20   20.09    3.90
  10  12 -20    4.65    6.81
 -10 -12  20    4.14    2.58
  -1  13 -20    4.14    2.77
   1 -13  20    5.23    2.03
   0  13 -20   -2.20    2.62
   0  13 -20    0.44    1.92
   0 -13  20    0.73    1.42
   1  13 -20    5.60    2.94
   1  13 -20   16.02    3.13
  -1 -13  20    5.75    2.03
   2  13 -20    2.78    2.78
   2  13 -20   -0.49    2.40
  -2 -13  20    2.51    1.55
  -2 -13  20    3.97    1.67
   3  13 -20    2.11    2.94
   3  13 -20    0.74    2.93
  -3 -13  20    4.31    1.75
  -3 -13  20    7.46    1.89
   4  13 -20    0.62    3.29
   4  13 -20  -13.68    3.33
  -4 -13  20    0.34    1.52
  -4 -13  20   -0.33    1.45
   5  13 -20   -3.44    3.36
   5  13 -20   -3.67    3.61
  -5 -13  20    2.80    1.72
  -5 -13  20    2.17    1.21
   6  13 -20    4.48    4.32
   6  13 -20    0.92    3.83
  -6 -13  20    1.45    1.76
  -6 -13  20    3.31    1.46
   7  13 -20   -7.01    5.79
   7  13 -20   -2.07    4.25
  -7 -13  20    3.86    1.98
  -7 -13  20    2.45    1.19
   8  13 -20   -6.21    5.80
   8  13 -20   -6.97    6.52
  -8 -13  20    0.31    1.16
  -8 -13  20   -2.14    2.25
   9  13 -20    9.90    6.54
   9  13 -20    1.90    8.43
  -9 -13  20    1.40    1.14
  -9 -13  20   -1.46    2.35
  10  13 -20   21.22    8.21
  -1  14 -20    5.29    2.39
   1 -14  20    1.07    1.44
   0  14 -20   17.23    4.77
   0  14 -20   11.48    4.31
   0 -14  20   16.91    3.67
   1  14 -20   -2.64    2.47
   1  14 -20   -2.25    2.62
  -1 -14  20   -0.35    1.41
   2  14 -20    0.54    3.58
   2  14 -20    3.73    3.74
  -2 -14  20   18.49    3.34
  -2 -14  20   11.62    2.56
   3  14 -20   -1.60    2.72
   3  14 -20    1.80    3.00
  -3 -14  20   -0.32    1.34
  -3 -14  20   -3.19    1.64
   4  14 -20    3.81    3.26
   4  14 -20   -3.28    3.29
  -4 -14  20    1.41    1.64
  -4 -14  20    0.35    1.37
   5  14 -20    2.24    4.31
   5  14 -20    2.76    3.76
  -5 -14  20    1.09    1.75
  -5 -14  20    0.34    1.79
  -6 -14  20   -0.33    1.44
  -6 -14  20   -3.03    1.92
   7  14 -20    2.41    6.17
   7  14 -20    9.00    5.58
  -7 -14  20    4.10    1.55
  -7 -14  20    5.76    2.27
   8  14 -20    8.58    6.54
   8  14 -20    4.30    6.34
  -8 -14  20    5.72    1.52
  -8 -14  20    2.18    2.15
   9  14 -20   -2.97    5.79
   9  14 -20   19.43    9.21
  -9 -14  20   -0.70    1.14
  -9 -14  20   -0.45    2.17
  10  14 -20    1.87    7.68
 -10 -14  20    8.38    2.97
   3  15 -20   -4.36    3.54
   3  15 -20   -4.18    3.39
  -3 -15  20   -3.80    1.88
  -3 -15  20    0.35    1.45
   4  15 -20   -0.72    3.81
   4  15 -20    0.92    3.59
  -4 -15  20    0.35    1.47
  -4 -15  20   -0.36    1.50
   5  15 -20    4.22    4.20
   5  15 -20   -1.96    3.80
  -5 -15  20    3.33    1.43
  -5 -15  20   -1.15    1.70
   6  15 -20   -0.98    4.84
   6  15 -20   -5.50    4.72
  -6 -15  20    1.17    1.94
  -6 -15  20    4.72    1.53
   7  15 -20   -1.21    5.04
   7  15 -20    7.53    6.27
  -7 -15  20    4.71    1.50
  -7 -15  20    2.46    2.02
   8  15 -20   10.17    6.20
   8  15 -20    4.55    6.54
  -8 -15  20    2.22    2.19
  -1  16 -20    5.13    2.60
   1 -16  20    0.38    1.60
   0  16 -20    1.74    2.69
   0  16 -20   -3.58    3.37
   0 -16  20   -1.99    1.55
   1  16 -20    2.25    2.86
   1  16 -20    0.90    2.75
  -1 -16  20   -0.44    1.80
  -1 -16  20   -1.45    1.47
   2  16 -20   -3.15    2.92
   2  16 -20    3.58    3.16
  -2 -16  20    0.73    1.59
  -2 -16  20   -0.40    1.69
   3  16 -20    4.77    3.61
   3  16 -20    1.97    3.06
  -3 -16  20   -1.11    1.66
  -3 -16  20   -0.38    1.74
   4  16 -20    0.74    3.66
   4  16 -20    2.92    3.49
  -4 -16  20    0.68    1.49
   5  16 -20   -4.34    4.06
  -5 -16  20   -0.42    1.94
   1   0 -21   42.23    8.97
   0   1 -21   41.18    9.69
   0  -1 -21   42.53    9.42
   1   0 -21   40.06    8.94
  -1   0  21   35.15   11.93
   1   1 -21    1.56    1.11
   1   1 -21    2.53    1.49
   1  -1 -21    1.12    1.13
   1  -1 -21    1.12    1.57
  -1   1  21   -0.59    2.59
  -1  -1  21   -1.10    2.40
   2   1 -21    8.70    2.26
   1  -2 -21    3.01    2.23
   1  -2 -21    6.88    1.89
   2   1 -21    8.82    2.18
  -2  -1  21    8.74    2.76
  -1   2  21    4.18    3.24
   0   2 -21   -0.40    1.50
   2   0 -21   -0.34    1.28
   0  -2 -21   -0.40    1.54
   2   0 -21    0.88    1.08
   0   2  21   -2.65    2.77
  -2   0  21   -0.47    1.85
   2  -1 -21    3.96    2.15
   2  -1 -21    9.27    2.01
   1   2 -21    6.80    2.21
   1   2 -21    8.84    2.28
  -2   1  21    6.09    2.81
  -1  -2  21   10.66    3.34
   2  -2 -21   -0.38    1.42
   2  -2 -21    0.49    0.98
   2   2 -21    1.82    1.31
   2   2 -21   -1.42    1.57
  -2  -2  21    2.47    2.19
  -2   2  21   -2.36    2.15
   3   2 -21   54.48   15.84
   3   2 -21   73.33   16.20
  -3  -2  21   72.80   18.08
  -3  -2  21   72.64   14.81
   1  -3 -21   -0.77    1.59
   3   1 -21    0.65    1.26
   3   1 -21    2.66    1.07
  -3  -1  21   -0.92    1.90
  -3  -1  21   -0.49    1.24
   0   3 -21   33.97    8.47
   3   0 -21   34.81    7.76
   0  -3 -21   30.06    8.61
   3   0 -21   37.08    8.12
  -3   0  21   35.76    8.82
  -3   0  21   35.63    7.98
   1   3 -21   -0.70    1.41
   3  -1 -21   -0.50    1.08
   3  -1 -21   -0.99    1.41
  -1  -3  21   -0.61    2.26
  -3   1  21    1.75    1.82
  -3   1  21    0.27    1.13
   2   3 -21   68.95   15.99
   3  -2 -21   68.08   13.70
   3  -2 -21   66.74   15.39
  -2  -3  21   61.48   17.87
  -3   2  21   73.70   15.89
  -3   2  21   63.76   17.40
   3  -3 -21    0.35    1.52
   3   3 -21    0.32    1.25
   3   3 -21    2.06    1.31
  -3  -3  21   -1.35    1.98
  -3  -3  21    0.48    1.13
  -3   3  21    0.57    1.27
   4   3 -21   53.91   12.38
   3  -4 -21   46.26   12.81
   4   3 -21   67.46   13.57
  -4  -3  21   66.75   13.84
  -3   4  21   44.94   13.49
  -4  -3  21   60.40   12.30
   2  -4 -21    3.68    2.25
   4   2 -21    4.79    2.19
   4   2 -21   10.95    2.24
   2  -4 -21   11.87    2.08
  -4  -2  21   10.81    2.95
  -2   4  21    6.96    3.11
  -4  -2  21    5.34    2.03
   4   1 -21   87.98   18.41
   1  -4 -21   76.53   19.45
   1  -4 -21   79.08   17.30
  -1   4  21   90.04   26.26
  -4  -1  21   90.72   18.67
  -4  -1  21   70.61   17.55
   4   0 -21    0.27    1.09
   4   0 -21   -0.32    1.25
   0   4 -21   -2.19    1.32
   0   4 -21    0.56    1.24
   0  -4 -21   -0.41    1.33
  -4   0  21    0.26    1.15
   0   4  21    3.42    2.64
  -4   0  21   -2.60    1.81
   1   4 -21   81.01   17.89
   1   4 -21   82.45   19.56
   4  -2 -21    7.62    2.25
   2   4 -21   10.37    2.44
   2   4 -21    4.60    2.19
   4  -2 -21    7.47    2.07
  -4   2  21    7.03    2.27
  -4   2  21    1.57    2.38
  -2  -4  21    8.69    3.16
  -2  -4  21    8.79    1.99
   3   4 -21   37.74   13.59
   4  -3 -21   55.96   12.30
   3   4 -21   63.25   13.83
  -3  -4  21   63.00   12.89
  -4   3  21   60.76   13.14
  -3  -4  21   61.16   13.09
   4   4 -21    0.29    1.17
   4   4 -21   -0.31    1.24
   4  -4 -21   -2.75    1.44
  -4   4  21    1.48    1.61
  -4  -4  21   -0.41    1.85
  -4  -4  21    0.25    1.23
   5   4 -21   26.51    6.26
   5   4 -21   25.87    5.65
  -5  -4  21   29.69    6.01
  -5  -4  21   25.71    5.76
   3  -5 -21   26.24    7.11
   5   3 -21   27.16    6.99
   5   3 -21   37.42    7.13
  -5  -3  21   34.23    6.37
  -3   5  21   22.94    7.56
  -5  -3  21   25.88    6.65
   2  -5 -21   58.83   12.92
   5   2 -21   56.14   13.02
  -5  -2  21   51.46   12.19
  -5  -2  21   59.59   11.99
   5   1 -21   11.71    3.14
   5   1 -21   10.10    2.90
   1  -5 -21    7.84    2.99
   1  -5 -21   18.60    2.87
  -5  -1  21   11.96    3.24
  -5  -1  21   13.86    2.97
  -1   5  21   11.49    4.68
   0   5 -21   68.69   18.20
   5   0 -21   79.95   16.60
   0  -5 -21   74.79   18.13
   5   0 -21   82.70   17.11
  -5   0  21   91.28   17.53
   0   5  21   65.60   26.09
  -5   0  21   79.58   17.26
   1   5 -21   13.12    3.11
   5  -1 -21    5.81    2.80
   5  -1 -21    9.61    3.04
   1   5 -21   12.06    2.96
  -5   1  21   12.30    3.46
  -5   1  21   11.59    3.27
   2   5 -21   62.36   15.32
   5  -2 -21   53.34   12.28
   2   5 -21   61.23   16.55
   2   5 -21   59.17   12.37
  -2  -5  21   63.66   13.62
  -5   2  21   57.92   13.15
  -2  -5  21   56.35   12.61
  -2  -5  21   42.14   15.40
   3   5 -21   34.67    6.77
   3   5 -21   30.73    7.34
   3   5 -21   33.62    8.86
   3   5 -21   27.01    7.94
  -3  -5  21   30.74    6.96
  -3  -5  21   33.17    7.76
  -3  -5  21   29.43    6.44
   4   5 -21   16.62    6.71
   4   5 -21   20.96    6.00
  -4  -5  21   28.90    6.17
  -4  -5  21   34.34    6.27
   5  -5 -21   -1.05    1.08
   5   5 -21   -1.35    1.28
   5   5 -21    0.72    1.49
  -5   5  21    0.83    2.23
  -5  -5  21   -0.59    1.50
  -5  -5  21   -0.39    1.77
   5  -6 -21   10.39    1.86
   6   5 -21    6.97    2.44
   5  -6 -21    3.77    1.99
   6   5 -21    3.39    2.12
  -5   6  21    8.00    2.76
  -6  -5  21    3.23    2.25
  -6  -5  21    4.56    2.03
  -5   6  21    4.37    2.32
   4  -6 -21   45.93   10.26
   6   4 -21   54.29   11.42
   6   4 -21   60.19   11.85
  -6  -4  21   54.00   10.55
  -6  -4  21   52.19   10.66
  -4   6  21   33.19   13.78
   6   3 -21   31.05    6.02
   6   3 -21   18.47    6.03
  -6  -3  21   17.48    5.62
  -6  -3  21   22.17    5.99
   6   2 -21   73.78   17.51
   2  -6 -21   74.02   15.88
   6   2 -21   73.51   16.54
  -6  -2  21   74.18   16.21
   1  -6 -21   17.09    3.48
   6   1 -21   11.62    3.37
   6   1 -21   15.99    3.51
  -6  -1  21   15.53    3.57
  -6  -1  21    9.32    3.25
   0  -6 -21    0.40    1.57
   6   0 -21   -0.38    1.36
   0   6 -21   -1.09    1.52
   0   6 -21    0.32    1.45
  -6   0  21   -0.59    1.52
   1   6 -21   12.62    3.61
  -1  -6  21   13.18    3.34
   2   6 -21   72.45   20.43
   2   6 -21   81.42   16.57
  -2  -6  21   55.82   22.43
  -2  -6  21   82.52   16.95
  -2  -6  21   77.97   16.79
   3   6 -21   29.04    6.10
   3   6 -21   22.99    6.57
  -3  -6  21   28.69    6.98
  -3  -6  21   29.93    5.54
   4   6 -21   42.98   10.94
   6  -4 -21   38.97    9.85
   4   6 -21   51.84   11.60
   6  -4 -21   29.73   11.19
  -4  -6  21   50.38    9.49
  -6   4  21   38.20   11.29
  -4  -6  21   45.02    8.83
  -6   4  21   35.44   12.00
   6  -5 -21    3.23    2.19
   6  -5 -21    6.25    1.83
  -6   5  21    6.64    2.89
  -5  -6  21    5.63    1.70
  -6   5  21    1.75    2.06
   6  -6 -21    1.18    1.54
   6  -6 -21    0.27    1.17
  -6   6  21   -1.91    1.92
   6  -7 -21   19.10    4.53
   6  -7 -21   16.38    4.30
  -6   7  21   19.84    5.92
  -6   7  21   13.57    5.01
   5  -7 -21   -1.15    1.64
   7   5 -21   -0.40    1.93
   7   5 -21    0.43    1.57
   5  -7 -21    0.51    1.12
  -7  -5  21   -0.38    1.92
  -5   7  21    1.85    1.91
  -7  -5  21    0.37    1.85
  -5   7  21   -0.46    2.37
   7   4 -21   -0.41    1.41
   4  -7 -21   -1.03    1.16
   4  -7 -21    0.36    1.50
   7   4 -21   -2.40    1.64
  -4   7  21   -1.56    2.36
  -7  -4  21   -0.34    1.56
  -7  -4  21    2.02    2.04
  -4   7  21    0.36    1.65
   3  -7 -21    5.98    1.85
   7   3 -21    8.26    2.13
  -7  -3  21    9.24    2.25
  -3   7  21    8.58    3.56
   7   2 -21    4.30    1.76
  -7  -2  21    3.29    1.94
   0   7 -21    3.85    1.69
   1   7 -21    8.63    2.32
   7  -1 -21    7.03    2.11
   1   7 -21    6.06    2.48
  -1  -7  21    6.32    1.91
   2   7 -21    3.35    1.73
   7  -2 -21    1.76    1.42
   7  -2 -21    0.41    1.72
   2   7 -21    2.58    1.88
  -7   2  21   -0.33    1.79
  -2  -7  21    2.36    1.20
   3   7 -21    5.45    2.47
   7  -3 -21    2.90    2.43
  -7   3  21    3.11    2.20
  -3  -7  21    8.26    1.83
   4   7 -21    2.45    1.99
   7  -4 -21    3.84    1.85
   4   7 -21    0.47    1.78
   7  -4 -21   -1.58    1.44
  -4  -7  21   -1.26    0.96
  -4  -7  21    1.22    1.11
  -7   4  21   -2.44    2.02
  -7   4  21    0.36    1.96
   5   7 -21    0.51    1.91
   5   7 -21   -1.93    2.51
   7  -5 -21    2.62    1.89
   7  -5 -21   -1.57    1.42
  -7   5  21    0.45    2.32
  -5  -7  21    1.67    1.19
  -5  -7  21    0.27    1.28
  -7   5  21    0.38    1.80
   7  -6 -21   16.52    4.72
   7  -6 -21   20.88    4.39
  -7   6  21   14.03    4.85
  -7   6  21   13.65    5.27
  -6  -7  21   21.55    3.76
  -6  -7  21   15.38    3.58
   7  -7 -21    0.95    1.83
   7  -7 -21   -1.22    1.38
  -7   7  21   -0.43    2.28
  -7   7  21    2.24    2.05
   7  -8 -21   28.36    6.64
   7  -8 -21   32.00    6.53
  -7   8  21   26.42    7.92
  -7   8  21    8.20    8.58
   6  -8 -21    4.84    1.84
   6  -8 -21    4.92    1.66
  -6   8  21   -0.94    2.68
  -6   8  21    1.29    2.13
   5  -8 -21    1.91    1.32
   8   5 -21    2.12    2.29
   5  -8 -21    2.65    1.64
  -5   8  21   -0.47    2.15
  -5   8  21    3.35    2.46
  -8  -5  21    4.65    1.91
   4  -8 -21   -2.60    1.69
   4  -8 -21   -0.51    1.08
  -4   8  21   -3.00    2.48
  -4   8  21    1.98    2.48
   3  -8 -21    2.21    1.61
   3  -8 -21    0.53    1.15
  -3   8  21   -1.16    2.03
  -3   8  21    4.84    2.77
   8   2 -21    7.65    3.73
  -2   8  21    5.80    5.01
   1  -8 -21    1.85    1.15
   8   1 -21    1.68    1.61
  -1   8  21   -1.31    2.19
   8   0 -21   -1.29    1.49
   8   0 -21   -0.95    1.59
  -8   0  21   -0.39    2.00
   8  -1 -21    0.63    1.36
   1   8 -21   -0.57    1.84
   8  -1 -21    3.90    1.68
  -1  -8  21    0.88    1.17
  -8   1  21   -0.78    1.96
   8  -2 -21    9.67    4.03
   2   8 -21   20.67    4.05
  -2  -8  21   18.56    3.24
  -8   2  21   17.23    3.80
   8  -3 -21    0.49    2.04
   8  -3 -21    1.34    1.49
   3   8 -21    0.53    1.95
  -3  -8  21    0.27    1.22
  -8   3  21    3.18    1.95
   8  -4 -21   -0.71    1.62
   8  -4 -21    1.98    1.96
   4   8 -21    2.59    2.09
  -4  -8  21    0.55    1.29
  -8   4  21    1.27    1.89
   8  -5 -21    2.94    1.67
   8  -5 -21    6.17    2.18
  -8   5  21    3.60    2.31
   8  -6 -21    6.26    1.80
   8  -6 -21    9.26    2.54
  -8   6  21    0.49    2.65
  -6  -8  21    5.37    1.39
   8  -7 -21   22.94    7.11
   8  -7 -21   38.51    6.97
  -8   7  21   35.86    7.97
  -7  -8  21   34.13    5.25
   8  -8 -21   -0.55    2.07
   8  -8 -21    0.67    1.47
  -8   8  21    2.46    2.40
  -8   8  21   -1.10    2.46
   7  -9 -21   19.65    4.44
   7  -9 -21   22.81    4.17
  -7   9  21   23.31    6.10
  -7   9  21    2.61    5.21
   6  -9 -21    9.52    3.87
   6  -9 -21   19.66    4.01
  -6   9  21    9.86    4.96
  -6   9  21   16.67    5.33
   9   5 -21    4.88    4.40
   5  -9 -21   18.96    3.61
   5  -9 -21   18.59    3.59
  -5   9  21   11.58    4.92
  -5   9  21    7.43    4.21
   9   4 -21    2.44    2.22
   9   4 -21    1.03    2.51
   4  -9 -21    0.27    1.20
   4  -9 -21    1.88    1.70
  -4   9  21    1.37    2.27
  -4   9  21    0.53    2.52
   9   3 -21    2.49    2.54
   3  -9 -21    6.44    1.48
   3  -9 -21    2.91    1.70
   9   3 -21   -0.53    1.99
  -9  -3  21    1.70    1.90
  -3   9  21    0.41    2.27
  -3   9  21    8.38    2.78
   2  -9 -21   -0.37    1.49
   2  -9 -21    0.58    1.23
   9   2 -21   -0.58    2.05
   9   2 -21    1.43    1.99
  -9  -2  21   -0.83    1.86
  -2   9  21    0.40    1.95
  -2   9  21   -3.66    2.63
   1  -9 -21    0.28    0.96
   9   1 -21   -1.17    2.26
   9   1 -21    2.25    1.96
  -1   9  21   -0.73    2.87
  -9  -1  21    0.82    1.88
   9   0 -21    4.35    2.51
   0   9 -21    5.71    2.01
   9   0 -21    3.34    2.44
   0  -9  21    6.91    1.78
  -9   0  21    1.27    2.21
   1   9 -21    0.62    1.78
   1   9 -21   -0.39    1.69
   9  -1 -21   -1.30    1.84
   9  -1 -21   -1.15    2.07
  -9   1  21    1.73    1.99
  -1  -9  21   -0.31    1.30
   2   9 -21   -1.15    1.76
   9  -2 -21    0.56    1.98
   9  -2 -21    1.69    1.82
   2   9 -21    1.14    1.80
  -9   2  21    0.44    2.23
  -2  -9  21   -0.28    1.26
   9  -3 -21    0.41    2.02
   9  -3 -21    2.27    2.21
   3   9 -21    2.07    2.02
   3   9 -21    7.78    2.35
  -3  -9  21    3.72    1.50
  -9   3  21    0.91    2.39
  -3  -9  21    2.99    1.43
   9  -4 -21    3.44    2.19
   4   9 -21   -1.47    2.50
   9  -4 -21    6.36    1.97
   4   9 -21    4.37    2.19
  -4  -9  21    3.20    1.54
  -4  -9  21    3.03    1.30
  -9   4  21    3.32    2.41
   9  -5 -21   28.27    4.54
   5   9 -21    2.76    4.26
   9  -5 -21   13.66    3.99
   5   9 -21   17.84    4.82
  -5  -9  21   21.35    3.20
  -9   5  21   10.49    4.18
  -5  -9  21   15.80    3.17
   9  -6 -21   13.58    3.99
   6   9 -21   13.45    4.92
   6   9 -21    4.84    5.45
   9  -6 -21   12.15    4.79
  -6  -9  21   28.07    3.23
  -9   6  21    4.19    4.54
  -6  -9  21   20.34    3.47
   9  -7 -21   19.21    4.95
   9  -7 -21   23.04    5.27
   7   9 -21   10.93    6.51
   7   9 -21    2.02    7.31
  -9   7  21   11.55    5.17
  -7  -9  21   22.49    3.74
  -7  -9  21   21.88    3.50
   9  -9 -21   -5.44    2.66
   9  -9 -21    0.33    1.57
  -9   9  21    5.61    3.16
   9 -10 -21   -2.62    2.74
   9 -10 -21    7.56    2.26
  -9  10  21    2.91    3.72
  -9  10  21    6.34    3.02
   8 -10 -21    0.64    1.53
   8 -10 -21    0.61    2.49
  -8  10  21    1.54    2.19
  -8  10  21    0.63    2.75
   7 -10 -21   24.66    5.49
   7 -10 -21   32.61    5.82
  -7  10  21   19.56    7.42
  -7  10  21   19.28    7.06
   6 -10 -21   -0.47    1.95
   6 -10 -21    4.50    1.55
  -6  10  21    1.01    2.29
  -6  10  21    2.10    2.67
  10   5 -21   -1.74    2.70
   5 -10 -21    0.87    1.41
   5 -10 -21    3.05    1.79
  -5  10  21   -1.07    2.44
  -5  10  21   -0.99    2.22
   4 -10 -21   10.78    2.76
   4 -10 -21   10.64    2.60
  10   4 -21    0.53    3.70
  -4  10  21   12.42    4.26
  -4  10  21   11.27    3.62
 -10  -4  21    1.57    3.28
  10   3 -21   -1.59    2.45
  10   3 -21   -0.70    2.11
   3 -10 -21    1.85    1.32
   3 -10 -21    0.37    1.60
 -10  -3  21    2.06    2.02
  -3  10  21    0.89    2.19
  -3  10  21   -0.57    2.26
  10   2 -21    1.32    2.00
   2 -10 -21    4.77    1.84
   2 -10 -21    2.98    1.30
  10   2 -21    3.01    2.17
 -10  -2  21   -1.94    2.11
  -2  10  21    0.69    2.85
  -2  10  21    0.91    2.31
  10   1 -21   18.82    6.06
  10   1 -21   12.03    5.39
   1 -10 -21   31.08    4.65
  -1  10  21   18.72    6.34
 -10  -1  21   11.95    4.67
  -1  10  21   23.25    7.39
  10   0 -21   -0.67    2.13
  10   0 -21   -1.39    1.85
   0 -10 -21   -0.41    1.58
   0  10 -21    0.73    1.65
 -10   0  21    1.89    2.22
   0 -10  21    0.31    1.24
  10  -1 -21   22.06    5.42
   1  10 -21   18.76    4.70
  10  -1 -21   18.35    6.12
   1  10 -21   21.67    5.59
 -10   1  21   14.84    5.07
  -1 -10  21   31.06    4.43
  10  -2 -21    4.43    2.02
  10  -2 -21    1.82    1.93
   2  10 -21   -4.79    2.17
   2  10 -21    0.42    2.08
  -2 -10  21    4.91    1.47
 -10   2  21   -1.43    2.22
  10  -3 -21   -1.63    1.44
   3  10 -21    1.20    2.39
  10  -3 -21    0.61    1.97
   3  10 -21   -1.72    2.07
 -10   3  21    1.44    2.36
  -3 -10  21   -0.30    1.35
  -3 -10  21    2.52    1.41
  10  -4 -21   14.94    3.27
   4  10 -21    5.33    3.31
  10  -4 -21    5.41    3.23
   4  10 -21    4.18    3.44
  -4 -10  21   13.02    2.47
  -4 -10  21   15.30    2.27
 -10   4  21    8.47    3.13
   5  10 -21    3.30    2.64
  10  -5 -21    1.25    2.34
   5  10 -21   -2.93    2.99
  10  -5 -21    1.64    1.87
  -5 -10  21    5.90    1.35
 -10   5  21    2.60    2.58
  -5 -10  21    0.92    1.41
   6  10 -21    1.39    2.99
  10  -6 -21    0.44    1.99
  10  -6 -21    4.00    2.65
   6  10 -21   -3.62    3.94
  -6 -10  21    4.46    1.67
 -10   6  21    1.12    2.57
  -6 -10  21    3.11    1.28
   7  10 -21   23.35    8.82
  10  -7 -21    6.40    6.11
  10  -7 -21   25.33    6.64
   7  10 -21   16.76    8.01
  -7 -10  21   20.81    4.38
  -7 -10  21   32.68    4.34
 -10   7  21   17.06    6.20
  10  -8 -21   -0.74    2.79
   8  10 -21    0.90    3.56
   8  10 -21    1.26    6.41
  10  -8 -21   -0.35    1.54
 -10   8  21   -3.28    3.18
  -8 -10  21    0.35    1.41
  -8 -10  21   -0.63    0.94
  10  -9 -21    0.74    3.12
  10  -9 -21    5.66    2.51
  -9 -10  21    9.32    2.32
 -10   9  21    2.09    3.32
  -9 -10  21    8.79    1.78
  10 -10 -21   -3.92    3.36
  10 -10 -21    2.98    1.80
 -10  10  21    1.61    3.66
  10 -11 -21   -3.47    3.37
  10 -11 -21    0.36    1.68
 -10  11  21    1.79    3.76
   9 -11 -21    1.38    1.54
   9 -11 -21   -4.15    2.60
  -9  11  21   -0.51    2.31
  -9  11  21   -1.56    3.58
   8 -11 -21    0.66    3.36
   8 -11 -21    9.51    2.74
  -8  11  21    5.99    4.38
  -8  11  21    1.64    3.75
   7 -11 -21    0.56    2.29
   7 -11 -21    0.92    1.34
  -7  11  21    7.04    3.91
  -7  11  21   -1.54    2.61
   6 -11 -21    1.22    1.28
   6 -11 -21   -0.53    1.93
  -6  11  21    4.61    2.96
  -6  11  21    2.51    2.23
   4 -11 -21   -1.45    1.34
  11   4 -21   -3.20    3.52
   4 -11 -21   -1.58    1.66
  -4  11  21   -3.61    2.78
  -4  11  21    0.50    2.63
   3 -11 -21    0.31    1.41
   3 -11 -21    0.75    1.61
  11   3 -21    0.62    2.78
  -3  11  21    1.89    2.50
  -3  11  21    3.97    2.59
   2 -11 -21   29.15    5.19
   2 -11 -21   32.59    5.56
  11   2 -21   22.96    7.05
  -2  11  21   20.99    8.14
  -2  11  21   14.23    7.56
  11   1 -21   -1.12    2.32
   1 -11 -21    0.38    1.40
  -1  11  21    1.40    2.11
  11   0 -21   54.31   12.89
   0  11 -21   42.48   11.29
   0 -11  21   63.84    9.53
 -11   0  21   22.09   10.53
  11  -1 -21   -1.05    2.51
   1  11 -21   -8.21    2.47
   1  11 -21   -0.46    2.19
  -1 -11  21   -0.33    1.35
 -11   1  21   -0.55    2.34
   2  11 -21   28.70    6.13
  11  -2 -21   19.29    6.49
   2  11 -21   13.96    6.07
  -2 -11  21   40.34    4.90
 -11   2  21   22.11    6.09
   3  11 -21    0.64    2.02
  11  -3 -21   -1.90    2.06
  11  -3 -21    0.78    2.32
   3  11 -21    0.49    2.33
  -3 -11  21    0.98    1.40
 -11   3  21    2.92    2.45
  -3 -11  21   -0.32    1.44
   4  11 -21   -2.67    2.59
  11  -4 -21   -2.33    2.88
   4  11 -21   -1.28    2.50
  -4 -11  21   -3.18    1.27
  -4 -11  21   -1.58    1.70
 -11   4  21    2.41    2.38
  11  -6 -21    4.03    2.90
  11  -6 -21   -0.87    1.77
   6  11 -21    2.32    3.91
   6  11 -21    5.96    3.18
  -6 -11  21    0.30    1.14
  -6 -11  21    0.99    1.59
 -11   6  21    3.40    2.61
   7  11 -21    0.85    3.63
  11  -7 -21   -0.43    1.88
   7  11 -21    9.51    4.84
  -7 -11  21   -0.31    1.08
  -7 -11  21   -0.35    1.63
 -11   7  21    2.84    3.12
  11  -8 -21   17.21    3.70
   8  11 -21    1.32    7.08
   8  11 -21    6.09    5.30
 -11   8  21    2.21    3.99
   9  11 -21    7.20    8.13
  11  -9 -21    2.22    1.78
   9  11 -21   -3.59    4.66
 -11   9  21   -3.38    3.52
  -9 -11  21   -0.36    1.18
  -9 -11  21   -7.40    2.23
  11 -10 -21   -1.10    1.71
 -10 -11  21    1.45    2.35
  11 -11 -21   -2.14    2.05
  11 -12 -21    2.26    1.88
  10 -12 -21    4.32    2.08
   9 -12 -21    0.34    1.66
   8 -12 -21    1.38    1.68
   2  12 -21    0.48    2.53
   2  12 -21   -0.68    2.38
  -2 -12  21   -0.33    1.44
   3  12 -21    6.16    3.23
   3  12 -21    8.33    3.45
  -3 -12  21    5.86    2.14
  -3 -12  21    8.40    2.16
   4  12 -21    9.97    3.12
   4  12 -21   -1.10    2.86
  -4 -12  21    4.24    1.80
  -4 -12  21    4.16    1.54
   5  12 -21    4.59    3.27
   5  12 -21    0.75    2.63
  -5 -12  21    1.33    1.54
  -5 -12  21    0.64    1.24
   6  12 -21   -1.63    3.27
   6  12 -21    1.63    3.95
  -6 -12  21    6.94    1.52
  -6 -12  21    0.35    1.63
   7  12 -21    1.84    4.80
   7  12 -21   10.26    6.50
  -7 -12  21    6.34    2.67
  -7 -12  21   13.59    2.33
   8  12 -21   -1.10    4.50
   8  12 -21   -4.09    6.68
  -8 -12  21   -0.94    1.35
  -8 -12  21    2.01    1.94
   9  12 -21    4.90    5.01
   9  12 -21   11.17    8.95
  -9 -12  21    1.65    1.87
  -9 -12  21    1.07    1.22
  10  12 -21    4.50    6.30
 -10 -12  21    0.49    2.25
   0  13 -21    2.25    2.86
   0  13 -21    5.92    3.72
   0 -13  21   13.24    2.43
   1  13 -21    1.46    2.30
   1  13 -21   -0.75    2.54
  -1 -13  21    3.89    1.84
   2  13 -21    6.60    3.76
   2  13 -21   11.45    3.88
  -2 -13  21   11.04    2.78
  -2 -13  21   12.60    3.26
   3  13 -21    0.75    2.36
   3  13 -21    6.98    2.59
  -3 -13  21   -2.65    1.45
  -3 -13  21    0.35    1.41
   4  13 -21   -3.64    2.88
   4  13 -21   -0.77    3.12
  -4 -13  21   -2.01    1.42
  -4 -13  21    0.33    1.66
   5  13 -21   -6.39    3.61
   5  13 -21   -0.81    3.25
  -5 -13  21    4.46    1.51
  -5 -13  21    4.57    1.73
   6  13 -21   -4.42    4.17
   6  13 -21   -4.55    3.51
  -6 -13  21    1.92    1.29
  -6 -13  21    0.36    1.56
  -7 -13  21   -0.37    2.01
  -7 -13  21    5.98    1.55
   8  13 -21    5.18    5.83
   8  13 -21  -12.66    7.15
  -8 -13  21    8.29    1.74
  -8 -13  21    4.49    2.29
   9  13 -21    4.19    5.69
   9  13 -21    1.92    8.94
  -9 -13  21   -0.36    1.19
  -9 -13  21    0.90    2.02
  10  13 -21   -8.35    6.59
 -10 -13  21    4.03    2.40
   0  14 -21   -1.47    2.45
   0  14 -21    3.15    2.30
   0 -14  21   -0.35    1.31
   1  14 -21   15.21    3.88
   1  14 -21    2.20    3.60
  -1 -14  21   12.77    2.65
   2  14 -21   -1.66    2.83
   2  14 -21    0.79    2.53
  -2 -14  21    0.36    1.50
  -2 -14  21   -0.40    1.66
   3  14 -21   -3.05    3.19
   3  14 -21   -3.29    3.08
  -3 -14  21    0.33    1.32
  -3 -14  21    2.39    1.60
   5  14 -21    6.20    4.39
   5  14 -21   -0.90    3.43
  -5 -14  21   -3.09    1.90
  -5 -14  21   -1.40    1.63
   6  14 -21   -5.07    4.41
   6  14 -21    2.75    5.03
  -6 -14  21   10.46    1.95
  -6 -14  21    3.17    2.16
   7  14 -21    2.23    4.58
   7  14 -21    3.66    5.91
  -7 -14  21   -3.27    1.89
  -7 -14  21    1.60    1.19
   8  14 -21   -6.40    5.46
   8  14 -21  -15.80    7.40
  -8 -14  21   -0.33    1.27
  -8 -14  21    0.43    2.03
   9  14 -21    1.48    6.09
   9  14 -21   -5.92    8.64
  -9 -14  21    1.81    1.30
  -9 -14  21    0.48    2.17
  10  14 -21    1.65    6.33
 -10 -14  21    0.50    2.14
   0  15 -21   -0.84    2.31
   0  15 -21   -1.06    2.28
   0 -15  21    3.27    1.41
   1  15 -21   -3.53    2.94
   1  15 -21    2.67    2.67
  -1 -15  21    1.27    1.72
  -1 -15  21    0.38    1.66
   2  15 -21    1.73    3.06
   2  15 -21    2.87    2.95
  -2 -15  21   -0.37    1.43
  -2 -15  21    0.72    1.60
   3  15 -21   -1.22    3.01
   3  15 -21    3.56    3.47
  -3 -15  21   -0.36    1.48
  -3 -15  21    0.70    1.44
   4  15 -21   -4.53    3.59
   4  15 -21   -2.09    3.26
  -4 -15  21   -0.36    1.39
  -4 -15  21    1.26    1.26
   5  15 -21   -1.02    3.66
   5  15 -21   -4.80    3.89
  -5 -15  21    4.33    1.76
  -5 -15  21    2.42    1.63
   6  15 -21    1.97    5.18
   6  15 -21    7.00    5.21
  -6 -15  21    5.20    2.21
  -6 -15  21    3.44    1.61
   7  15 -21   -3.59    4.69
  -7 -15  21    2.92    1.13
  -7 -15  21    0.85    2.03
   0  16 -21   -2.61    2.62
   0  16 -21   -1.78    3.19
   0 -16  21   -1.48    1.47
   1  16 -21    2.87    3.06
   1  16 -21   -0.57    2.93
  -1 -16  21    0.77    1.51
   2  16 -21   -0.94    3.09
  -2 -16  21    2.18    1.57
  -2 -16  21    3.64    1.65
   3  16 -21    0.98    3.27
  -3 -16  21   -1.09    1.49
   4  16 -21    3.02    3.62
  -4 -16  21    1.16    1.62
   1   0 -22    0.31    1.25
   1   0 -22   -0.39    1.38
  -1   0  22   -0.59    2.47
   1  -1 -22    5.61    2.03
   1   1 -22    6.80    2.17
   1  -1 -22    3.50    2.34
   1   1 -22   10.92    2.16
  -1   1  22    8.92    3.21
  -1  -1  22    6.53    3.19
   2   1 -22   -0.93    1.29
   1  -2 -22   -1.20    1.20
   2   1 -22   -0.75    1.33
   1  -2 -22    1.59    1.40
  -2  -1  22   -0.51    2.09
  -1   2  22   -1.89    2.62
   2   0 -22    4.46    1.70
   2   0 -22    0.30    1.41
  -2   0  22    1.59    2.30
   2  -1 -22    2.26    1.55
   2  -1 -22    1.20    1.21
   1   2 -22    1.50    1.42
   1   2 -22    0.89    1.16
  -1  -2  22   -1.93    2.42
  -2   1  22    2.64    2.01
   2  -2 -22   32.07    6.62
   2   2 -22   30.73    7.03
   2   2 -22   30.74    7.06
   2  -2 -22   25.12    7.26
  -2   2  22   30.17    8.29
  -2  -2  22   30.83    8.01
   3   2 -22   -2.36    1.43
   2  -3 -22    1.19    1.63
   3   2 -22    0.30    1.09
  -3  -2  22   -1.41    2.14
  -3  -2  22    0.50    1.29
   1  -3 -22   41.05   10.87
   3   1 -22   48.98    9.88
   3   1 -22   43.37   10.64
  -3  -1  22   35.37   12.35
  -3  -1  22   40.52   10.19
   3   0 -22    1.02    1.31
   3   0 -22   -0.87    1.08
  -3   0  22   -1.51    2.24
  -3   0  22    2.40    1.36
   3  -1 -22   46.63   10.42
   3  -1 -22   51.35    9.88
   1   3 -22   53.72   10.84
  -3   1  22   47.66   12.68
  -1  -3  22   47.74   14.35
  -3   1  22   45.50   10.73
   2   3 -22    1.03    1.40
   3  -2 -22   -0.35    1.37
   2   3 -22    4.08    1.34
  -2  -3  22    1.71    2.41
  -3   2  22    0.29    1.53
   3   3 -22   23.41    4.84
   3   3 -22   16.57    4.82
   3  -3 -22   16.11    4.80
  -3  -3  22   19.57    5.09
  -3  -3  22   19.55    4.51
   4   3 -22    4.20    2.07
   4   3 -22    7.10    2.21
  -4  -3  22    7.19    2.07
  -4  -3  22    2.13    2.46
   4   2 -22   52.56   12.67
  -4  -2  22   65.84   13.26
  -4  -2  22   56.50   11.95
   4   1 -22   10.17    2.10
   4   1 -22    8.92    2.09
   1  -4 -22    6.19    2.22
  -4  -1  22    5.49    2.65
  -4  -1  22    3.65    1.93
   4   0 -22   56.20   13.72
   0   4 -22   61.45   15.06
  -4   0  22   58.49   13.93
  -4   0  22   72.35   15.20
   4  -1 -22    4.70    1.99
   1   4 -22    5.05    2.14
  -4   1  22    6.08    2.12
   2   4 -22   56.02   13.19
  -2  -4  22   43.40   16.36
   3   4 -22    7.38    2.46
   3   4 -22    9.12    2.30
  -3  -4  22   10.09    2.87
  -3  -4  22    8.44    2.07
   4  -4 -22   31.20    8.32
   4   4 -22   35.45    9.11
   4   4 -22   42.70   10.10
  -4  -4  22   42.56    8.50
  -4   4  22   35.78   10.61
  -4  -4  22   49.41    9.22
   5   4 -22   24.72    4.82
   4  -5 -22   19.09    4.84
   4  -5 -22   19.62    4.47
   5   4 -22   24.99    5.68
  -4   5  22   18.98    5.21
  -4   5  22   18.95    6.29
  -5  -4  22   24.56    4.80
  -5  -4  22   22.84    4.71
   5   3 -22   22.24    4.36
   3  -5 -22    8.73    3.81
   5   3 -22   20.81    4.65
  -5  -3  22   17.84    4.55
  -5  -3  22   17.60    4.24
  -3   5  22   19.23    6.08
   5   2 -22   22.39    4.31
   5   2 -22   15.45    4.32
  -5  -2  22   16.04    4.09
  -5  -2  22   19.34    4.52
   5   1 -22   27.50    4.07
  -5  -1  22   11.04    3.96
   5   0 -22    1.36    1.41
   0   5 -22    0.30    1.42
   0   5 -22   -0.39    1.52
  -5   0  22   -0.30    1.54
   1   5 -22   13.33    3.85
   1   5 -22   13.61    3.92
   2   5 -22   14.73    5.62
   5  -2 -22    6.95    3.93
   2   5 -22   26.40    4.25
  -5   2  22    9.63    4.57
  -2  -5  22   19.21    5.61
  -2  -5  22   20.64    4.23
  -2  -5  22   22.58    4.26
   3   5 -22   18.49    4.58
   3   5 -22   18.20    5.33
  -3  -5  22   22.13    4.46
  -3  -5  22   27.09    5.36
   4   5 -22   21.11    6.01
   4   5 -22   20.57    4.91
   5  -4 -22   23.38    4.72
   5  -4 -22   13.23    4.57
  -4  -5  22   25.14    5.21
  -5   4  22   14.05    5.32
  -5   4  22   13.39    5.53
  -4  -5  22   20.68    5.81
   5  -5 -22    4.98    1.42
   5   5 -22    4.17    2.08
   5  -5 -22    2.99    1.74
   5   5 -22    3.36    1.61
  -5   5  22    4.99    2.47
  -5  -5  22    2.30    2.49
  -5  -5  22    3.41    1.85
  -5   5  22    2.19    2.07
   5  -6 -22   -1.61    1.16
   6   5 -22    0.39    1.66
   6   5 -22   -0.37    1.50
   5  -6 -22    2.71    1.62
  -6  -5  22    0.31    1.56
  -5   6  22   -1.12    1.85
  -5   6  22    0.48    2.40
  -6  -5  22   -1.20    2.12
   4  -6 -22    2.84    1.18
   4  -6 -22    3.34    1.76
   6   4 -22    5.33    1.86
   6   4 -22    4.34    1.55
  -4   6  22   -0.71    1.97
  -6  -4  22    3.25    1.73
  -4   6  22    4.46    2.67
  -6  -4  22    4.42    2.00
   3  -6 -22   20.82    5.29
   6   3 -22   25.83    5.07
   3  -6 -22   20.23    4.47
  -6  -3  22   21.71    4.92
  -3   6  22   15.43    5.93
  -3   6  22   20.15    6.87
   6   2 -22   11.62    2.73
   2  -6 -22   11.91    2.35
  -6  -2  22   15.55    2.79
  -2   6  22    3.55    3.89
   1  -6 -22   11.29    2.23
  -1   6  22    8.41    3.70
   0   6 -22   14.34    3.68
   6  -1 -22    2.69    2.16
   1   6 -22   12.64    2.65
  -6   1  22    9.98    3.05
   6  -2 -22    8.31    2.71
   2   6 -22   15.90    3.21
   6  -2 -22    5.55    2.45
   2   6 -22    7.93    2.72
  -6   2  22    5.51    3.14
  -2  -6  22    7.77    2.54
  -6   2  22    8.54    2.79
   3   6 -22   27.64    5.83
   6  -3 -22   19.17    5.01
   3   6 -22   16.92    5.04
  -3  -6  22   26.05    4.55
  -6   3  22   12.79    5.56
   6  -4 -22    2.97    1.72
   6  -4 -22    2.81    2.59
  -6   4  22    0.39    2.52
  -6   4  22    0.46    2.81
   6  -5 -22    2.41    1.58
   6  -5 -22    0.42    2.06
  -6   5  22   -1.40    2.68
  -6   5  22   -0.80    2.08
   6  -6 -22    7.34    2.14
   6  -6 -22    9.74    2.50
  -6   6  22    2.36    2.65
  -6   6  22   12.43    3.32
   6  -7 -22    0.41    1.76
   6  -7 -22    1.12    1.29
  -6   7  22    0.84    1.88
  -6   7  22    0.47    2.15
   5  -7 -22    0.85    1.32
   5  -7 -22   -0.39    1.63
   7   5 -22    2.69    1.70
  -5   7  22   -1.87    2.26
  -7  -5  22   -1.13    1.99
  -5   7  22   -0.40    2.07
   4  -7 -22    3.87    1.86
   4  -7 -22    1.32    1.23
  -4   7  22    5.29    2.24
  -4   7  22    0.50    2.24
   3  -7 -22    0.80    1.52
   3  -7 -22   -0.79    1.11
  -3   7  22    8.21    2.88
  -3   7  22   -0.41    2.15
   2  -7 -22   16.28    3.11
   2  -7 -22   15.22    3.58
   7   2 -22    8.54    3.50
  -2   7  22   15.12    4.25
  -7  -2  22    7.69    3.27
  -2   7  22    2.42    4.76
   7   1 -22    1.74    1.40
   1  -7 -22    0.31    1.08
  -7  -1  22   -0.79    1.86
  -1   7  22    2.00    2.61
   0   7 -22    2.68    1.51
   7   0 -22    1.23    1.61
   7   0 -22    2.09    1.52
  -7   0  22   -0.65    1.66
  -7   0  22   -0.84    1.93
   1   7 -22    0.66    1.61
   7  -1 -22    0.41    1.50
   7  -1 -22    1.02    1.46
  -1  -7  22    0.27    1.06
  -7   1  22    0.43    2.04
  -7   1  22   -0.34    1.72
   2   7 -22   13.13    3.37
   7  -2 -22   12.44    3.44
   7  -2 -22    8.98    3.40
   2   7 -22   17.78    4.21
  -7   2  22   14.08    3.70
  -7   2  22   12.65    3.24
  -2  -7  22   16.19    3.28
   7  -3 -22    2.10    1.85
   3   7 -22   -0.82    2.09
   3   7 -22    0.52    1.74
   7  -3 -22    1.56    1.61
  -3  -7  22    1.41    1.39
  -7   3  22    1.77    1.93
   7  -4 -22    3.33    1.59
   7  -4 -22    3.44    2.08
   4   7 -22    2.07    1.91
   4   7 -22    0.42    2.27
  -7   4  22   -0.74    1.84
  -4  -7  22    0.79    1.17
  -7   4  22    0.41    1.98
  -4  -7  22    0.29    1.25
   7  -5 -22    0.31    1.40
   7  -5 -22   -1.31    1.75
  -7   5  22    2.35    1.90
  -7   5  22   -0.44    2.18
   7  -6 -22   -0.30    1.31
   7  -6 -22    0.45    1.86
  -7   6  22    0.47    2.33
  -7   6  22   -2.09    2.04
   7  -7 -22    6.04    1.67
   7  -7 -22    2.40    2.07
  -7   7  22    3.00    2.67
  -7   7  22    0.45    2.50
   7  -8 -22   11.94    2.50
   7  -8 -22    4.96    1.75
  -7   8  22    1.56    2.94
  -7   8  22    7.55    2.78
   6  -8 -22    8.51    2.34
   6  -8 -22    9.46    2.55
  -6   8  22    5.00    3.32
  -6   8  22   10.48    3.36
   5  -8 -22    4.17    1.81
   5  -8 -22    5.44    2.12
  -5   8  22    6.77    2.75
  -8  -5  22    5.97    2.47
  -5   8  22    2.63    2.86
   8   4 -22   -2.14    2.24
   4  -8 -22    1.85    1.69
   4  -8 -22    6.04    1.50
  -4   8  22    2.61    2.26
  -4   8  22    1.60    2.45
   3  -8 -22    0.76    1.57
   8   3 -22   -1.17    1.79
   3  -8 -22   -1.36    1.27
   8   3 -22   -1.05    1.99
  -3   8  22   -3.63    2.14
  -3   8  22    1.06    2.49
  -8  -3  22   -3.60    1.87
   2  -8 -22    0.76    1.52
   8   2 -22    0.76    1.72
   2  -8 -22   -1.17    1.27
   8   2 -22    0.97    1.89
  -2   8  22   -0.41    1.92
  -8  -2  22    0.79    1.91
  -2   8  22    0.62    2.74
   8   1 -22    0.49    1.75
   8   1 -22   -0.75    1.69
   1  -8 -22    2.04    1.09
   1  -8 -22    2.92    1.75
  -1   8  22   -1.47    3.07
  -8  -1  22    1.18    1.65
   0  -8 -22    2.09    1.77
   8   0 -22    2.55    1.85
   8   0 -22    1.46    1.74
  -8   0  22   -0.38    1.82
   8  -1 -22   -0.44    1.76
   8  -1 -22    1.42    1.65
  -8   1  22   -0.77    1.85
   8  -2 -22    0.87    1.84
   8  -2 -22   -1.03    1.51
  -8   2  22    1.14    1.79
   8  -3 -22   -2.20    1.57
   8  -3 -22    0.66    1.49
  -8   3  22   -0.39    1.79
   8  -4 -22    3.16    1.71
   8  -4 -22    8.90    2.35
  -8   4  22    7.34    2.49
   8  -5 -22    6.05    2.29
   8  -5 -22   12.50    2.14
   5   8 -22    2.09    2.77
  -8   5  22    1.33    2.48
  -5  -8  22    6.54    1.80
   8  -6 -22    5.76    3.03
   8  -6 -22    8.04    2.80
  -8   6  22   19.94    3.49
  -8   6  22    6.57    3.27
  -6  -8  22    6.59    1.98
   8  -7 -22    3.80    2.46
   8  -7 -22    5.58    1.98
  -8   7  22   -1.03    2.84
  -8   7  22    4.16    2.75
   8  -9 -22    2.61    1.59
   8  -9 -22    0.59    1.95
  -8   9  22    0.61    2.48
  -8   9  22   -3.15    2.71
   6  -9 -22    9.15    2.77
   6  -9 -22    9.60    2.55
  -6   9  22    2.43    3.64
  -6   9  22    9.71    3.86
   9   5 -22   -1.86    2.00
   5  -9 -22   -0.29    1.41
   5  -9 -22    0.39    1.51
   9   5 -22   -1.66    2.50
  -9  -5  22   -0.45    1.98
  -5   9  22    4.98    2.50
  -5   9  22    2.17    2.52
   4  -9 -22   13.01    2.36
   4  -9 -22   10.17    2.58
   9   4 -22    6.86    3.36
   9   4 -22   13.07    3.13
  -4   9  22    7.22    3.39
  -4   9  22    2.40    3.72
  -9  -4  22    5.19    2.93
   3  -9 -22    7.58    1.86
   3  -9 -22    2.48    1.40
   9   3 -22    0.42    1.97
   9   3 -22    0.59    2.19
  -3   9  22    1.73    2.75
  -9  -3  22   -0.42    2.06
  -3   9  22    3.47    2.37
   2  -9 -22   -0.77    1.68
   2  -9 -22    0.61    1.23
   9   2 -22   -0.80    1.97
   9   2 -22    1.18    1.96
  -2   9  22   -0.42    2.11
  -9  -2  22   -2.52    2.05
  -2   9  22    1.39    2.49
   9   1 -22   -0.57    2.45
   1  -9 -22   -0.40    1.73
   9   1 -22    0.41    1.66
  -9  -1  22   -0.85    2.15
  -1   9  22    0.77    3.10
   0  -9 -22    1.90    1.61
   9   0 -22   -1.25    1.88
   9   0 -22    0.56    2.13
   0   9 -22    1.57    1.88
  -9   0  22    2.62    2.03
   9  -1 -22    0.77    1.58
   9  -1 -22   -1.68    2.17
   1   9 -22    0.41    2.09
   1   9 -22   -1.89    1.72
  -1  -9  22    4.53    1.46
  -9   1  22   -2.10    1.90
   2   9 -22    1.98    1.81
   2   9 -22   -0.60    1.93
   9  -2 -22   -2.13    1.64
   9  -2 -22   -1.70    2.04
  -9   2  22   -0.42    2.13
  -2  -9  22   -0.59    1.27
   3   9 -22    2.54    2.25
   9  -3 -22    0.56    2.15
   9  -3 -22    2.40    1.72
   3   9 -22    3.43    1.98
  -3  -9  22    4.61    1.54
  -9   3  22   -3.05    2.10
  -3  -9  22    6.21    1.47
   9  -4 -22   11.31    3.37
   9  -4 -22   13.53    2.58
   4   9 -22    5.32    2.98
   4   9 -22    3.96    2.96
  -4  -9  22    9.07    2.19
  -9   4  22    4.53    2.95
  -4  -9  22    3.73    1.90
   5   9 -22   -2.95    2.54
   9  -5 -22   -3.57    1.86
   9  -5 -22    4.68    2.40
   5   9 -22    0.55    2.54
  -5  -9  22   -0.62    1.38
  -5  -9  22    0.31    1.24
  -9   5  22   -2.79    2.28
   9  -6 -22   10.41    3.09
   9  -6 -22   10.07    3.36
   6   9 -22   10.87    3.68
   6   9 -22    7.08    4.18
  -6  -9  22    9.92    2.46
  -9   6  22    4.06    3.17
  -6  -9  22   12.65    2.15
   9  -8 -22   -0.71    1.64
   9  -8 -22    1.28    2.66
  -9   8  22    1.20    2.96
   9  -9 -22   15.96    3.77
   9  -9 -22   21.33    4.33
  -9   9  22   10.34    4.70
  -9   9  22    7.75    4.52
   9 -10 -22    0.70    1.66
   9 -10 -22   -2.14    2.58
  -9  10  22    1.37    3.25
  -9  10  22    1.05    2.50
   8 -10 -22   20.39    4.00
   8 -10 -22   15.63    4.26
  -8  10  22   14.73    5.29
  -8  10  22    6.67    5.24
   7 -10 -22    0.95    1.96
   7 -10 -22    3.74    1.77
  -7  10  22   -1.71    2.94
  -7  10  22    3.12    2.61
   6 -10 -22   10.77    2.76
   6 -10 -22    5.89    2.18
  -6  10  22    1.51    2.94
  -6  10  22    7.45    3.73
   5 -10 -22    6.35    2.42
   5 -10 -22   12.24    2.15
  -5  10  22    0.54    3.22
  -5  10  22    4.42    3.55
   4 -10 -22    0.57    1.22
  10   4 -22    0.60    2.77
   4 -10 -22    1.22    1.71
  -4  10  22    1.98    2.49
 -10  -4  22    0.54    1.91
  -4  10  22    2.51    2.62
  10   3 -22    8.70    3.63
   3 -10 -22    9.89    2.53
   3 -10 -22   11.69    2.63
  10   3 -22    3.38    3.49
 -10  -3  22    8.74    2.95
  -3  10  22   10.74    4.06
  -3  10  22    4.55    3.55
   2 -10 -22    0.65    1.44
  10   2 -22    0.52    2.55
  10   2 -22   -0.67    2.54
   2 -10 -22    6.17    1.86
  -2  10  22   -1.46    2.82
  -2  10  22   -0.47    2.42
 -10  -2  22    4.66    2.36
  10   1 -22    2.01    2.14
  10   1 -22    0.97    2.11
   1 -10 -22    0.79    1.56
  -1  10  22   -1.33    2.23
  -1  10  22    0.80    2.71
 -10  -1  22    0.49    2.02
  10   0 -22    7.95    4.33
   0  10 -22    9.85    3.71
  10   0 -22   20.60    4.57
   0 -10 -22   23.66    3.93
 -10   0  22   12.12    4.00
   1  10 -22   -3.97    2.23
  10  -1 -22   -1.19    2.27
   1  10 -22    3.22    2.09
  10  -1 -22    1.36    2.12
  -1 -10  22    1.02    1.36
 -10   1  22    2.34    2.00
   2  10 -22    3.11    2.22
   2  10 -22    5.61    2.41
  10  -2 -22    1.82    2.21
  10  -2 -22    3.01    2.12
 -10   2  22    4.48    2.51
  -2 -10  22    5.99    1.46
   3  10 -22    2.21    2.72
  10  -3 -22    6.15    3.16
   3  10 -22    6.29    3.26
  10  -3 -22   10.75    3.49
  -3 -10  22   15.12    2.23
  -3 -10  22   13.34    2.50
 -10   3  22    3.00    2.98
  10  -4 -22   -0.62    2.08
   4  10 -22   -1.62    2.43
   4  10 -22    0.60    2.11
  -4 -10  22    1.83    1.24
 -10   4  22    1.56    2.33
  -4 -10  22    0.28    1.17
  10  -5 -22    7.53    3.01
  10  -5 -22    3.94    2.75
   5  10 -22    3.54    3.51
   5  10 -22    5.12    3.13
 -10   5  22    5.96    2.85
  -5 -10  22   10.30    2.26
  -5 -10  22    7.72    1.95
  10  -6 -22    9.30    2.69
   6  10 -22    3.47    3.47
   6  10 -22   -0.74    4.02
  10  -6 -22    6.91    2.97
 -10   6  22    1.17    2.99
  -6 -10  22   12.42    1.88
  -6 -10  22   10.97    2.14
  10  -7 -22    8.67    1.93
   7  10 -22    1.02    5.00
  10  -7 -22    1.28    2.43
   7  10 -22    3.03    3.15
  -7 -10  22    3.17    1.44
 -10   7  22    1.79    2.61
  -7 -10  22    3.03    1.64
  10  -8 -22    8.49    4.41
  10  -8 -22   13.36    4.56
 -10   8  22    9.36    4.63
  -8 -10  22   21.47    2.85
  -8 -10  22   11.85    3.18
  10  -9 -22   -1.54    2.52
  10  -9 -22    0.38    1.78
 -10   9  22    0.74    2.89
  10 -11 -22   -3.30    3.07
  10 -11 -22    0.40    1.80
 -10  11  22    5.33    4.24
 -10  11  22    3.11    2.98
   8 -11 -22   -0.64    2.30
   8 -11 -22    1.06    1.74
  -8  11  22    1.15    2.81
  -8  11  22    0.70    3.12
   7 -11 -22   10.49    3.58
   7 -11 -22   11.16    3.27
  -7  11  22    6.05    4.51
   6 -11 -22    1.02    1.91
   6 -11 -22    0.61    1.39
  -6  11  22    5.37    3.18
  -6  11  22    1.70    2.45
   5 -11 -22    1.82    1.36
   5 -11 -22    0.90    1.79
  -5  11  22    5.02    2.80
  -5  11  22    3.99    2.66
   4 -11 -22    3.78    1.81
  11   4 -22    6.18    3.52
   4 -11 -22    3.61    1.45
  -4  11  22    2.90    2.57
  -4  11  22    0.52    2.57
  11   2 -22   -2.74    2.38
   2 -11 -22    2.06    1.51
   2 -11 -22    2.81    1.60
  -2  11  22   -1.44    3.26
  -2  11  22    0.49    2.42
  11   1 -22    7.88    6.15
   1 -11 -22   36.52    5.15
  -1  11  22   27.61    7.81
 -11  -1  22   23.24    5.87
   0  11 -22    0.88    2.20
   0 -11 -22    0.41    1.80
  11   0 -22   -0.51    2.25
   0 -11  22   -0.33    1.24
 -11   0  22    2.85    2.29
   1  11 -22   20.74    6.00
  11  -1 -22   28.82    6.38
  11  -1 -22   30.63    7.50
   1  11 -22   39.80    6.55
 -11   1  22   21.98    5.48
  -1 -11  22   19.03    5.15
  11  -2 -22   -2.94    2.40
  11  -2 -22   -0.49    2.07
   2  11 -22    1.97    2.44
   2  11 -22    1.99    2.31
 -11   2  22   -1.05    2.35
  -2 -11  22    0.30    1.37
   4  11 -22    1.09    2.90
   4  11 -22    2.61    2.48
  11  -4 -22    0.74    2.67
  -4 -11  22    1.47    1.29
  -4 -11  22    0.27    1.29
 -11   4  22   -2.31    2.46
  11  -5 -22   -0.75    2.31
   5  11 -22    0.66    3.04
   5  11 -22   -5.57    2.93
  11  -5 -22   -2.27    2.22
  -5 -11  22   -1.37    1.59
 -11   5  22    0.59    2.40
  -5 -11  22    0.64    1.27
  11  -6 -22    3.93    2.82
   6  11 -22    6.08    3.00
  11  -6 -22   -3.34    1.97
   6  11 -22   -2.36    3.69
  -6 -11  22    0.90    1.18
  -6 -11  22    0.34    1.55
 -11   6  22    3.68    2.62
  11  -7 -22   20.63    4.15
   7  11 -22    4.90    4.74
  11  -7 -22   13.02    4.45
   7  11 -22   -1.06    6.17
  -7 -11  22   15.80    2.55
 -11   7  22    1.31    3.91
  -7 -11  22   14.97    2.80
   8  11 -22  -13.79    4.82
   8  11 -22   -4.00    5.91
  11  -8 -22    0.85    2.91
  11  -8 -22    3.90    1.93
 -11   8  22   -0.76    3.04
  -8 -11  22   -2.96    1.91
  -8 -11  22   -0.63    1.16
  11 -10 -22    1.74    1.99
 -11  10  22   -0.90    3.72
  11 -11 -22    1.55    1.69
  11 -12 -22    2.55    2.26
  10 -12 -22    5.57    3.58
  10 -12 -22    0.39    1.56
   9 -12 -22   -4.78    2.90
   9 -12 -22   -1.06    1.65
   8 -12 -22   -2.70    1.55
   7 -12 -22    0.33    1.68
   6 -12 -22    1.57    1.48
   0  12 -22   28.31    6.01
   0 -12  22   13.74    4.38
   1  12 -22   -2.28    2.38
   1  12 -22    0.46    2.25
  -1 -12  22    4.45    1.63
   2  12 -22   12.24    4.31
   2  12 -22    8.49    4.55
  -2 -12  22   16.65    3.17
   3  12 -22    3.63    2.53
   3  12 -22    0.50    2.58
  -3 -12  22    0.32    1.30
  -3 -12  22   -0.32    1.41
   4  12 -22    4.48    3.04
   4  12 -22    2.84    2.69
  -4 -12  22   -0.60    1.30
  -4 -12  22    1.98    1.34
   5  12 -22   -2.00    3.16
   5  12 -22   -3.10    3.06
  -5 -12  22   -2.47    1.63
  -5 -12  22    1.67    1.43
   6  12 -22   -4.09    4.22
   6  12 -22    0.85    3.14
  -6 -12  22    1.07    1.60
  -6 -12  22   -1.56    1.24
   7  12 -22    2.22    5.73
   7  12 -22   -6.43    3.92
  -7 -12  22   -2.61    1.81
  -7 -12  22    1.31    1.32
   8  12 -22   -1.08    4.56
   8  12 -22    1.38    6.39
  -8 -12  22    3.48    1.23
  -8 -12  22    5.42    1.91
   9  12 -22    1.25    5.26
   9  12 -22    1.85    8.45
  -9 -12  22    1.86    1.54
  -9 -12  22    1.32    2.00
 -10 -12  22   -0.37    1.32
   0  13 -22   -0.47    2.15
   0 -13  22   -0.69    1.46
   1  13 -22   14.55    5.25
   1  13 -22   23.45    4.98
  -1 -13  22   13.03    3.69
   2  13 -22   -0.76    2.37
   2  13 -22    3.06    2.33
  -2 -13  22    1.92    1.73
  -2 -13  22   -0.32    1.38
   3  13 -22   -0.78    2.76
   3  13 -22   -0.54    2.69
  -3 -13  22    0.97    1.42
  -3 -13  22    4.27    1.55
   4  13 -22    6.18    3.51
   4  13 -22    7.41    3.64
  -4 -13  22   10.34    2.39
  -4 -13  22    5.34    2.13
   5  13 -22   -4.32    3.79
   5  13 -22    3.37    3.73
  -5 -13  22    0.36    1.63
  -5 -13  22   -4.25    1.82
   6  13 -22   10.64    5.44
   6  13 -22    3.51    5.64
  -6 -13  22   13.13    2.56
  -6 -13  22    7.34    2.92
   7  13 -22   12.81    4.56
   7  13 -22   -1.19    5.83
  -7 -13  22    2.31    1.32
  -7 -13  22    0.39    1.82
   8  13 -22   -9.08    4.77
   8  13 -22   -7.12    6.79
  -8 -13  22    0.64    1.38
  -8 -13  22    3.35    2.17
   9  13 -22    1.40    5.78
   9  13 -22    3.81    8.50
  -9 -13  22    0.45    1.98
  -9 -13  22    1.12    1.30
  10  13 -22    2.97    6.45
 -10 -13  22    3.65    1.37
 -10 -13  22    0.46    2.09
   0  14 -22    2.51    2.48
   0 -14  22   -0.35    1.54
   1  14 -22   -3.45    2.97
   3  14 -22   -1.26    3.68
  -3 -14  22    2.96    1.65
  -3 -14  22    0.34    1.58
   4  14 -22    0.88    3.18
   4  14 -22   -3.26    3.34
  -4 -14  22    2.53    1.76
  -4 -14  22    0.74    1.44
   5  14 -22   -1.60    4.33
   5  14 -22    2.73    3.79
  -5 -14  22    1.11    1.98
   6  14 -22    1.99    3.74
   6  14 -22   -2.86    4.87
  -6 -14  22    1.15    1.83
  -6 -14  22    1.07    1.54
   7  14 -22    3.36    5.25
   7  14 -22    6.21    6.51
  -7 -14  22   10.65    2.15
  -7 -14  22    6.02    2.58
   8  14 -22    4.40    7.68
   8  14 -22    3.70    4.86
  -8 -14  22    4.24    2.08
  -8 -14  22    2.97    1.38
   9  14 -22    1.55    6.01
  -9 -14  22    2.27    2.16
   0  15 -22    2.15    2.46
   0 -15  22    0.36    1.31
   1  15 -22    8.20    2.88
   1  15 -22   -0.92    3.27
  -1 -15  22    0.43    1.69
  -1 -15  22    0.37    1.69
   2  15 -22    0.87    2.92
   2  15 -22   -3.39    2.68
  -2 -15  22    1.51    1.55
  -2 -15  22    0.35    1.48
   3  15 -22   -1.26    3.14
   3  15 -22   -0.88    2.89
  -3 -15  22   -0.36    1.55
  -3 -15  22    0.35    1.51
   4  15 -22   -2.10    3.30
   4  15 -22   -1.93    3.31
  -4 -15  22    2.35    1.75
  -4 -15  22   -0.38    1.52
   5  15 -22    3.24    4.04
   5  15 -22    9.18    4.04
  -5 -15  22    2.91    1.48
  -5 -15  22    0.38    1.69
   6  15 -22   -3.24    4.35
  -6 -15  22    2.42    1.94
  -6 -15  22    7.37    1.72
   1   0 -23   23.80    5.52
   1   0 -23   22.69    5.59
  -1   0  23   25.36    7.49
   1  -1 -23   -1.23    1.79
   1   1 -23    1.20    1.58
   1   1 -23   -0.60    1.14
  -1  -1  23   -1.35    2.59
   2   1 -23   -0.32    1.36
   2   1 -23   -0.80    1.68
  -2  -1  23    2.75    2.13
   2   0 -23   -1.20    1.35
   2  -1 -23    2.05    1.60
   1   2 -23    1.97    1.64
  -1  -2  23   -0.67    2.28
   2   2 -23   -2.24    1.47
   2   2 -23   -0.34    1.36
  -2  -2  23    1.80    2.32
   3   2 -23   33.49    6.97
   3   2 -23   29.17    6.60
  -3  -2  23   33.73    6.61
  -3  -2  23   31.78    7.46
   3   1 -23   -1.07    1.37
   3   1 -23   -0.30    1.32
  -3  -1  23    0.27    1.14
   3   0 -23   14.53    3.74
  -3   0  23   14.38    3.72
   1   3 -23   -0.78    1.46
   2   3 -23   16.31    6.67
   2   3 -23   38.92    7.61
  -2  -3  23   20.51    8.73
   3   3 -23   -0.35    1.36
   3   3 -23    1.47    1.39
  -3  -3  23   -0.52    1.33
  -3  -3  23   -1.00    2.08
   4   3 -23   18.80    4.09
   4   3 -23   19.02    4.26
   3  -4 -23    7.67    3.41
   3  -4 -23   12.68    4.11
  -3   4  23   15.83    5.12
  -4  -3  23   21.30    4.55
  -4  -3  23   20.77    3.85
  -3   4  23    6.00    4.33
   4   2 -23   12.33    2.46
   2  -4 -23    3.24    2.20
  -2   4  23    5.79    3.54
  -4  -2  23   12.88    2.42
   4   1 -23   33.46    6.74
   1  -4 -23   23.88    6.43
  -4  -1  23   30.84    6.73
  -1   4  23   26.19    9.26
   1   4 -23   35.29    6.57
  -4   1  23   17.45    7.41
   2   4 -23   11.88    2.67
   4  -2 -23    6.00    2.27
   2   4 -23   13.15    3.03
  -2  -4  23   12.01    3.79
  -4   2  23    5.60    3.21
   4  -3 -23   17.27    3.95
   3   4 -23   18.74    4.25
   3   4 -23   23.50    4.75
  -3  -4  23   21.85    5.09
  -4   3  23    9.71    4.22
  -3  -4  23   27.83    3.99
   4   4 -23   -0.69    1.44
   4   4 -23   -1.14    1.60
   4  -4 -23    0.27    1.22
   4  -4 -23    2.58    1.49
  -4   4  23    1.92    1.77
  -4   4  23   -1.02    1.64
  -4  -4  23    1.33    1.43
  -4  -4  23    1.04    2.33
   3  -5 -23   16.33    5.22
   5   3 -23   23.32    5.17
   3  -5 -23   27.61    4.48
  -3   5  23   13.02    5.79
  -3   5  23   23.48    6.42
  -5  -3  23   27.89    4.94
   2  -5 -23    3.16    1.82
   2  -5 -23    3.85    1.54
  -2   5  23    4.69    2.48
   1  -5 -23    5.78    2.00
   1  -5 -23    5.42    1.82
  -1   5  23    2.00    3.28
   5   0 -23   -0.30    1.25
  -5   0  23   -2.17    2.13
   5  -1 -23    4.89    1.86
   1   5 -23    8.95    2.02
  -5   1  23    3.10    2.73
   5  -2 -23    1.14    1.72
   5  -2 -23    1.13    1.45
   2   5 -23    1.55    1.81
  -5   2  23    1.35    2.27
  -2  -5  23    4.13    1.59
  -5   2  23    6.85    2.02
  -2  -5  23    1.34    2.87
   5  -3 -23    8.37    4.61
   3   5 -23   25.91    6.31
   3   5 -23   24.69    5.35
   5  -3 -23   18.21    5.18
  -3  -5  23   20.39    6.04
  -3  -5  23   36.61    5.41
  -5   3  23   16.76    5.57
   5  -5 -23   -0.58    1.43
   5   5 -23    1.97    1.35
   5  -5 -23    1.89    1.55
   5   5 -23    0.77    1.70
  -5   5  23    1.54    1.90
  -5  -5  23   -0.63    1.61
  -5  -5  23   -0.92    2.36
  -5   5  23    4.14    2.19
   5  -6 -23   -0.86    1.27
   5  -6 -23    1.99    1.57
   6   5 -23   -1.53    1.61
  -5   6  23   -0.40    2.11
  -5   6  23   -1.38    2.17
  -6  -5  23    0.64    1.57
   4  -6 -23    0.81    1.15
   4  -6 -23   -0.79    1.60
  -4   6  23    1.48    1.81
  -4   6  23   -4.22    2.70
   3  -6 -23    2.85    1.80
   3  -6 -23   -0.27    1.27
  -3   6  23    1.48    1.84
  -3   6  23    3.17    2.61
  -2   6  23    2.69    2.23
   1  -6 -23    5.35    1.67
   6   1 -23    2.28    1.87
   1  -6 -23    2.56    2.21
  -6  -1  23    6.17    2.35
  -1   6  23    2.08    3.45
   0   6 -23   -0.63    1.59
   6   0 -23    1.90    1.53
   6   0 -23   -0.98    1.29
  -6   0  23   -2.68    1.57
  -6   0  23    0.85    1.96
   6  -1 -23    5.47    2.05
   1   6 -23   11.74    2.25
   6  -1 -23    7.29    1.97
  -6   1  23    4.31    2.55
  -6   1  23    3.07    2.19
   6  -2 -23    3.69    1.84
  -6   2  23    0.71    1.71
  -6   2  23    1.75    2.22
   6  -3 -23   -1.53    2.17
   6  -3 -23    3.37    1.80
  -6   3  23   -1.75    2.42
  -6   3  23    2.92    2.29
   6  -4 -23   -0.29    1.77
   6  -4 -23   -2.72    2.22
  -6   4  23    0.39    2.22
  -6   4  23    0.45    2.90
   6  -5 -23   -0.42    2.37
   6  -5 -23    2.30    1.35
  -6   5  23   12.93    3.52
  -6   5  23    3.75    2.45
   6  -6 -23    0.44    1.72
   6  -6 -23   -0.30    1.35
  -6   6  23    0.44    2.07
  -6   6  23   -1.86    2.22
   6  -7 -23    0.89    1.39
   6  -7 -23   -0.43    1.81
  -6   7  23   -2.03    2.32
  -6   7  23   -1.68    2.17
   5  -7 -23    0.57    1.16
   5  -7 -23   -0.41    1.71
  -5   7  23    0.41    1.82
  -7  -5  23    0.91    2.11
  -5   7  23    0.56    2.44
   4  -7 -23    3.48    1.57
   7   4 -23   -0.81    2.04
   4  -7 -23    4.43    1.87
  -4   7  23    5.85    2.78
  -4   7  23    0.80    2.19
  -7  -4  23    3.59    2.38
   3  -7 -23    7.81    2.62
   3  -7 -23   13.87    2.20
   7   3 -23    2.97    2.65
   7   3 -23    7.51    2.96
  -3   7  23    2.19    3.44
  -7  -3  23    7.64    2.59
  -3   7  23    5.10    3.35
  -7  -3  23    7.42    3.02
   7   2 -23   -1.07    1.78
   2  -7 -23    1.66    1.79
   2  -7 -23    0.29    1.23
   7   2 -23    1.30    1.70
  -2   7  23   -3.21    3.16
  -7  -2  23   -2.04    1.69
  -7  -2  23    0.84    1.93
  -2   7  23   -0.40    1.86
   7   1 -23    5.24    2.46
   1  -7 -23   10.98    2.07
   1  -7 -23   13.80    2.56
   7   1 -23    6.28    2.52
  -1   7  23    1.50    4.08
  -7  -1  23    7.01    2.46
  -7  -1  23    5.43    2.57
   7   0 -23   -2.08    1.73
   7   0 -23    0.83    1.52
  -7   0  23    0.34    1.67
  -7   0  23    3.32    2.01
   7  -1 -23    3.38    2.29
   7  -1 -23    5.79    2.50
  -7   1  23    9.09    2.78
  -7   1  23    7.95    2.74
   7  -2 -23    1.24    1.65
   7  -2 -23    2.98    1.75
   2   7 -23    4.87    1.81
   2   7 -23    1.76    1.70
  -2  -7  23    1.14    1.18
  -7   2  23    0.43    1.90
  -7   2  23    2.65    1.99
   3   7 -23   17.04    3.24
   3   7 -23    5.90    3.13
   7  -3 -23    9.62    2.84
   7  -3 -23    9.82    2.55
  -7   3  23    2.35    3.03
  -3  -7  23   15.00    2.42
  -7   3  23   10.21    3.19
   7  -4 -23    5.51    1.98
   7  -4 -23    1.54    1.56
  -7   4  23    6.83    2.48
  -7   4  23    1.86    2.52
   7  -5 -23   -0.62    1.43
   7  -5 -23    0.44    1.82
  -7   5  23    1.95    2.53
  -7   5  23   -1.22    2.22
   7  -6 -23   -0.45    1.75
   7  -6 -23    0.62    1.44
  -7   6  23   -1.99    2.45
  -7   6  23   -0.85    1.92
   7  -7 -23   -1.00    1.51
   7  -7 -23    5.68    1.95
  -7   7  23    1.06    2.48
  -7   7  23   -2.28    2.12
   6  -8 -23    5.73    2.45
   6  -8 -23    8.97    2.14
  -6   8  23    3.16    3.16
  -6   8  23    5.57    2.92
   8   5 -23   -1.48    2.41
   8   5 -23    0.53    1.92
   5  -8 -23    1.47    1.29
   5  -8 -23   -2.07    1.63
  -5   8  23   -1.27    2.02
  -8  -5  23    2.57    2.10
  -8  -5  23   -3.05    2.08
  -5   8  23   -2.29    2.49
   8   4 -23    1.36    2.34
   4  -8 -23    4.19    1.96
   8   4 -23   10.93    2.44
   4  -8 -23    5.94    1.70
  -4   8  23    2.98    2.41
  -4   8  23    3.67    3.11
  -8  -4  23   -0.82    2.18
  -8  -4  23    2.92    2.18
   8   3 -23    3.97    1.98
   3  -8 -23    0.31    1.33
   3  -8 -23    1.97    1.58
   8   3 -23    2.21    2.01
  -8  -3  23    2.25    2.36
  -3   8  23    2.98    2.35
  -3   8  23    1.17    2.75
  -8  -3  23   -1.60    1.88
   8   2 -23    0.49    1.94
   8   2 -23   -0.85    1.95
   2  -8 -23   -0.61    1.18
   2  -8 -23   -1.58    1.68
  -2   8  23   -0.70    2.59
  -8  -2  23   -0.81    1.80
  -8  -2  23   -0.84    1.92
  -2   8  23    1.70    1.83
   1  -8 -23   -2.52    1.68
   8   1 -23   -1.41    1.64
   8   1 -23   -1.64    1.81
  -8  -1  23   -0.38    1.91
  -8  -1  23    0.80    2.05
  -1   8  23    5.49    3.10
   8   0 -23   -0.44    1.81
   0   8 -23    1.14    1.74
   8   0 -23    2.31    1.78
  -8   0  23    0.74    1.72
   1   8 -23    1.86    1.90
   8  -1 -23   -2.12    1.68
   8  -1 -23    0.37    1.68
  -8   1  23   -2.59    1.80
   8  -2 -23    0.37    1.45
   2   8 -23    2.06    2.15
   8  -2 -23    0.42    1.75
  -8   2  23   -1.16    1.82
  -8   2  23   -2.09    2.01
   8  -3 -23    2.21    1.76
   3   8 -23    2.52    2.20
   8  -3 -23    3.38    1.76
  -8   3  23    3.98    2.23
  -8   3  23    5.71    2.38
   4   8 -23    1.36    2.37
   8  -4 -23    5.99    2.13
  -8   4  23    3.73    2.67
  -8   4  23    0.83    2.13
  -4  -8  23    8.38    1.70
   8  -5 -23   -1.40    1.35
   8  -5 -23    0.45    1.86
  -8   5  23   -1.28    2.14
  -8   5  23    2.41    2.37
   8  -6 -23    8.36    2.37
   8  -6 -23    9.39    2.61
  -8   6  23    4.15    2.85
  -8   6  23   10.23    3.11
   8  -8 -23    5.09    2.47
   8  -8 -23   -0.64    1.53
  -8   8  23   -0.54    2.60
  -8   8  23   -1.13    2.72
   8  -9 -23   20.80    3.55
   8  -9 -23    9.27    3.75
  -8   9  23   12.12    4.74
  -8   9  23    1.12    4.51
   7  -9 -23   -1.29    1.48
   7  -9 -23    5.45    2.10
  -7   9  23   -1.61    2.33
  -7   9  23   -2.07    2.44
   5  -9 -23    9.62    2.51
   5  -9 -23    9.51    2.32
  -5   9  23    1.97    3.21
  -5   9  23    3.27    3.23
  -9  -5  23   10.50    3.02
   9   4 -23    4.03    3.19
   9   4 -23    4.82    3.28
   4  -9 -23    9.97    2.69
   4  -9 -23   10.65    2.33
  -4   9  23    6.50    3.83
  -9  -4  23   14.57    3.30
  -4   9  23    3.18    3.99
   3  -9 -23    5.88    1.65
   9   3 -23    1.20    2.23
   3  -9 -23    5.86    1.89
   9   3 -23    2.36    2.32
  -9  -3  23    4.73    2.31
  -3   9  23    4.49    2.91
  -3   9  23    2.71    2.45
   2  -9 -23   -0.40    1.65
   9   2 -23    0.58    2.18
   2  -9 -23    1.27    1.21
   9   2 -23    1.42    2.23
  -9  -2  23   -1.73    2.02
  -2   9  23    1.74    2.08
  -2   9  23    0.74    2.91
   9   1 -23    1.38    1.93
   9   1 -23    1.69    2.11
   1  -9 -23    2.44    1.54
  -9  -1  23   -0.44    2.14
  -1   9  23    0.80    2.93
   0   9 -23    1.61    1.89
   9   0 -23   -1.79    1.95
   9   0 -23   -0.57    2.05
  -9   0  23    1.22    1.95
   9  -1 -23   -1.30    1.97
   1   9 -23   -1.26    2.04
   9  -1 -23    2.77    2.00
  -1  -9  23    4.59    1.36
  -9   1  23   -0.43    2.08
   2   9 -23   -2.02    2.10
   9  -2 -23   -0.84    2.19
   9  -2 -23    4.59    2.10
   2   9 -23   -4.86    2.24
  -9   2  23    3.14    2.38
  -2  -9  23    4.62    1.39
   9  -3 -23   -1.16    2.34
   3   9 -23    0.43    2.45
   3   9 -23    4.31    2.33
   9  -3 -23    3.15    1.87
  -3  -9  23    4.95    1.57
  -9   3  23   -1.41    2.36
  -3  -9  23    4.78    1.68
   9  -4 -23   14.65    3.48
   4   9 -23    1.85    3.09
   4   9 -23    4.46    3.35
  -4  -9  23   12.88    2.41
  -9   4  23    3.89    2.96
  -4  -9  23   12.11    2.22
   9  -5 -23    8.54    2.47
   5   9 -23    5.03    3.42
   5   9 -23    7.94    3.38
   9  -5 -23    8.07    2.97
  -5  -9  23    8.29    2.16
  -5  -9  23    9.24    2.13
  -9   5  23    3.01    3.13
   9  -7 -23   -0.62    2.65
   9  -7 -23   -0.39    1.80
  -9   7  23    0.53    2.64
  -9   7  23   -1.03    2.53
   9  -8 -23   14.06    4.13
   9  -8 -23   20.86    3.90
  -9   8  23   10.35    4.88
  -9   8  23   12.29    4.46
   9  -9 -23   -1.34    2.53
   9  -9 -23   -0.37    1.70
  -9   9  23    3.93    3.29
  -9   9  23   -0.54    2.60
   9 -10 -23    7.88    3.25
   9 -10 -23    6.71    2.00
  -9  10  23   -2.11    3.55
  -9  10  23   -2.32    3.07
   8 -10 -23   -0.63    2.22
   8 -10 -23    1.79    1.64
  -8  10  23    2.67    3.09
  -8  10  23   -6.40    2.82
   7 -10 -23    6.46    2.53
   7 -10 -23   11.01    2.55
  -7  10  23    4.46    3.53
  -7  10  23    2.93    3.59
   6 -10 -23   12.66    3.34
   6 -10 -23   13.96    3.40
  -6  10  23    4.02    4.77
  -6  10  23   10.34    4.83
   5 -10 -23   -0.90    1.85
   5 -10 -23   -1.79    1.48
  -5  10  23    1.74    2.49
  -5  10  23    1.14    2.86
   3 -10 -23    1.63    1.43
  10   3 -23   -1.34    2.64
   3 -10 -23    0.83    1.81
  10   3 -23   -2.55    2.32
  -3  10  23   -0.65    2.60
 -10  -3  23    1.43    2.10
  -3  10  23    1.89    2.49
   2 -10 -23    4.24    1.85
  10   2 -23   -2.71    2.50
   2 -10 -23    2.74    1.54
  10   2 -23    5.26    2.62
 -10  -2  23    1.00    2.32
  -2  10  23    0.47    2.36
  -2  10  23    7.28    3.32
   1 -10 -23    4.91    1.93
  10   1 -23    6.64    2.43
  10   1 -23    0.52    2.61
 -10  -1  23    3.23    2.24
  -1  10  23    2.30    2.53
  10   0 -23   -1.00    2.00
  10   0 -23   -2.42    2.12
   0  10 -23   -2.03    2.21
 -10   0  23    0.49    2.16
   1  10 -23    5.72    2.12
  10  -1 -23    2.91    2.53
  10  -1 -23    1.93    2.42
   1  10 -23    7.88    2.26
  -1 -10  23    3.38    1.50
 -10   1  23    3.82    2.58
   2  10 -23    3.46    2.45
  10  -2 -23    1.31    2.50
  10  -2 -23    2.75    2.25
   2  10 -23    0.44    2.15
  -2 -10  23    3.32    1.53
 -10   2  23    1.84    2.14
   3  10 -23   -1.92    2.45
  10  -3 -23   -0.67    2.57
   3  10 -23   -1.83    2.27
  10  -3 -23    1.65    1.78
  -3 -10  23   -0.32    1.55
  -3 -10  23    1.66    1.47
 -10   3  23    0.47    2.35
   5  10 -23   -3.96    2.66
   5  10 -23    1.20    3.12
  10  -5 -23   -0.67    2.80
  10  -5 -23    3.54    1.63
  -5 -10  23    0.32    1.37
  -5 -10  23   -0.96    1.32
 -10   5  23    0.51    2.54
  10  -6 -23    6.76    4.02
   6  10 -23    2.28    4.85
  10  -6 -23   19.26    4.35
   6  10 -23   10.86    4.76
 -10   6  23    4.43    3.83
  -6 -10  23   17.33    3.04
  10  -7 -23    1.32    2.91
  10  -7 -23    8.82    2.89
 -10   7  23    3.67    3.32
  -7 -10  23   13.08    2.08
  10  -8 -23   -1.32    2.49
  10  -8 -23   -1.13    1.64
 -10   8  23    0.66    2.87
  10  -9 -23    6.49    2.23
  10  -9 -23    6.64    3.48
 -10   9  23    4.89    3.51
  10 -10 -23   -0.83    1.97
  10 -10 -23   -2.42    2.76
 -10  10  23    0.63    2.93
 -10  10  23    2.42    3.25
  10 -11 -23    0.83    3.00
  10 -11 -23   -1.19    1.81
 -10  11  23   -2.37    2.92
 -10  11  23    0.84    3.53
   9 -11 -23   -1.08    1.72
   9 -11 -23   -5.17    2.80
  -9  11  23   -1.51    3.53
  -9  11  23    2.42    2.90
   7 -11 -23    0.52    1.91
   7 -11 -23    5.27    1.78
  -7  11  23   -2.70    3.45
  -7  11  23    0.57    2.66
   6 -11 -23    2.51    2.36
   6 -11 -23    6.36    1.88
  -6  11  23    0.62    3.28
   5 -11 -23    5.02    1.96
   5 -11 -23    0.63    1.44
  -5  11  23    5.54    2.97
  -5  11  23    2.59    2.99
   4 -11 -23    0.93    1.38
  11   4 -23    1.39    3.42
   4 -11 -23   -0.85    1.62
  -4  11  23    5.48    3.05
  -4  11  23   -1.64    2.75
   3 -11 -23    6.90    1.72
  11   3 -23    6.22    2.88
   3 -11 -23    6.84    1.94
  -3  11  23   -0.69    3.25
  -3  11  23    1.52    2.40
   2 -11 -23    8.55    1.91
   2 -11 -23   11.94    2.36
  11   2 -23    1.14    2.94
  -2  11  23    8.64    3.73
 -11  -2  23    1.65    2.64
  -2  11  23    5.15    3.18
   1 -11 -23   -0.81    1.94
  11   1 -23    1.64    2.32
  11   1 -23    0.79    2.43
 -11  -1  23    3.36    2.61
  -1  11  23   -3.47    2.74
  11   0 -23   17.69    4.01
   0  11 -23   18.42    3.68
  11   0 -23    9.15    4.33
 -11   0  23    1.03    3.24
   1  11 -23    5.82    2.71
  11  -1 -23    1.49    2.44
  11  -1 -23    1.01    2.46
   1  11 -23   -3.62    2.47
 -11   1  23    1.62    2.48
  -1 -11  23    2.98    1.55
   2  11 -23    0.71    2.43
  11  -2 -23    6.95    2.95
  11  -2 -23    3.00    3.09
   2  11 -23    5.57    2.97
 -11   2  23    2.18    2.54
  -2 -11  23    4.05    1.81
   3  11 -23    0.68    2.31
  11  -3 -23   -2.56    2.55
  11  -3 -23    4.48    2.74
   3  11 -23    5.65    2.79
 -11   3  23   -1.08    2.47
  -3 -11  23    3.21    1.67
  -3 -11  23    5.33    1.73
  11  -4 -23    3.77    2.72
   4  11 -23    0.56    2.56
   4  11 -23   -6.36    2.40
 -11   4  23   -1.12    2.44
  -4 -11  23   -1.35    1.55
  -4 -11  23    2.69    1.25
   5  11 -23    5.85    2.94
  11  -5 -23    0.98    2.43
   5  11 -23   -0.66    3.38
  11  -5 -23    0.76    2.81
  -5 -11  23    1.62    1.47
  -5 -11  23    0.66    1.57
 -11   5  23    0.58    2.66
   6  11 -23    3.06    3.11
  11  -6 -23    2.33    2.34
  11  -6 -23    7.02    3.16
   6  11 -23    3.12    4.02
  -6 -11  23    3.39    1.76
  -6 -11  23    9.51    1.65
 -11   6  23   -2.52    3.07
  11  -7 -23    3.95    2.73
  11  -7 -23    0.79    1.86
   7  11 -23    0.82    3.38
   7  11 -23   -1.06    5.19
  -7 -11  23    2.12    1.63
 -11   7  23    5.40    2.88
  -7 -11  23   -0.33    1.16
  11  -9 -23    0.88    2.87
  11  -9 -23   -1.27    1.88
 -11   9  23   -1.56    3.58
  11 -10 -23   -1.57    1.99
 -11  10  23    6.29    3.46
  11 -11 -23   -1.75    1.97
 -11  11  23    0.62    2.62
 -11  11  23    3.95    4.24
  11 -12 -23    1.23    1.74
 -11  12  23   -0.62    2.82
  10 -12 -23   -0.87    3.08
  10 -12 -23   -2.19    1.76
 -10  12  23   -7.73    4.48
   9 -12 -23   -2.14    2.78
   9 -12 -23   -1.15    1.80
  -9  12  23   -1.81    4.05
   8 -12 -23    1.40    2.49
   8 -12 -23    2.79    1.71
   7 -12 -23    0.61    2.39
   7 -12 -23   -0.67    1.56
   6 -12 -23   -0.96    1.62
   5 -12 -23    0.98    1.40
   0  12 -23   -0.48    3.03
   1  12 -23   27.23    5.92
   1  12 -23    6.06    6.04
  -1 -12  23   27.52    5.11
   2  12 -23    1.49    2.38
   2  12 -23    2.01    2.51
  -2 -12  23    3.34    1.57
  12  -3 -23    0.54    2.50
   3  12 -23    0.52    2.55
   3  12 -23    0.73    2.40
  -3 -12  23    0.66    1.36
  -3 -12  23    0.33    1.56
   4  12 -23   -0.76    2.59
   4  12 -23    2.85    2.82
  -4 -12  23    0.67    1.45
  -4 -12  23    0.35    1.66
 -12   4  23   -2.70    2.64
   5  12 -23    0.68    3.25
  12  -5 -23    0.99    2.17
   5  12 -23    1.59    3.04
  -5 -12  23   -1.71    1.45
 -12   5  23   -1.40    2.72
  -5 -12  23    1.01    1.53
   6  12 -23    0.83    3.63
  12  -6 -23    1.05    2.80
   6  12 -23    0.83    4.49
  -6 -12  23   -1.28    1.41
  -6 -12  23   -7.13    1.85
   7  12 -23   -5.58    5.84
   7  12 -23    0.93    3.93
  12  -7 -23   -1.04    2.49
  -7 -12  23   -0.73    1.81
  -7 -12  23    0.34    1.29
  12  -8 -23    0.97    2.40
   8  12 -23    2.80    6.67
   8  12 -23   -1.02    3.95
  -8 -12  23    1.55    1.84
  -8 -12  23    4.22    1.34
   0  13 -23   10.05    3.35
   1  13 -23   -3.58    2.63
   1  13 -23    2.41    2.39
  -1 -13  23    0.75    1.56
   2  13 -23    3.98    3.46
   2  13 -23   10.43    3.45
  -2 -13  23    5.47    2.21
  -2 -13  23   12.26    2.91
   3  13 -23    3.32    2.66
   3  13 -23    1.57    3.06
  -3 -13  23    0.37    1.71
  -3 -13  23    3.08    1.77
   5  13 -23    7.66    5.12
   5  13 -23    1.44    4.95
  -5 -13  23   11.29    2.85
  -5 -13  23   15.78    2.99
   6  13 -23   -4.61    3.73
   6  13 -23    4.45    4.46
  -6 -13  23   -0.75    1.75
  -6 -13  23   -0.98    1.31
   7  13 -23    1.00    3.89
   7  13 -23    2.33    5.41
  -7 -13  23    4.12    1.50
  -7 -13  23    2.78    1.95
   8  13 -23   -1.13    4.67
   8  13 -23    5.76    6.75
  -8 -13  23   -0.42    1.79
  -8 -13  23   -0.33    1.20
   9  13 -23    2.65    5.49
   9  13 -23    5.70    8.08
  -9 -13  23    1.75    2.08
  -9 -13  23   -0.77    1.28
   0  14 -23    6.20    2.81
   1  14 -23    0.58    2.77
   1  14 -23    0.85    2.54
  -1 -14  23   -0.77    1.49
   2  14 -23   -0.58    2.94
   2  14 -23   -2.55    2.81
  -2 -14  23   -0.42    1.85
  -2 -14  23   -1.76    1.49
   3  14 -23    3.85    3.21
   3  14 -23    0.84    2.92
  -3 -14  23   -0.72    1.62
  -3 -14  23   -2.82    1.58
   4  14 -23    3.57    3.40
   4  14 -23    2.69    3.41
  -4 -14  23    8.34    2.16
  -4 -14  23    3.93    1.85
   5  14 -23   -4.51    3.35
   5  14 -23    0.80    3.91
  -5 -14  23    1.39    1.43
  -5 -14  23   -0.33    1.38
   6  14 -23    2.02    5.11
   6  14 -23   -0.97    5.34
  -6 -14  23    7.77    2.84
  -6 -14  23   16.47    2.65
   7  14 -23    5.84    4.77
   7  14 -23    6.29    5.80
  -7 -14  23    2.04    2.06
  -7 -14  23    3.71    1.41
   8  14 -23   -2.46    5.06
   8  14 -23    1.48    7.42
  -8 -14  23    5.32    1.52
  -8 -14  23    2.15    2.17
   0  15 -23    0.56    2.54
   0 -15  23   -1.12    1.44
   1  15 -23    1.68    2.79
   1  15 -23    0.91    2.62
  -1 -15  23   -0.89    1.92
  -1 -15  23    1.58    1.58
   2  15 -23    0.92    3.06
   2  15 -23   -1.73    2.89
  -2 -15  23   -0.36    1.52
  -2 -15  23   -0.39    1.70
   3  15 -23   -1.93    3.36
   3  15 -23   -3.72    3.20
  -3 -15  23    1.48    1.46
  -3 -15  23   -0.38    1.65
   4  15 -23    3.56    3.66
   4  15 -23   -0.98    3.52
  -4 -15  23   -2.56    1.54
   5  15 -23   -4.00    3.82
   5  15 -23   -0.80    3.64
  -5 -15  23    1.39    1.58
   1  -1 -24   11.10    3.73
  -1   1  24    6.42    5.88
   1  -2 -24    0.96    1.36
  -1   2  24   -3.47    2.66
   2  -1 -24   -0.64    1.35
   1   2 -24   -0.83    1.75
  -2   1  24   -2.38    2.28
   2   2 -24    2.68    1.56
   2  -2 -24    2.06    1.70
   2  -2 -24    1.26    1.25
  -2   2  24    0.59    2.28
   2  -3 -24    1.23    1.64
   1  -3 -24    5.20    2.01
   3   0 -24   -0.30    1.19
  -3   0  24    1.54    2.29
   1   3 -24    9.35    2.14
   3  -1 -24    2.36    1.58
  -3   1  24    5.43    2.69
   2   3 -24    2.26    1.61
   3  -2 -24    2.90    1.37
   3  -2 -24    1.55    1.68
   2   3 -24    5.63    1.88
  -3   2  24    3.52    2.33
  -3   2  24    0.96    1.58
   3   3 -24   21.01    4.46
   3  -3 -24   11.47    4.35
  -3  -3  24   23.21    4.23
  -3   3  24   12.43    4.73
   2  -4 -24    2.11    1.61
   2  -4 -24    2.77    1.36
  -2   4  24   -3.07    2.85
   1  -4 -24    3.25    1.75
   1  -4 -24    0.63    1.12
   4   1 -24    0.33    1.45
  -4  -1  24    0.98    2.18
  -1   4  24   -3.59    3.09
   4   0 -24   -0.36    1.33
   4   0 -24   -0.31    1.38
  -4   0  24   -0.97    2.52
   4  -1 -24    0.36    1.31
   4  -1 -24    2.92    1.35
   1   4 -24   -0.37    1.43
  -4   1  24   -0.30    1.52
  -4   1  24   -0.49    2.31
   2   4 -24   -0.41    1.47
   4  -2 -24   -0.86    1.21
   4  -2 -24    0.74    1.43
   2   4 -24    0.73    1.47
  -4   2  24   -0.32    1.56
  -2  -4  24   -0.68    2.93
  -4   2  24   -0.50    2.44
   3   4 -24    3.33    1.72
   4  -4 -24    1.72    1.34
   4   4 -24    2.10    1.55
   4  -4 -24    0.76    1.45
  -4   4  24   -0.52    2.43
  -4   4  24    0.35    1.94
  -4  -4  24    1.14    1.57
   4  -5 -24   -1.16    1.48
   4  -5 -24    2.37    1.40
  -4   5  24    2.62    2.35
  -4   5  24    2.50    1.99
   5   3 -24    0.36    1.68
   3  -5 -24    2.78    1.33
   3  -5 -24    1.24    1.77
  -3   5  24    3.69    1.86
  -3   5  24   -0.56    2.49
  -5  -3  24   -2.01    2.57
   5   2 -24   -0.35    1.68
   2  -5 -24    1.22    1.80
   2  -5 -24    1.50    1.21
  -5  -2  24    6.18    2.61
  -2   5  24    8.29    3.28
   2   5 -24    0.35    1.47
   5  -2 -24    1.92    1.60
   5  -2 -24    0.91    1.39
  -2  -5  24    6.74    1.70
  -2  -5  24    2.09    3.19
  -5   2  24    1.73    2.49
  -5   2  24    1.43    2.09
   5  -3 -24    2.69    1.52
   3   5 -24    1.76    1.83
   5  -3 -24    2.39    1.73
   3   5 -24    3.95    1.58
  -5   3  24    1.39    2.24
  -5   3  24    2.61    1.95
  -3  -5  24    0.88    1.72
  -3  -5  24   -0.63    2.91
   5  -4 -24    1.22    1.82
   4   5 -24   -0.33    1.31
   4   5 -24    3.58    1.74
   5  -4 -24   -0.29    1.29
  -5   4  24   -0.38    1.84
  -5   4  24    3.04    2.70
  -4  -5  24    0.29    1.43
   5  -5 -24    3.53    1.85
   5  -5 -24    0.29    1.22
  -5  -5  24    3.17    1.67
  -5   5  24    1.60    1.78
  -5   5  24    3.82    2.82
   5  -6 -24    3.04    1.54
   5  -6 -24    0.40    1.60
  -5   6  24   -1.62    2.19
  -6  -5  24   -1.85    2.30
  -5   6  24   -1.67    2.19
   4  -6 -24    0.87    1.30
   4  -6 -24    3.69    1.65
   6   4 -24   -1.24    1.94
  -6  -4  24    3.94    2.17
  -4   6  24   -0.39    1.97
  -4   6  24    1.20    2.45
   6   3 -24    5.37    1.95
   3  -6 -24    8.51    1.57
   3  -6 -24    7.16    2.25
   6   3 -24    2.91    1.98
  -6  -3  24    2.28    2.41
  -3   6  24    0.39    2.08
  -6  -3  24    3.86    1.84
  -3   6  24    2.88    2.74
   2  -6 -24    1.24    1.24
   6   2 -24    1.44    1.72
   6   2 -24    4.50    1.78
   2  -6 -24    0.78    1.57
  -2   6  24    0.69    2.67
  -6  -2  24    0.89    2.04
  -6  -2  24    0.34    1.59
  -2   6  24    3.59    2.24
   6   1 -24    0.77    1.58
   1  -6 -24    0.90    1.85
   1  -6 -24   -0.58    1.14
   6   1 -24   -0.67    1.36
  -6  -1  24    2.81    1.95
  -6  -1  24    0.42    1.94
  -1   6  24    1.56    2.92
   6   0 -24    2.31    1.60
   6   0 -24   -0.37    1.55
  -6   0  24   -1.38    1.78
  -6   0  24    3.80    2.11
   6  -1 -24    0.32    1.37
   6  -1 -24   -0.74    1.42
  -6   1  24    2.56    2.34
  -6   1  24    2.85    1.80
   6  -2 -24   -0.63    1.38
   6  -2 -24    2.65    1.59
  -6   2  24    0.87    2.14
  -6   2  24    5.51    2.04
   6  -3 -24    5.58    1.97
   6  -3 -24    1.91    1.77
  -6   3  24    7.10    2.67
  -6   3  24    2.29    2.47
   6  -4 -24    1.55    1.57
   6  -4 -24   -0.60    1.60
  -6   4  24    1.60    2.23
  -6   4  24    0.46    2.42
   6  -5 -24   -0.31    1.41
   6  -5 -24    2.03    1.85
  -6   5  24   -1.66    2.00
  -6   5  24    1.50    2.13
   6  -6 -24   20.85    4.47
   6  -6 -24   20.57    4.77
  -6   6  24   17.66    5.68
  -6   6  24   17.64    5.73
   6  -7 -24    3.73    2.00
   6  -7 -24    0.93    1.42
  -6   7  24   -0.89    1.98
  -6   7  24    8.74    2.59
   5  -7 -24    1.77    1.31
   5  -7 -24    0.42    1.77
  -5   7  24    0.85    2.12
  -7  -5  24    0.90    2.18
  -7  -5  24   -0.72    1.85
  -5   7  24    3.96    2.59
   4  -7 -24   -1.62    1.77
   4  -7 -24    0.93    1.20
   7   4 -24   -0.84    1.70
   7   4 -24    0.43    1.89
  -4   7  24   -1.24    2.62
  -7  -4  24    2.24    2.29
  -7  -4  24    4.02    2.05
  -4   7  24    0.42    1.99
   3  -7 -24    3.40    1.75
   7   3 -24    4.48    1.74
   7   3 -24    0.85    1.84
   3  -7 -24    0.33    1.45
  -3   7  24    0.46    2.23
  -3   7  24    4.87    2.68
  -7  -3  24   -0.93    2.16
  -7  -3  24    0.69    1.76
   7   2 -24    2.13    2.21
   2  -7 -24    7.08    1.89
   7   2 -24    4.78    2.44
   2  -7 -24   13.19    2.39
  -2   7  24    2.14    3.37
  -7  -2  24    9.89    2.31
  -2   7  24    4.55    2.80
  -7  -2  24    2.34    2.58
   7   1 -24   -0.42    1.64
   7   1 -24    0.72    1.94
   1  -7 -24    0.43    1.46
  -7  -1  24    0.34    1.74
  -7  -1  24    0.91    1.93
  -1   7  24   -1.60    2.87
   7   0 -24   -0.36    1.65
   7   0 -24    1.24    1.76
  -7   0  24   -1.83    1.65
  -7   0  24    3.61    2.14
   7  -1 -24   -1.67    1.55
   7  -1 -24    0.35    1.55
  -7   1  24    1.12    1.93
  -7   1  24    5.50    2.44
   7  -2 -24    5.40    2.20
   7  -2 -24    7.17    2.21
  -7   2  24    6.52    2.72
  -2  -7  24    6.27    1.86
  -7   2  24    3.25    2.43
   7  -3 -24    0.43    1.67
   7  -3 -24   -1.31    1.70
  -7   3  24    1.49    1.99
  -7   3  24    0.47    2.20
   7  -4 -24    0.87    1.73
  -7   4  24   -2.90    2.19
  -7   4  24    1.52    2.39
   7  -5 -24    1.72    1.70
   7  -5 -24    2.65    1.76
  -7   5  24    2.07    2.53
  -7   5  24   -0.44    2.32
   7  -6 -24    3.70    1.93
   7  -6 -24    1.34    1.65
  -7   6  24    3.08    2.54
  -7   6  24    2.65    2.39
   7  -8 -24    0.32    1.34
   7  -8 -24    0.99    1.91
  -7   8  24    0.52    2.38
  -7   8  24   -1.01    2.27
   5  -8 -24    3.80    1.50
   5  -8 -24    0.42    1.78
  -5   8  24    4.55    2.57
  -5   8  24   -0.55    2.26
  -8  -5  24   -0.49    2.42
  -8  -5  24    3.65    2.15
   4  -8 -24    6.21    1.97
   4  -8 -24    7.45    1.60
   8   4 -24    0.46    2.30
   8   4 -24    6.31    2.24
  -4   8  24    1.88    2.77
  -8  -4  24   -0.42    2.22
  -4   8  24    2.22    2.38
  -8  -4  24    2.32    2.26
   3  -8 -24    0.41    1.52
   8   3 -24    1.00    2.01
   3  -8 -24    1.63    1.40
   8   3 -24    1.81    2.19
  -3   8  24   -1.30    3.09
  -3   8  24   -2.22    2.22
  -8  -3  24    0.42    2.18
  -8  -3  24    0.88    1.92
   8   2 -24    8.79    2.58
   2  -8 -24    4.47    2.25
   8   2 -24   12.08    2.96
   2  -8 -24    4.82    2.00
  -2   8  24   13.60    4.05
  -8  -2  24   10.37    2.69
  -8  -2  24   11.17    2.90
  -2   8  24    5.32    2.99
   8   1 -24    0.79    1.78
   8   1 -24   -0.44    1.56
   1  -8 -24    0.43    1.49
  -8  -1  24    1.64    1.88
  -8  -1  24   -0.38    1.78
  -1   8  24    2.44    3.14
   8   0 -24    9.24    2.45
   0   8 -24    4.75    2.67
   8   0 -24    6.57    2.43
  -8   0  24    7.07    2.50
  -8   0  24    6.61    2.58
   8  -1 -24   -0.44    1.64
   1   8 -24    0.40    1.85
   8  -1 -24    0.38    1.75
  -8   1  24    2.15    2.03
  -8   1  24    3.07    2.01
   8  -2 -24    9.16    2.49
   8  -2 -24    4.57    2.33
   2   8 -24    5.72    2.71
   2   8 -24    2.54    2.80
  -2  -8  24    7.20    2.07
  -8   2  24    8.40    2.81
  -8   2  24   11.05    2.89
   8  -3 -24    1.39    1.75
   8  -3 -24    2.82    1.69
   3   8 -24    0.62    1.92
  -8   3  24   -0.88    2.23
  -8   3  24    0.41    1.71
  -3  -8  24    1.20    1.30
   8  -4 -24    6.36    2.11
  -8   4  24    0.86    2.46
   8  -5 -24    0.89    1.77
   8  -5 -24    4.29    1.79
  -8   5  24    3.98    2.57
  -8   5  24    1.46    2.33
   8  -7 -24   -1.40    1.79
   8  -7 -24    1.95    1.91
  -8   7  24   -0.50    2.29
  -8   7  24   -0.55    2.73
   8  -8 -24    8.32    2.22
   8  -8 -24    4.33    2.43
  -8   8  24   -1.11    2.72
  -8   8  24    9.96    3.50
   8  -9 -24   -0.58    2.38
   8  -9 -24    1.44    1.60
  -8   9  24   -1.26    3.02
  -8   9  24    5.73    2.91
   7  -9 -24    2.28    1.70
   7  -9 -24    6.06    2.45
  -7   9  24    5.29    2.93
  -7   9  24    5.65    2.82
   6  -9 -24    3.80    1.82
   6  -9 -24   10.57    2.28
  -6   9  24    9.63    3.41
  -6   9  24    3.10    3.00
   5  -9 -24    1.27    1.88
   5  -9 -24    3.71    1.48
  -5   9  24    0.49    2.46
  -5   9  24    1.75    2.70
   9   3 -24   15.22    4.12
   9   3 -24    7.50    4.04
   3  -9 -24   17.73    3.05
   3  -9 -24   17.70    3.21
  -9  -3  24    7.64    3.48
  -3   9  24    7.52    4.36
  -3   9  24    3.30    4.63
   2  -9 -24    2.87    1.87
   9   2 -24    5.63    2.00
   9   2 -24    0.58    2.22
   2  -9 -24    3.47    1.47
  -2   9  24    3.70    2.98
  -9  -2  24   -0.90    2.24
  -2   9  24    3.17    2.48
   9   1 -24    0.41    1.69
   9   1 -24   -0.57    2.13
   1  -9 -24   -3.36    1.64
  -1   9  24    0.84    2.91
  -9  -1  24    0.83    2.15
   9   0 -24   -3.37    2.14
   0   9 -24    2.44    1.93
   9   0 -24   -3.63    1.92
  -9   0  24    0.88    2.12
   9  -1 -24   -0.60    1.97
   1   9 -24    3.05    2.26
   9  -1 -24    4.63    1.69
  -9   1  24    1.35    2.25
   2   9 -24    4.76    2.31
   2   9 -24    0.42    2.24
   9  -2 -24    0.58    2.17
   9  -2 -24    1.13    1.82
  -9   2  24    4.08    2.44
  -2  -9  24    3.39    1.56
   9  -3 -24    7.53    3.17
   3   9 -24    8.93    3.54
   3   9 -24    7.08    3.67
   9  -3 -24   16.88    4.03
  -9   3  24    7.92    3.36
  -3  -9  24   19.17    3.20
  -3  -9  24   13.51    2.95
  -9   4  24    8.70    3.24
   9  -5 -24    1.61    2.04
   9  -5 -24    3.05    2.42
  -9   5  24    1.52    2.59
  -9   5  24   10.50    2.73
   9  -6 -24    3.81    2.72
   9  -6 -24    0.40    1.93
  -9   6  24    7.79    2.81
  -9   6  24    1.64    2.79
   9  -7 -24    5.59    2.22
   9  -7 -24   10.32    2.77
  -9   7  24   -1.14    2.77
  -9   7  24    3.04    2.96
   9  -8 -24    7.06    2.35
   9  -8 -24    0.39    1.79
  -9   8  24   -3.28    2.41
  -9   8  24    1.15    2.96
   9  -9 -24    2.00    2.93
   9  -9 -24   12.98    2.47
  -9   9  24    0.59    3.32
  -9   9  24    2.68    3.78
   9 -10 -24   -4.84    2.59
   9 -10 -24    1.47    1.60
  -9  10  24   -0.61    2.79
  -9  10  24    1.43    3.10
   8 -10 -24    5.46    2.90
   8 -10 -24    6.98    1.98
  -8  10  24    4.15    3.65
  -8  10  24    0.57    3.02
   7 -10 -24    3.34    1.55
   7 -10 -24    6.07    2.00
  -7  10  24    2.43    3.04
  -7  10  24    1.74    2.70
   6 -10 -24    1.29    1.55
   6 -10 -24    0.47    1.93
  -6  10  24    2.50    2.87
  -6  10  24    3.52    3.02
   5 -10 -24   21.57    4.29
   5 -10 -24   23.49    4.39
  -5  10  24    6.75    6.29
  -5  10  24   14.42    6.51
  10   4 -24   -0.69    2.76
   4 -10 -24    4.13    2.00
   4 -10 -24    6.31    1.79
  10   4 -24    2.92    3.07
  -4  10  24    4.32    3.24
 -10  -4  24    5.16    2.73
  -4  10  24    4.96    3.15
   3 -10 -24    2.01    1.37
   3 -10 -24    0.42    1.64
  10   3 -24    0.58    2.44
  10   3 -24    3.50    2.65
 -10  -3  24    3.48    2.32
  -3  10  24   -2.45    2.52
  -3  10  24    2.06    2.96
  10   2 -24   -2.72    2.49
   2 -10 -24    0.37    1.45
  10   2 -24   -3.67    2.40
   2 -10 -24    1.74    1.78
 -10  -2  24   -1.41    2.16
  -2  10  24   -3.77    3.25
   2  10 -24    1.37    2.26
  10  -2 -24   -2.69    2.48
  10  -2 -24   -0.45    2.26
 -10   2  24   -2.40    2.24
  -2 -10  24    2.43    1.46
  10  -3 -24    5.61    2.26
   3  10 -24    2.73    2.21
  10  -3 -24   -1.35    2.61
   3  10 -24    1.86    2.26
  -3 -10  24    4.48    1.55
 -10   3  24   -2.47    2.05
  -3 -10  24    0.30    1.35
  10  -4 -24    6.83    3.09
   4  10 -24    7.65    3.03
   4  10 -24    2.26    3.05
  -4 -10  24    6.87    1.86
  -4 -10  24   11.52    1.86
 -10   4  24   -2.05    2.48
  10  -5 -24   20.90    5.02
  10  -5 -24   12.48    5.31
   5  10 -24    7.24    5.23
   5  10 -24   14.93    5.40
 -10   5  24   18.63    4.86
  -5 -10  24   18.32    3.96
  -5 -10  24   22.00    3.47
  10  -6 -24   -0.71    2.69
  10  -6 -24    0.79    1.70
 -10   6  24    0.55    2.73
  10  -7 -24   -2.13    2.51
  10  -7 -24   -0.78    1.66
 -10   7  24    2.89    2.85
  10  -8 -24    4.88    3.06
  10  -8 -24    0.42    2.25
 -10   8  24   -0.58    2.78
 -10   8  24    8.48    3.15
  10  -9 -24    0.69    2.42
  10  -9 -24    0.82    1.83
 -10   9  24   -2.42    2.69
 -10   9  24   -5.04    3.36
  10 -10 -24   -3.70    2.39
  10 -10 -24    2.31    2.98
 -10  10  24   -3.00    2.64
 -10  10  24   -2.29    3.75
  10 -11 -24   -2.28    1.67
  10 -11 -24   -1.69    3.18
 -10  11  24   -0.86    3.93
 -10  11  24   -5.15    2.97
   9 -11 -24   -3.77    2.82
   9 -11 -24    5.47    2.02
  -9  11  24    0.78    3.71
  -9  11  24    2.51    3.35
   8 -11 -24    0.35    1.52
   8 -11 -24   -1.32    2.26
  -8  11  24   -1.21    2.57
  -8  11  24    0.75    3.52
   6 -11 -24    3.00    2.25
   6 -11 -24    2.91    1.52
  -6  11  24    5.90    2.94
  -6  11  24    1.83    3.07
   5 -11 -24   -0.48    1.88
   5 -11 -24    1.92    1.35
  -5  11  24   -1.16    2.80
  -5  11  24   -2.05    2.89
   4 -11 -24    9.24    2.23
  11   4 -24    1.23    3.02
  -4  11  24   -1.67    2.90
  -4  11  24   -2.68    2.92
   3 -11 -24    0.82    1.75
  11   3 -24    0.63    3.01
   3 -11 -24    0.68    1.42
  -3  11  24    2.60    2.57
  -3  11  24    0.77    3.17
 -11  -3  24   -1.69    2.50
   2 -11 -24    5.97    1.50
   2 -11 -24    5.07    1.98
  11   2 -24   -4.95    2.98
  11   2 -24   -0.80    2.84
 -11  -2  24    2.28    2.58
  -2  11  24    4.26    3.21
  -2  11  24   11.93    3.90
  11   1 -24    2.96    2.59
   1 -11 -24    7.84    2.07
  11   1 -24   -0.75    2.77
  -1  11  24   -0.51    4.09
 -11  -1  24    1.04    2.13
  11   0 -24    5.29    3.14
   0  11 -24    1.39    2.00
  11   0 -24   -1.14    2.55
 -11   0  24    0.54    2.10
  11  -1 -24    2.20    2.45
  11  -1 -24    2.95    2.84
   1  11 -24    1.98    2.39
 -11   1  24    0.52    2.18
  -1 -11  24    2.02    1.44
  11  -2 -24    4.56    3.11
  11  -2 -24   -0.53    2.35
   2  11 -24    3.86    2.72
   2  11 -24    2.08    2.75
  -2 -11  24    7.43    1.69
 -11   2  24    6.83    2.59
  11  -3 -24   -0.50    2.39
   3  11 -24    2.63    2.45
   3  11 -24    2.95    2.53
  11  -3 -24   -0.76    2.48
  -3 -11  24    2.79    1.43
 -11   3  24    0.54    2.56
  -3 -11  24    2.57    1.57
   4  11 -24   -2.29    2.90
   4  11 -24    1.49    2.76
  11  -4 -24    6.93    3.09
 -11   4  24    1.11    2.42
  -4 -11  24    5.87    1.57
  -4 -11  24    4.50    1.74
   5  11 -24   -2.03    3.23
  11  -5 -24   -0.78    2.48
   5  11 -24   -0.73    2.87
  11  -5 -24    1.24    1.98
  -5 -11  24    1.34    1.32
 -11   5  24   -2.88    2.82
  -5 -11  24    0.30    1.34
  11  -6 -24   -0.78    2.90
   6  11 -24    0.80    4.14
  11  -6 -24    3.63    2.31
   6  11 -24   -3.19    3.19
  -6 -11  24    4.09    1.38
 -11   6  24    0.61    2.71
  -6 -11  24    2.89    1.80
  11  -8 -24    1.64    2.68
  11  -8 -24    0.43    2.21
 -11   8  24    2.87    3.11
  11  -9 -24    0.41    2.07
  11  -9 -24   -0.84    2.92
 -11   9  24    1.53    3.47
  11 -10 -24   -0.88    2.04
  11 -10 -24   -2.74    3.51
 -11  10  24    0.63    3.08
 -11  10  24    5.95    3.99
 -11  11  24    0.96    4.07
 -11  11  24    1.22    2.94
 -11  12  24    1.12    4.67
  10 -12 -24    4.54    2.17
  10 -12 -24    2.65    3.20
 -10  12  24    2.75    3.01
 -10  12  24    2.92    4.54
   9 -12 -24   -1.49    1.64
   9 -12 -24   -3.00    3.09
  -9  12  24    0.61    2.80
  -9  12  24   -0.88    3.90
   8 -12 -24    1.08    1.71
   8 -12 -24    4.82    2.66
  -8  12  24   -3.11    3.48
  -8  12  24    0.62    2.99
   7 -12 -24    4.28    1.80
   7 -12 -24    3.74    2.51
  -7  12  24    0.76    3.93
   6 -12 -24    0.57    2.19
   6 -12 -24   -0.35    1.47
  12   4 -24   -4.70    3.35
   4 -12 -24    0.73    1.40
  12   3 -24   -4.77    2.90
   3 -12 -24   -2.26    1.70
  12   2 -24    6.42    3.97
  12   1 -24    3.03    3.01
   0  12 -24   14.72    3.39
  12   0 -24    5.24    3.43
   1  12 -24    2.85    2.28
   1  12 -24   -0.48    2.46
  12  -1 -24    0.57    2.24
 -12   1  24   -0.63    2.49
  -1 -12  24    0.33    1.35
  12  -2 -24    6.63    3.28
   2  12 -24    7.40    3.30
   2  12 -24    6.18    3.12
  -2 -12  24    8.62    2.08
 -12   2  24    6.23    3.04
  12  -3 -24    5.52    2.52
   3  12 -24    0.53    2.60
   3  12 -24   -2.33    2.80
 -12   3  24    0.62    2.27
  -3 -12  24    1.70    1.38
  -3 -12  24    2.94    1.45
   4  12 -24    5.60    3.00
   4  12 -24   -1.75    3.00
  -4 -12  24   -0.69    1.57
  -4 -12  24    0.33    1.47
 -12   4  24   -0.64    2.61
   6  12 -24   -5.90    4.24
  12  -6 -24    1.02    2.09
   6  12 -24   -0.88    3.38
  -6 -12  24    0.37    1.69
 -12   6  24    0.69    2.77
  -6 -12  24   -0.33    1.39
   7  12 -24    5.93    3.94
   7  12 -24   -1.11    5.56
  12  -7 -24   -0.88    2.12
 -12   7  24   -3.02    3.26
  -7 -12  24   -0.75    1.82
  -7 -12  24    5.92    1.46
  12  -8 -24    4.74    2.08
   3  13 -24    0.83    3.18
   3  13 -24    2.83    2.75
  -3 -13  24   -1.68    1.54
  -3 -13  24    0.37    1.51
   4  13 -24   -3.65    3.17
   4  13 -24    0.86    2.92
  -4 -13  24    6.94    1.76
  -4 -13  24    0.34    1.45
   5  13 -24    1.74    3.52
   5  13 -24    2.92    3.94
  -5 -13  24    1.81    1.74
  -5 -13  24    4.57    1.69
   6  13 -24   -0.93    3.85
   6  13 -24   -2.66    4.49
  -6 -13  24    2.25    2.10
  -6 -13  24    8.07    1.77
   7  13 -24   -4.15    3.86
   7  13 -24   -1.18    5.47
  -7 -13  24   -0.35    1.38
  -7 -13  24    0.78    1.87
   8  13 -24    1.14    4.40
   8  13 -24   -5.87    6.89
  -8 -13  24   -1.64    1.92
  -8 -13  24    3.70    1.28
   0  14 -24    1.06    2.51
   1  14 -24    0.59    2.81
   1  14 -24    1.67    2.48
  -1 -14  24   -0.71    1.43
   2  14 -24    1.18    2.77
   2  14 -24   -5.55    3.26
  -2 -14  24    0.37    1.53
  -2 -14  24    1.73    1.86
   3  14 -24   -3.27    3.41
   3  14 -24   -0.90    3.16
  -3 -14  24    4.05    1.74
  -3 -14  24    4.86    1.81
   4  14 -24    4.11    3.42
   4  14 -24   -1.85    3.08
  -4 -14  24    1.56    1.84
  -4 -14  24   -3.46    1.63
   5  14 -24    0.81    4.76
   5  14 -24   -0.97    4.31
  -5 -14  24    1.14    2.16
   6  14 -24   -1.01    3.75
   6  14 -24    0.99    4.74
  -6 -14  24   -0.39    1.75
  -6 -14  24   -1.47    1.38
   7  14 -24    2.55    6.17
   7  14 -24    7.66    4.14
  -7 -14  24   -0.41    1.83
   8  14 -24    3.68    5.14
  -8 -14  24    0.86    2.03
   0  15 -24    0.57    2.11
   1  15 -24    5.18    2.94
   1  15 -24    4.01    2.89
  -1 -15  24   -1.82    1.47
   2  15 -24    1.18    3.00
   2  15 -24   -1.99    3.14
  -2 -15  24    0.37    1.39
   3  15 -24   -1.90    2.84
  -3 -15  24    1.74    1.48
   4  15 -24    1.94    3.16
  -4 -15  24    0.36    1.67
   1   0 -25   97.32   15.50
  -1   0  25   40.02   20.59
   1  -1 -25   -1.28    1.64
  -1  -1  25    0.75    2.65
  -1   1  25    1.49    3.06
   2   1 -25   12.63    2.85
   1  -2 -25   18.18    3.06
  -2  -1  25    0.68    4.30
  -1   2  25    4.55    4.34
   2   0 -25    0.35    1.43
   2   0 -25    1.67    1.82
  -2   0  25   -4.74    2.99
   2  -1 -25    8.05    3.11
   2  -1 -25   10.24    2.65
  -2   1  25    7.31    4.19
   2  -2 -25   -0.66    1.48
   2  -2 -25   -0.42    1.74
   2   2 -25   -0.80    1.76
  -2  -2  25   -3.87    3.82
  -2   2  25   -4.70    3.36
   2  -3 -25   -1.69    1.69
   3   2 -25   -1.14    1.66
   2  -3 -25   -3.23    1.34
  -3  -2  25   -3.51    3.46
   3   0 -25    0.78    1.61
   3  -2 -25    0.95    1.37
   3  -2 -25    2.02    1.57
  -3   2  25   -1.10    3.09
  -3   2  25   -1.01    1.88
   3   3 -25    3.21    1.59
   3  -3 -25   -0.41    1.62
   3  -3 -25   -0.63    1.23
  -3   3  25   -2.81    3.19
  -3   3  25   -0.71    1.79
  -3  -3  25   -1.19    2.50
   4   3 -25   -0.37    1.53
   3  -4 -25   -0.33    1.31
   3  -4 -25   -0.41    1.49
  -3   4  25   -2.18    1.93
  -4  -3  25   -1.04    2.39
  -3   4  25    2.32    2.47
   2  -4 -25    2.24    1.46
   4   2 -25   -1.79    1.54
   2  -4 -25    1.29    1.68
   4   2 -25    0.72    1.32
  -4  -2  25   -3.20    2.53
  -4  -2  25    0.89    1.35
  -2   4  25   -3.47    3.00
   4   1 -25    1.72    1.78
   1  -4 -25    4.55    1.99
   4   1 -25    4.38    2.05
  -1   4  25    5.47    4.29
  -4  -1  25    2.85    3.05
  -4  -1  25    1.55    1.97
   4   0 -25    2.60    1.68
   4   0 -25   -0.34    1.27
  -4   0  25   -0.56    2.47
  -4   0  25    0.31    1.59
   4  -1 -25    3.15    1.83
   1   4 -25    7.68    1.90
   4  -1 -25    8.05    1.93
  -4   1  25    8.29    2.23
  -4   1  25    8.44    3.29
   4  -2 -25    1.91    1.46
   4  -2 -25    1.85    1.44
  -4   2  25    0.33    1.73
  -4   2  25    3.97    2.49
   4  -3 -25   -1.21    1.39
   4  -3 -25   -0.77    1.41
  -4   3  25    2.08    1.82
  -4   3  25    0.58    2.50
   4   4 -25   -1.95    1.79
   4  -4 -25    3.55    1.72
   4  -4 -25   -0.93    1.44
  -4   4  25   -0.37    1.70
  -4  -4  25    2.68    2.50
  -4   4  25    1.19    2.49
   5   4 -25   -2.24    1.54
   5   4 -25    3.42    1.84
   4  -5 -25    0.32    1.30
   4  -5 -25    5.53    1.72
  -5  -4  25   -0.32    1.49
  -5  -4  25    2.03    2.12
  -4   5  25   -0.37    1.86
  -4   5  25    1.22    2.94
   3  -5 -25    1.71    1.76
   5   3 -25   -1.50    1.63
   5   3 -25   -1.89    1.57
   3  -5 -25   -2.00    1.36
  -5  -3  25    0.32    1.50
  -3   5  25    3.01    2.81
  -3   5  25    3.95    1.84
  -5  -3  25    0.49    2.45
   5   2 -25    1.46    1.57
   2  -5 -25    0.82    1.74
   5   2 -25    0.70    1.57
   2  -5 -25    1.57    1.16
  -5  -2  25    2.40    2.25
  -5  -2  25    0.66    1.46
  -2   5  25    0.71    2.64
   1  -5 -25   -0.44    1.76
   5   1 -25   -0.34    1.60
   5   1 -25    0.78    1.52
  -5  -1  25    3.54    2.64
  -1   5  25   -0.80    3.09
  -5  -1  25   -0.68    1.64
   5   0 -25   -0.33    1.48
  -5   0  25   -1.04    2.62
  -5   0  25    0.35    1.74
   5  -1 -25    0.99    1.48
   5  -1 -25    1.57    1.38
   1   5 -25    1.68    1.66
  -5   1  25    4.25    1.95
  -5   1  25    2.05    2.56
   5  -2 -25   -0.97    1.44
   2   5 -25    4.56    1.73
   5  -2 -25    1.17    1.53
  -5   2  25    0.37    1.97
  -2  -5  25   -1.72    1.46
  -5   2  25   -2.08    2.48
   5  -3 -25   -0.31    1.45
   5  -3 -25    1.21    1.86
  -5   3  25    1.06    2.49
  -5   3  25    0.39    1.89
   5  -4 -25   -2.08    1.78
  -5   4  25   -0.41    1.95
  -5   4  25   -1.66    2.66
   5   5 -25   -1.90    2.19
   5  -5 -25    0.30    1.28
   5  -5 -25   -0.42    1.73
  -5  -5  25    0.58    2.40
  -5   5  25   -1.67    2.39
  -5   5  25   -0.83    1.89
   5  -6 -25   29.81    5.04
   5  -6 -25   20.83    5.18
  -5   6  25   17.27    6.31
  -6  -5  25   13.14    6.01
  -5   6  25   14.50    6.53
  -6  -5  25   20.87    5.55
   6   4 -25   10.52    3.43
   4  -6 -25   15.38    3.47
   4  -6 -25   17.77    3.09
   6   4 -25    8.07    4.01
  -4   6  25   11.42    4.70
  -6  -4  25    9.98    3.95
  -4   6  25   12.12    3.82
  -6  -4  25   14.18    3.41
   3  -6 -25    1.01    1.36
   3  -6 -25    2.61    1.81
   6   3 -25    0.81    1.85
   6   3 -25    0.41    1.58
  -3   6  25    2.06    1.98
  -3   6  25    1.90    2.61
  -6  -3  25   -0.98    1.54
  -6  -3  25   -0.44    2.27
   2  -6 -25   14.37    3.28
   6   2 -25    9.95    3.47
   6   2 -25    8.95    3.30
   2  -6 -25    8.09    2.96
  -2   6  25   12.37    4.00
  -6  -2  25    4.43    3.38
  -2   6  25   12.66    4.85
  -6  -2  25   13.78    3.47
   6   1 -25    1.13    1.31
   6   1 -25    1.41    1.54
   1  -6 -25   -1.38    1.76
  -1   6  25   -3.22    3.34
  -6  -1  25    0.47    1.88
  -6  -1  25    1.76    1.72
   6   0 -25    0.76    1.45
   6   0 -25   -0.66    1.44
  -6   0  25    2.89    1.97
  -6   0  25    0.94    2.26
   6  -1 -25   -0.78    1.47
   6  -1 -25    1.60    1.51
  -6   1  25   -1.42    2.02
  -6   1  25   -0.47    2.13
   6  -2 -25   18.16    3.08
   6  -2 -25   14.28    3.19
  -6   2  25   15.02    3.36
  -6   2  25   10.40    3.69
   6  -3 -25    1.21    1.60
   6  -3 -25   -1.23    1.47
  -6   3  25    1.14    1.94
  -6   3  25   -0.99    2.63
   6  -4 -25   13.99    3.26
  -6   4  25    7.85    3.73
   6  -5 -25   29.73    5.41
   6  -5 -25   28.15    5.22
  -6   5  25   24.80    6.44
  -6   5  25   11.56    6.01
   6  -6 -25    2.28    1.35
   6  -6 -25    0.87    1.83
  -6   6  25   -0.46    2.41
  -6   6  25    4.53    2.54
   5  -7 -25    0.86    1.81
   5  -7 -25   -0.91    1.26
  -5   7  25   -2.24    2.39
  -7  -5  25   -2.02    2.82
  -5   7  25    1.13    2.45
   7   4 -25    1.40    1.72
   4  -7 -25   -0.31    1.24
   4  -7 -25    0.42    1.70
   7   4 -25   -0.88    1.95
  -4   7  25   -0.60    2.43
  -7  -4  25    1.90    2.74
  -4   7  25    3.05    2.00
  -7  -4  25    2.15    1.76
   3  -7 -25    4.58    1.98
   7   3 -25    7.13    2.41
   3  -7 -25    7.90    2.33
   7   3 -25    3.85    2.34
  -3   7  25   14.06    3.54
  -7  -3  25   10.89    2.84
  -3   7  25    4.31    2.94
  -7  -3  25    8.65    2.37
   2  -7 -25    3.08    1.68
   7   2 -25    1.31    1.77
   7   2 -25    0.78    1.77
   2  -7 -25    1.34    1.35
  -7  -2  25   -1.07    1.82
  -2   7  25   -0.77    2.91
  -2   7  25    0.43    2.15
  -7  -2  25    2.73    2.14
   7   1 -25    1.14    1.76
   7   1 -25    0.42    1.83
   1  -7 -25    3.26    1.84
  -7  -1  25    0.37    1.86
  -1   7  25    4.17    3.08
  -7  -1  25   -1.82    2.10
   7   0 -25    7.16    2.17
   7   0 -25    2.54    2.18
  -7   0  25    6.80    2.25
  -7   0  25    6.07    2.86
   7  -1 -25    3.72    1.81
   7  -1 -25    2.10    1.62
  -7   1  25    0.71    1.74
  -7   1  25    2.36    2.38
   7  -2 -25    0.36    1.58
   7  -2 -25    0.42    1.60
  -7   2  25    2.88    2.38
  -7   2  25    0.37    1.80
   7  -3 -25    2.11    2.14
   7  -3 -25    0.85    2.15
  -7   3  25   15.80    3.09
  -7   3  25    5.30    2.54
   7  -4 -25   -1.31    1.53
  -7   4  25    2.36    1.97
   7  -5 -25    0.33    1.56
   7  -5 -25   -0.90    1.93
  -7   5  25    0.50    2.45
  -7   5  25    1.68    2.15
   7  -7 -25   -1.33    1.47
   7  -7 -25   -0.96    1.93
  -7   7  25    1.61    2.46
  -7   7  25    0.47    2.14
   7  -8 -25    0.32    1.48
   7  -8 -25    2.48    1.88
  -7   8  25   -6.07    2.54
  -7   8  25   -0.56    2.75
   6  -8 -25   -0.92    1.88
   6  -8 -25    0.66    1.32
  -6   8  25   -1.91    2.13
  -6   8  25   -0.60    2.46
   5  -8 -25   12.65    3.58
   5  -8 -25   17.28    3.62
  -5   8  25   10.53    4.62
  -5   8  25    6.47    4.80
   8   4 -25   -2.08    2.25
   8   4 -25   -0.98    2.22
   4  -8 -25   -1.99    1.62
  -8  -4  25    1.31    2.20
  -8  -4  25    2.58    3.08
  -4   8  25    4.98    2.65
  -4   8  25    0.59    2.55
   8   3 -25   14.19    4.83
   3  -8 -25   22.63    3.87
   8   3 -25   10.59    4.68
   3  -8 -25   13.81    3.89
  -8  -3  25   16.79    4.36
  -8  -3  25   16.13    4.33
  -3   8  25   18.02    5.34
  -3   8  25    9.29    5.51
   8   2 -25    2.07    1.77
   8   2 -25   -0.90    1.62
   2  -8 -25    0.35    1.20
   2  -8 -25    2.52    1.85
  -8  -2  25   -0.40    2.03
  -8  -2  25   -2.42    2.67
  -2   8  25    0.75    3.03
  -2   8  25    1.37    2.05
   1  -8 -25   17.75    3.75
   8   1 -25   11.95    3.63
   8   1 -25   13.19    3.97
  -8  -1  25   22.82    4.05
  -8  -1  25   14.78    3.70
  -1   8  25    7.67    5.86
   8   0 -25    1.17    1.67
   8   0 -25   -1.78    1.75
  -8   0  25   -3.55    2.06
  -8   0  25    0.94    1.90
   8  -1 -25    9.78    3.87
   8  -1 -25    9.11    3.67
   1   8 -25   17.41    4.02
  -8   1  25   17.92    4.08
  -8   1  25   10.18    3.74
   8  -2 -25   -0.37    1.69
   8  -2 -25    0.94    1.92
  -2  -8  25    0.92    1.25
  -8   2  25    4.13    2.15
  -8   2  25    0.97    2.23
   8  -3 -25   21.96    4.35
   8  -3 -25   13.57    4.03
  -8   3  25   18.50    4.53
  -8   3  25   12.01    4.07
  -8   4  25    0.44    2.07
   8  -5 -25   14.52    3.71
   8  -5 -25   15.61    3.71
  -8   5  25   13.89    4.51
  -8   5  25   17.79    4.23
   8  -6 -25    2.17    1.85
   8  -6 -25    0.48    1.89
  -8   6  25    1.67    2.48
  -8   6  25    2.43    2.45
   8  -7 -25    0.38    1.68
   8  -7 -25    9.83    2.16
  -8   7  25   -2.54    2.36
  -8   7  25    0.57    2.74
   8  -8 -25   -2.54    2.08
   8  -8 -25    1.04    1.57
  -8   8  25   -2.80    2.52
  -8   8  25   -3.28    2.77
   8  -9 -25    8.70    2.31
   8  -9 -25   13.32    2.81
  -8   9  25   -3.10    3.08
  -8   9  25    1.13    3.10
   7  -9 -25   -0.53    2.26
   7  -9 -25    3.12    1.63
  -7   9  25    3.34    2.87
  -7   9  25   -1.65    2.47
   6  -9 -25    4.24    2.06
   6  -9 -25    3.91    1.74
  -6   9  25    1.58    2.73
  -6   9  25   -0.63    3.28
   5  -9 -25   18.32    3.53
   5  -9 -25   18.39    3.58
  -5   9  25    6.49    4.75
  -5   9  25   10.60    5.38
   4  -9 -25   18.22    3.46
   9   4 -25   19.59    5.09
   9   4 -25    3.74    4.75
   4  -9 -25   15.70    3.69
  -4   9  25    6.31    5.23
  -9  -4  25   16.51    4.37
  -9  -4  25   22.68    4.17
  -4   9  25   22.49    5.34
   9   3 -25   -1.20    2.28
   3  -9 -25   -0.34    1.32
   9   3 -25   -1.00    2.44
   3  -9 -25    3.72    1.69
  -3   9  25   -2.09    2.92
  -3   9  25   -0.49    2.42
  -9  -3  25    2.25    2.19
  -9  -3  25   -2.77    2.26
   9  -3 -25   -1.14    2.48
   9  -3 -25    4.25    1.92
  -9   3  25    5.35    2.44
  -3  -9  25    0.35    1.43
  -9   3  25    1.59    2.56
  -3  -9  25   -0.34    1.50
   9  -4 -25   28.92    4.56
  -9   4  25    9.58    4.36
   9  -5 -25   16.14    3.88
   9  -5 -25   20.49    4.35
  -9   5  25   13.49    4.35
  -9   5  25    5.67    3.98
   9  -6 -25    5.55    2.63
   9  -6 -25    3.19    2.08
  -9   6  25    3.72    2.91
  -9   6  25    5.96    3.18
   9  -7 -25    3.29    2.53
   9  -7 -25    7.21    2.00
  -9   7  25   -2.83    2.78
  -9   7  25    1.17    3.09
   9  -8 -25    6.43    2.26
   9  -8 -25    1.89    2.49
  -9   8  25    4.22    3.41
  -9   8  25    3.10    3.33
   9  -9 -25    0.67    2.35
   9  -9 -25   -1.19    1.77
  -9   9  25    5.69    2.88
  -9   9  25   -2.57    3.11
   9 -10 -25   -1.41    2.90
   9 -10 -25    0.39    1.63
  -9  10  25   -1.48    3.50
  -9  10  25   -0.63    3.01
   8 -10 -25    0.36    1.62
   8 -10 -25    0.61    2.19
  -8  10  25    2.12    3.45
  -8  10  25   -3.65    2.91
   7 -10 -25   -4.75    2.14
   7 -10 -25   -1.39    1.65
  -7  10  25   -1.17    2.92
  -7  10  25   -4.07    3.05
   6 -10 -25   11.45    2.13
   6 -10 -25    7.01    2.27
  -6  10  25    5.53    3.19
  -6  10  25   -1.79    3.21
   5 -10 -25    4.75    2.11
   5 -10 -25    9.01    2.10
  -5  10  25    4.67    3.57
  -5  10  25   -0.69    3.60
  10   4 -25    2.89    3.47
   4 -10 -25   13.10    2.55
   4 -10 -25    5.46    2.50
  10   4 -25    4.98    3.54
 -10  -4  25   14.50    3.14
  -4  10  25    5.98    3.81
  -4  10  25    0.56    3.71
   3 -10 -25    9.89    2.42
  10   3 -25    3.19    2.88
   3 -10 -25   11.12    1.99
  10   3 -25    1.55    2.69
 -10  -3  25    2.96    2.54
  -3  10  25    0.50    3.20
  -3  10  25    5.42    3.82
   2 -10 -25   -1.35    1.85
  10   2 -25    1.89    2.39
  10   2 -25   -2.52    2.32
   2 -10 -25    3.60    1.30
  -2  10  25   -4.24    2.75
 -10  -2  25    1.01    2.26
  -2  10  25   10.27    3.68
  10   1 -25   -0.49    2.22
   1 -10 -25    2.69    1.96
  10   1 -25    0.67    2.66
  -1  10  25   -3.50    2.77
 -10  -1  25   -0.46    1.92
  10   0 -25    4.06    2.70
  10   0 -25   -0.48    1.91
 -10   0  25   -2.34    2.10
   1  10 -25   -2.70    2.25
  10  -1 -25   -0.45    2.03
  10  -1 -25    3.31    2.50
 -10   1  25    1.44    2.17
  10  -2 -25    5.28    2.01
  10  -2 -25   -1.30    2.47
   2  10 -25    5.22    2.41
   2  10 -25   -0.47    2.36
  -2 -10  25    2.34    1.47
 -10   2  25    1.00    2.30
   3  10 -25    5.12    3.02
   3  10 -25    0.48    2.49
  10  -3 -25    5.89    2.78
  10  -3 -25    3.77    2.26
  -3 -10  25   11.57    2.07
 -10   3  25    5.63    2.58
  -3 -10  25    2.74    1.79
  10  -4 -25    3.96    3.25
   4  10 -25   11.32    3.52
 -10   4  25    6.89    3.01
  -4 -10  25   10.46    2.31
  -4 -10  25   13.20    2.22
  10  -5 -25   11.40    3.09
  10  -5 -25    4.20    2.74
 -10   5  25    5.52    3.06
  10  -6 -25   11.11    3.10
  10  -6 -25    4.88    2.62
 -10   6  25    0.57    3.25
 -10   6  25    0.55    3.09
  10  -7 -25    3.63    3.00
  10  -7 -25   -4.39    2.28
 -10   7  25    1.86    3.03
 -10   7  25   -2.40    3.04
  10  -8 -25   -0.75    2.80
  10  -8 -25   -0.41    1.92
 -10   8  25   -0.57    2.94
 -10   8  25   -1.89    2.80
  10  -9 -25    1.25    1.88
  10  -9 -25    0.72    2.84
 -10   9  25    2.13    3.39
 -10   9  25    0.61    2.74
  10 -10 -25    0.39    1.71
  10 -10 -25   -1.43    2.50
 -10  10  25    9.44    3.65
 -10  10  25   -4.62    3.22
  10 -11 -25    2.54    2.09
  10 -11 -25   -0.83    2.88
 -10  11  25    1.39    3.56
 -10  11  25   -2.62    3.87
   9 -11 -25   -0.38    1.53
   9 -11 -25    1.45    2.54
  -9  11  25    3.99    3.73
  -9  11  25    0.62    3.13
   8 -11 -25    1.10    1.53
   8 -11 -25   -2.63    2.87
  -8  11  25   -1.88    2.80
  -8  11  25    1.50    3.54
   7 -11 -25   -2.95    2.02
   7 -11 -25    2.53    1.81
  -7  11  25   -1.32    3.38
  -7  11  25   -3.83    3.40
   5 -11 -25    8.63    1.89
   5 -11 -25    3.47    2.42
  -5  11  25    3.92    3.20
  -5  11  25    0.64    3.45
  11   4 -25    2.78    4.19
   4 -11 -25    7.65    2.67
   4 -11 -25   14.03    2.64
 -11  -4  25    7.18    3.13
  -4  11  25    5.11    3.74
  -4  11  25   11.51    4.16
   3 -11 -25    1.32    1.92
  11   3 -25    3.91    3.15
   3 -11 -25    6.65    1.98
  11   3 -25    5.69    3.09
 -11  -3  25    2.40    2.59
  -3  11  25    1.64    3.55
  -3  11  25    5.93    3.22
  11   2 -25   -1.52    2.63
   2 -11 -25    0.43    1.71
  11   2 -25   -3.33    2.84
  -2  11  25    2.20    2.92
  -2  11  25   -0.87    3.17
 -11  -2  25   -1.06    2.24
  11   1 -25   -0.77    2.38
  11   1 -25    0.51    2.26
   1 -11 -25   -0.42    1.68
  -1  11  25   -1.57    2.79
 -11  -1  25    0.54    2.40
  11   0 -25    0.76    2.83
  11   0 -25    1.44    2.15
 -11   0  25    3.11    2.22
  11  -1 -25    3.28    2.26
  11  -1 -25    1.53    2.45
   1  11 -25    5.11    2.78
 -11   1  25    1.07    2.62
   2  11 -25    0.78    2.55
  11  -2 -25   -0.76    2.74
  11  -2 -25    1.43    2.04
   2  11 -25   -1.63    2.42
  -2 -11  25   -0.36    1.49
 -11   2  25   -2.25    2.56
   3  11 -25    1.54    2.57
   3  11 -25    2.70    2.81
  11  -3 -25    7.81    2.51
  11  -3 -25    6.81    3.00
  -3 -11  25    5.32    1.76
  -3 -11  25   -0.34    1.52
 -11   3  25    0.58    2.66
   4  11 -25    9.80    3.45
  11  -4 -25    4.58    3.46
   4  11 -25    7.04    3.66
  -4 -11  25   13.49    2.30
  -4 -11  25    5.11    2.01
 -11   4  25    2.98    2.95
  11  -5 -25    0.78    3.01
   5  11 -25   -0.78    3.07
  11  -5 -25    5.40    2.60
 -11   5  25    4.96    3.31
  -5 -11  25    0.36    1.86
  -5 -11  25   10.73    1.91
  11  -7 -25    1.69    1.96
  11  -7 -25    3.25    3.31
 -11   7  25   -3.33    2.81
  11  -8 -25    4.59    2.29
  11  -8 -25    1.64    2.75
 -11   8  25   -2.77    2.69
  11  -9 -25   -0.85    3.25
  11  -9 -25    0.47    2.22
 -11   9  25    4.09    3.23
 -11   9  25   -1.55    3.37
  11 -10 -25   -0.87    2.92
 -11  10  25    0.62    3.23
 -11  10  25   -0.83    3.84
  10 -12 -25   -0.88    3.35
 -10  12  25    2.79    3.99
 -10  12  25   -0.66    2.45
   9 -12 -25   -0.39    1.63
   9 -12 -25   -2.39    3.16
  -9  12  25    5.86    3.07
  -9  12  25    3.38    3.97
   8 -12 -25   -3.37    2.58
   8 -12 -25    2.24    1.66
  -8  12  25    3.29    3.99
  -8  12  25   -0.59    2.57
   7 -12 -25    2.94    2.16
   7 -12 -25    0.35    1.66
  -7  12  25    1.26    2.92
  -7  12  25    3.03    3.40
   6 -12 -25   -1.11    1.66
   6 -12 -25   -0.55    2.24
  -6  12  25    0.71    3.05
  -6  12  25   -4.76    3.54
   5 -12 -25    1.48    2.16
   5 -12 -25    4.47    1.85
   4 -12 -25    0.44    1.75
   4 -12 -25   -0.75    1.79
  12   4 -25   -2.93    3.41
  12   2 -25   -7.65    3.39
  12   1 -25   -0.66    2.84
  12   0 -25   -1.28    2.61
 -12   0  25   -2.46    2.50
  12  -1 -25    4.29    3.18
   1  12 -25    3.48    2.40
 -12   1  25   -1.20    2.49
  -1 -12  25    5.70    1.66
  12  -2 -25   -4.14    2.87
   2  12 -25   -0.82    2.87
   2  12 -25    1.59    2.68
  -2 -12  25   -1.14    1.68
 -12   2  25    1.26    2.48
   4  12 -25    1.19    3.10
   4  12 -25   -9.53    3.08
  -4 -12  25    0.68    1.63
  -4 -12  25   -1.43    1.39
 -12   4  25   -3.37    3.02
   5  12 -25    2.53    3.05
   5  12 -25    3.56    3.83
  12  -5 -25    3.20    2.41
  -5 -12  25    6.44    1.99
 -12   5  25    2.10    2.97
  -5 -12  25    4.05    1.76
   6  12 -25    3.50    3.34
  12  -6 -25   -2.37    2.15
 -12   6  25    3.61    2.93
  -6 -12  25    0.70    1.65
  -6 -12  25    0.68    1.36
  12  -7 -25    1.56    2.20
 -12   7  25    3.71    3.25
 -12   8  25    0.79    3.35
   1  13 -25   -3.21    2.74
  -1 -13  25    0.36    1.52
   2  13 -25   -2.74    2.71
   2  13 -25   -2.64    2.92
  -2 -13  25    2.33    1.54
  -2 -13  25    0.42    1.61
   3  13 -25   -0.86    2.75
   3  13 -25   -1.16    2.60
  -3 -13  25    0.39    1.55
  -3 -13  25    1.08    1.54
   4  13 -25    3.73    3.11
   4  13 -25    2.59    3.37
  -4 -13  25    1.78    1.79
  -4 -13  25    5.65    1.81
   5  13 -25    3.72    3.80
   5  13 -25    4.56    3.66
  -5 -13  25    5.43    1.95
  -5 -13  25    5.91    2.03
   6  13 -25   -2.70    4.51
   6  13 -25    7.39    3.57
  -6 -13  25    0.35    1.41
  -6 -13  25    2.02    1.43
   7  13 -25    7.11    4.36
  -7 -13  25    5.82    1.66
  -7 -13  25    0.42    2.18
   1  14 -25   -0.60    2.59
  -1 -14  25   -0.73    1.51
   2  14 -25    1.21    2.87
  -2 -14  25    1.98    1.83
  -2 -14  25    5.78    2.08
   3  14 -25    3.70    2.84
   3  14 -25   -1.34    3.38
  -3 -14  25   -0.36    1.63
  -3 -14  25    4.62    1.69
   4  14 -25   -3.70    3.20
   4  14 -25    1.40    3.47
  -4 -14  25    0.75    1.66
  -4 -14  25    5.61    1.95
   5  14 -25   -4.13    4.22
   5  14 -25   -1.00    3.52
  -5 -14  25    1.49    1.79
  -5 -14  25    5.89    1.73
   6  14 -25    8.74    4.94
   6  14 -25    5.05    3.86
  -6 -14  25    1.09    1.23
  -6 -14  25    0.33    1.43
   7  14 -25    1.15    4.70
  -7 -14  25   -4.64    2.06
   1   0 -26   -0.84    1.65
   1  -1 -26   95.70   15.91
  -1   1  26   52.66   23.33
   2   1 -26   -0.39    1.51
   1  -2 -26    3.03    1.94
   2   1 -26    2.08    1.62
  -2  -1  26   -1.36    3.28
  -1   2  26   -0.79    3.07
  -2   0  26   44.92   12.17
   2  -1 -26   -0.85    1.67
   1   2 -26   -0.42    1.60
   2  -1 -26    1.46    1.50
  -2   1  26    0.72    3.27
   2   2 -26   13.90    3.60
   2  -2 -26   16.93    3.08
   2  -2 -26   11.30    3.39
   2   2 -26   16.22    3.46
  -2   2  26    5.06    4.92
  -2  -2  26    0.69    4.12
   2  -3 -26    2.04    1.45
   3   2 -26   -0.78    1.64
   2  -3 -26    2.25    1.66
   3   2 -26   -1.61    1.55
  -3  -2  26   -3.68    2.66
  -2   3  26    1.47    3.24
  -3  -2  26   -0.93    1.46
   3   1 -26   26.81    6.98
   3   1 -26   25.46    6.84
   1  -3 -26   35.39    6.50
  -1   3  26   32.64    9.85
  -3  -1  26   18.42    7.65
  -3  -1  26   33.19    6.82
   3   0 -26   -0.73    1.64
  -3   0  26   -1.83    2.83
  -3   0  26    1.65    1.60
   3  -1 -26   32.36    6.87
   3  -1 -26   19.79    6.51
   1   3 -26   37.72    6.46
  -3   1  26   38.19    8.28
  -3   1  26   22.13    7.03
   3  -2 -26   -2.10    1.86
   2   3 -26   -1.62    1.63
   2   3 -26    0.38    1.50
   3  -2 -26   -0.70    1.36
  -3   2  26    0.71    1.81
  -3   2  26   -0.61    2.57
  -2  -3  26   -0.76    2.89
   3  -3 -26    9.78    3.69
   3   3 -26    6.81    3.96
   3   3 -26   15.32    3.70
   3  -3 -26   24.45    3.53
  -3  -3  26    5.40    4.83
  -3  -3  26   11.57    3.62
  -3   3  26   20.67    4.19
  -3   3  26   15.61    5.11
   3  -4 -26    0.84    1.84
   4   3 -26    3.46    1.62
   4   3 -26    3.95    2.04
  -4  -3  26    5.01    2.83
  -4  -3  26    3.38    1.68
  -3   4  26    1.15    1.95
  -3   4  26    8.39    3.14
   2  -4 -26    1.31    1.85
   4   2 -26    1.49    1.37
   4   2 -26    1.49    1.54
   2  -4 -26    1.01    1.28
  -4  -2  26   -2.18    1.43
  -2   4  26    2.98    3.22
  -4  -2  26    5.21    2.70
   4   1 -26   -1.14    1.38
   1  -4 -26   -0.44    1.86
   4   1 -26    2.11    1.55
  -4  -1  26   -2.19    2.18
  -1   4  26    0.81    3.32
  -4  -1  26   -1.63    1.85
   4   0 -26   -1.15    1.63
   4   0 -26    0.34    1.33
  -4   0  26    0.97    1.86
  -4   0  26    4.92    2.58
   4  -1 -26   -1.17    1.56
   4  -1 -26    0.33    1.45
  -4   1  26    1.68    2.55
  -4   1  26   -0.33    1.73
   4  -2 -26    0.79    1.62
   4  -2 -26    2.25    1.28
  -4   2  26    1.39    1.67
  -2  -4  26   -3.09    2.95
  -4   2  26   -6.44    2.72
   4  -3 -26    3.59    1.71
   3   4 -26    5.07    2.08
   4  -3 -26    0.95    1.45
   3   4 -26    0.81    1.71
  -3  -4  26   -2.84    2.91
  -4   3  26    0.60    2.78
  -4   3  26    5.44    2.02
  -3  -4  26    0.32    1.74
   4   4 -26    1.94    1.85
   4  -4 -26    0.82    1.65
   4   4 -26    0.73    1.42
  -4  -4  26    1.89    1.59
  -4   4  26   -0.39    1.81
  -4  -4  26   -0.60    2.64
   4  -5 -26   17.95    3.26
   5   4 -26   13.68    3.36
   5   4 -26    9.74    3.98
   4  -5 -26   15.06    3.02
  -5  -4  26   12.17    4.40
  -4   5  26   13.65    3.87
  -5  -4  26    8.63    3.24
  -4   5  26   10.17    4.27
   5   3 -26    0.81    1.91
   3  -5 -26    3.97    1.86
   5   3 -26    0.38    1.59
   3  -5 -26   -0.33    1.32
  -3   5  26   -2.65    3.10
  -5  -3  26    0.67    1.68
  -3   5  26    1.65    2.08
  -5  -3  26    1.74    2.67
   2  -5 -26    0.34    1.30
   5   2 -26    1.15    1.51
   2  -5 -26   -1.68    1.76
   5   2 -26    2.67    1.66
  -5  -2  26    2.08    1.83
  -5  -2  26    2.08    2.59
  -2   5  26    0.76    3.27
  -2   5  26   -0.42    1.86
   1  -5 -26    1.44    1.76
   5   1 -26   -0.35    1.53
   5   1 -26   -0.40    1.50
  -1   5  26    0.83    2.91
  -5  -1  26    0.36    1.82
  -5  -1  26   -3.12    2.45
   5   0 -26   -0.68    1.55
   5   0 -26   -0.40    1.63
  -5   0  26    3.50    2.36
  -5   0  26    0.37    1.77
   5  -1 -26   -1.20    1.63
   5  -1 -26   -0.65    1.52
  -5   1  26    2.01    2.24
  -5   1  26   -0.37    1.86
   5  -2 -26    2.02    1.76
   5  -2 -26    1.91    1.38
  -5   2  26    0.38    1.83
  -5   2  26    0.51    2.48
   5  -3 -26    1.25    1.57
   5  -3 -26    0.83    1.69
   3   5 -26    0.51    1.94
  -3  -5  26    1.39    2.86
  -5   3  26    1.56    2.08
  -5   3  26    0.40    2.01
   5  -4 -26   13.72    3.44
  -5   4  26    8.92    4.02
  -4  -5  26    7.39    4.11
  -4  -5  26   11.71    3.28
   5  -5 -26   37.68    7.04
   5  -5 -26   42.51    6.51
  -5  -5  26   23.17    7.66
  -5  -5  26   18.57    7.12
  -5   5  26   22.72    8.37
  -5   5  26   27.12    8.24
   5  -6 -26    7.11    2.13
   5  -6 -26    4.16    1.58
  -5   6  26    1.16    3.02
  -5   6  26   -0.92    2.31
  -6  -5  26   -0.53    3.29
   4  -6 -26    1.71    1.89
   6   4 -26    0.41    1.61
   4  -6 -26    2.79    1.35
   6   4 -26    0.45    1.71
  -4   6  26   -4.15    2.78
  -6  -4  26    9.28    2.97
  -4   6  26    1.67    1.99
  -6  -4  26   -0.35    1.75
   6   3 -26   16.86    5.48
   3  -6 -26   25.75    4.81
   6   3 -26   11.70    5.80
   3  -6 -26   21.19    5.35
  -6  -3  26   17.43    5.24
  -6  -3  26   29.82    5.77
  -3   6  26   18.12    6.30
  -3   6  26   21.17    6.78
   2  -6 -26    0.88    1.62
   6   2 -26   -1.18    1.76
   6   2 -26    2.85    1.77
   2  -6 -26   -0.35    1.43
  -2   6  26    1.54    3.06
  -6  -2  26   -1.59    2.43
  -6  -2  26    1.13    1.97
  -2   6  26   -0.43    2.09
   6   1 -26    5.40    2.05
   1  -6 -26    4.49    2.02
   6   1 -26    1.14    1.75
  -6  -1  26    1.48    2.00
  -6  -1  26    3.33    2.35
  -1   6  26    1.70    3.34
   6   0 -26    2.39    1.65
   6   0 -26   -2.57    1.74
  -6   0  26   -1.82    2.28
  -6   0  26    1.08    1.95
   6  -1 -26    2.84    1.76
   6  -1 -26    4.48    1.94
  -6   1  26    2.16    2.03
  -6   1  26   -1.87    2.32
   6  -2 -26   -1.24    1.69
   6  -2 -26   -0.35    1.27
  -6   2  26   -0.73    1.61
  -6   2  26   -0.95    2.33
   6  -3 -26   17.12    5.10
   6  -3 -26   38.17    5.18
  -6   3  26   18.48    5.22
  -6   3  26   21.99    5.38
   6  -4 -26    0.84    1.81
  -6   4  26   -2.89    2.00
   6  -5 -26   -0.42    1.70
   6  -5 -26    1.64    1.56
  -6   5  26    2.25    2.31
  -6   5  26    6.70    2.75
   6  -6 -26   18.68    3.08
   6  -6 -26   11.42    2.97
  -6   6  26    5.40    4.30
  -6   6  26    5.18    3.85
   6  -7 -26    1.00    1.42
   6  -7 -26    1.43    1.94
  -6   7  26    2.10    2.73
  -6   7  26    0.61    2.94
   5  -7 -26   20.23    4.98
   5  -7 -26   30.36    5.15
  -5   7  26   13.17    6.19
  -5   7  26   10.28    6.51
   3  -7 -26    2.70    1.47
   7   3 -26    2.69    2.01
   7   3 -26    2.58    2.07
   3  -7 -26    1.81    1.56
  -7  -3  26   -1.48    2.58
  -7  -3  26    2.19    1.88
  -3   7  26    2.75    3.02
  -3   7  26    1.47    2.37
   2  -7 -26    9.44    2.63
   2  -7 -26   17.97    3.18
   7   2 -26    9.53    3.30
   7   2 -26   10.03    3.01
  -7  -2  26    2.96    3.05
  -2   7  26    3.76    4.46
  -7  -2  26    6.40    3.31
  -2   7  26    7.28    3.81
   1  -7 -26   33.16    5.25
   7   1 -26   12.08    4.74
   7   1 -26   14.03    4.84
  -7  -1  26   26.84    4.88
  -7  -1  26   17.73    4.90
   7   0 -26   -0.38    1.72
   7   0 -26    1.27    1.65
  -7   0  26    0.46    2.06
  -7   0  26    1.08    1.86
   7  -1 -26   17.81    4.60
   7  -1 -26   19.00    4.86
  -7   1  26   15.82    4.61
  -7   1  26   16.20    4.50
   7  -2 -26   11.53    2.99
   7  -2 -26    9.87    2.83
  -7   2  26   12.75    3.41
  -7   2  26   15.17    3.03
   7  -3 -26   -1.77    1.48
   7  -3 -26    2.50    1.63
  -7   3  26    2.41    2.61
  -7   3  26    1.18    1.97
   7  -5 -26   30.94    5.08
   7  -5 -26   20.82    5.12
  -7   5  26   25.27    6.25
  -7   5  26   22.10    5.42
   7  -6 -26    1.68    1.49
   7  -6 -26   -2.34    1.96
  -7   6  26   -0.97    2.25
  -7   6  26    0.55    2.48
   7  -7 -26    0.35    1.60
   7  -7 -26    5.80    2.07
  -7   7  26    6.31    3.14
  -7   7  26    2.06    2.69
   7  -8 -26    1.79    1.66
   7  -8 -26    4.53    2.29
  -7   8  26    1.57    2.43
  -7   8  26    3.93    2.69
   6  -8 -26    5.34    2.32
   6  -8 -26    5.59    1.75
  -6   8  26   -1.01    2.62
  -6   8  26    3.59    2.99
   5  -8 -26    0.34    1.27
   5  -8 -26    0.89    1.79
  -5   8  26    0.67    2.97
  -5   8  26   -1.48    2.61
   4  -8 -26   22.25    4.51
   8   4 -26   24.21    5.74
   4  -8 -26   39.83    4.94
   8   4 -26    9.90    5.90
  -4   8  26   16.48    6.20
  -8  -4  26   14.55    5.58
  -4   8  26    7.02    6.34
  -8  -4  26   17.06    5.01
   8   3 -26   -3.51    2.36
   3  -8 -26   -0.43    1.69
   8   3 -26    0.99    2.04
   3  -8 -26    1.03    1.53
  -3   8  26   -4.23    3.34
  -8  -3  26   -1.67    2.14
  -3   8  26   -0.48    2.51
  -8  -3  26    4.04    2.66
  -8   0  26   32.44    8.91
   8  -3 -26   -1.05    2.20
   8  -3 -26    1.18    1.70
  -8   3  26   -0.54    2.78
  -8   3  26    0.83    1.90
   8  -4 -26   28.63    5.50
  -8   4  26   29.72    5.14
   8  -5 -26    0.51    1.80
   8  -5 -26   -0.39    1.66
  -8   5  26    0.55    2.40
  -8   5  26    1.39    2.19
   8  -6 -26    8.41    2.19
   8  -6 -26    3.54    2.25
  -8   6  26   -0.50    2.43
  -8   6  26    3.29    3.01
   8  -7 -26    0.50    1.74
   8  -7 -26   -0.72    1.57
  -8   7  26    3.11    2.34
  -8   7  26   -3.92    2.63
   8  -8 -26    4.98    2.19
   8  -8 -26    9.39    2.21
  -8   8  26    1.69    2.96
  -8   8  26   -1.63    2.75
   8  -9 -26   -5.73    2.23
   8  -9 -26    5.10    1.72
  -8   9  26    0.61    3.07
  -8   9  26   -5.01    3.16
   7  -9 -26    0.35    1.48
   7  -9 -26    4.22    2.11
  -7   9  26   -3.97    2.65
  -7   9  26   -2.51    2.96
   6  -9 -26    8.30    2.15
   6  -9 -26   11.16    2.68
  -6   9  26    3.02    3.24
  -6   9  26    4.32    3.50
   5  -9 -26   24.13    4.07
   5  -9 -26   23.79    3.96
  -5   9  26   12.23    5.85
  -5   9  26    7.54    5.15
   4  -9 -26    7.40    2.14
   9   4 -26    4.33    2.73
   4  -9 -26    5.88    2.13
   9   4 -26    1.06    2.60
  -4   9  26    2.20    3.33
  -9  -4  26   10.78    3.19
  -4   9  26    6.05    3.30
  -9  -4  26    5.69    2.79
   3  -9 -26   31.05    4.47
   9   3 -26    9.54    5.49
   9   3 -26   13.26    5.50
   3  -9 -26   21.01    4.33
  -3   9  26   12.54    6.84
  -9  -3  26   15.84    4.82
  -3   9  26   13.70    6.29
  -9  -3  26   23.11    4.80
   9   2 -26    1.49    2.43
   2  -9 -26   -2.22    2.01
   9   2 -26    2.89    2.33
   2  -9 -26    0.34    1.40
  -9  -2  26   -0.46    2.20
  -2   9  26   -1.47    2.38
  -9  -2  26    2.99    2.24
  -2   9  26    0.85    3.27
   9   1 -26    1.90    3.53
   9   1 -26    9.63    4.03
  -1   9  26    7.27    4.58
  -9  -1  26    6.48    3.43
  -9  -1  26   21.77    3.88
   9   0 -26   -0.57    2.12
   9   0 -26   -1.37    1.94
  -9   0  26   -2.91    2.33
  -9   0  26   -0.46    2.16
   1   9 -26    6.69    3.49
   9  -1 -26   11.69    3.54
   9  -1 -26   11.45    3.71
  -9   1  26   25.43    3.85
  -9   1  26   13.48    3.70
   9  -2 -26    3.01    2.14
   9  -2 -26    4.55    2.08
  -9   2  26    0.50    2.27
  -9   2  26   -1.46    2.54
   9  -3 -26   17.24    5.21
   9  -3 -26   29.69    5.11
  -9   3  26   11.04    4.82
  -9   3  26   20.22    4.98
   9  -4 -26    2.32    2.46
  -9   4  26    4.16    2.87
   9  -5 -26   11.62    4.28
   9  -5 -26   13.50    4.62
  -9   5  26   21.15    4.84
  -9   5  26   17.20    5.25
   9  -6 -26   11.34    2.55
   9  -6 -26    1.21    2.59
  -9   6  26    5.28    3.37
  -9   6  26    1.70    2.95
   9  -7 -26   -0.39    1.82
   9  -7 -26   -1.28    2.21
  -9   7  26   -3.60    2.93
  -9   7  26   -2.34    2.69
   9  -8 -26   -1.25    2.09
   9  -8 -26   -0.68    2.74
  -9   8  26   -2.55    3.34
  -9   8  26   -0.63    3.30
   9  -9 -26    1.96    2.43
   9  -9 -26    0.39    1.74
  -9   9  26    1.34    3.06
  -9   9  26   -2.46    3.04
   9 -10 -26    5.15    2.08
   9 -10 -26    0.69    2.63
  -9  10  26   -0.62    2.72
  -9  10  26    0.71    3.73
   8 -10 -26   -1.86    1.66
   8 -10 -26    4.38    2.26
  -8  10  26   -6.23    3.06
  -8  10  26    3.16    3.04
   7 -10 -26    1.10    1.73
   7 -10 -26    3.39    2.10
  -7  10  26   -4.51    2.83
  -7  10  26    2.39    2.94
   5 -10 -26    7.87    2.73
   5 -10 -26   15.06    2.81
  -5  10  26    0.66    4.17
  -5  10  26    7.78    4.34
   4 -10 -26   16.59    3.79
   4 -10 -26   32.88    4.04
  10   4 -26    4.95    5.24
  10   4 -26    4.24    4.86
  -4  10  26   16.68    5.70
 -10  -4  26   17.59    4.10
 -10  -4  26   15.79    4.51
  -4  10  26   18.20    5.91
   3 -10 -26    7.61    2.03
  10   3 -26    8.86    2.75
  10   3 -26    4.80    3.14
   3 -10 -26    7.50    2.28
 -10  -3  26    6.68    3.13
  -3  10  26    1.56    3.26
  -3  10  26    4.14    3.67
 -10  -3  26    6.19    2.77
  10   2 -26    0.57    2.34
  10   2 -26    5.43    2.65
   2 -10 -26    2.29    1.87
 -10  -2  26    4.36    2.46
  -2  10  26   -1.10    3.06
 -10  -2  26    3.60    2.64
  -2  10  26    0.89    3.27
  10   1 -26   -1.62    2.55
   1 -10 -26    1.83    1.72
  10   1 -26   -1.37    2.57
 -10  -1  26    3.32    2.29
 -10  -1  26    4.05    2.42
  -1  10  26   -1.55    2.61
  10   0 -26    0.66    2.15
  10   0 -26    0.52    2.01
 -10   0  26    0.49    2.46
 -10   0  26    2.93    2.47
  10  -1 -26   -0.98    2.02
   1  10 -26    0.90    2.25
  10  -1 -26   -2.66    2.15
 -10   1  26    4.94    2.67
 -10   1  26    0.50    2.59
   2  10 -26   -0.48    2.48
  10  -2 -26    0.67    2.51
  10  -2 -26    2.92    2.40
 -10   2  26    8.05    2.48
  -2 -10  26    4.41    1.50
 -10   2  26    1.01    2.40
  10  -3 -26    6.12    3.07
  10  -3 -26    0.95    2.36
 -10   3  26    4.27    2.79
  -3 -10  26    7.54    2.21
 -10   3  26    2.62    2.89
  -3 -10  26    9.39    2.16
  10  -4 -26   12.35    4.80
 -10   4  26   11.37    4.48
  10  -5 -26   12.38    3.27
  10  -5 -26    8.32    3.74
 -10   5  26    5.03    3.65
 -10   5  26   18.34    3.92
  10  -7 -26   -0.70    2.56
  10  -7 -26    0.44    1.90
 -10   7  26   -0.62    2.66
 -10   7  26    2.35    2.91
  10  -8 -26    0.75    2.45
  10  -8 -26   -0.41    1.69
 -10   8  26   -3.89    2.97
 -10   8  26    2.52    2.78
  10  -9 -26   -0.42    2.07
  10  -9 -26    3.09    2.64
 -10   9  26    4.78    2.99
 -10   9  26   -3.31    3.53
  10 -10 -26    1.32    2.06
  10 -10 -26   -2.22    3.02
 -10  10  26    2.10    3.33
 -10  10  26    0.78    3.60
   9 -11 -26    2.22    2.87
   9 -11 -26    1.97    1.59
  -9  11  26    1.60    3.85
  -9  11  26    5.93    2.94
   8 -11 -26   -3.22    2.69
   8 -11 -26   -0.38    1.53
  -8  11  26   -3.87    3.71
  -8  11  26    1.20    2.60
   7 -11 -26    1.41    1.52
   7 -11 -26    6.41    2.19
  -7  11  26    0.64    2.63
  -7  11  26    1.38    3.51
   6 -11 -26    2.49    1.97
   6 -11 -26    2.56    1.50
  -6  11  26   -0.72    3.37
  -6  11  26   -0.67    3.25
   5 -11 -26   17.35    3.54
   5 -11 -26   18.38    3.05
  -5  11  26   15.42    4.77
  -5  11  26    2.70    5.01
  11   3 -26   -0.79    3.01
   3 -11 -26    1.35    2.00
  11   3 -26    0.60    3.03
   3 -11 -26    6.63    1.94
  -3  11  26   -3.23    3.95
 -11  -3  26   -1.66    2.58
  -3  11  26    1.11    2.96
  11   2 -26   -4.69    2.80
   2 -11 -26   -0.44    1.75
  11   2 -26   -3.88    2.89
  -2  11  26   -0.92    3.43
 -11  -2  26    2.24    2.38
  -2  11  26   -0.57    3.00
   1 -11 -26    2.67    1.97
  11   1 -26    5.63    2.64
  11   1 -26    1.54    2.38
 -11  -1  26   -1.58    2.14
  -1  11  26   -2.70    2.84
  11   0 -26    1.08    2.23
  11   0 -26   -0.78    2.63
 -11   0  26    0.56    2.34
   1  11 -26    3.04    2.40
  11  -1 -26   -2.60    2.30
  11  -1 -26   -0.76    2.63
 -11   1  26    0.55    2.49
  11  -2 -26    1.51    2.24
   2  11 -26   -2.23    2.70
  11  -2 -26   -4.21    2.49
   2  11 -26   -0.74    2.23
 -11   2  26   -1.08    2.39
  -2 -11  26    0.34    1.39
   3  11 -26    3.40    2.63
  11  -3 -26    1.41    2.77
  11  -3 -26    4.32    2.38
   3  11 -26    0.55    2.66
 -11   3  26    2.71    2.51
  -3 -11  26    5.81    1.77
  -3 -11  26    2.11    1.50
  11  -5 -26    5.76    3.99
  11  -5 -26   16.90    3.69
 -11   5  26   -3.49    3.71
  11  -6 -26    0.96    2.24
  11  -6 -26   -2.30    2.88
 -11   6  26    2.48    2.98
  11  -7 -26    0.95    2.12
  11  -7 -26    4.07    2.69
 -11   7  26   -1.39    2.83
 -11   7  26    3.10    2.83
  11  -8 -26   -3.36    2.81
 -11   8  26   -1.30    3.33
 -11   8  26    7.15    3.39
  11  -9 -26   -0.85    3.43
 -11   9  26   -5.24    3.44
   9 -12 -26   -3.19    3.22
  -9  12  26   -8.63    4.30
   8 -12 -26   -2.80    2.50
   8 -12 -26    1.18    1.55
  -8  12  26   -4.24    4.11
  -8  12  26    2.80    3.11
   7 -12 -26   -3.84    2.09
   7 -12 -26    1.09    1.55
  -7  12  26    0.67    2.92
  -7  12  26   -8.64    3.81
   6 -12 -26    6.58    1.88
   6 -12 -26    2.18    2.29
  -6  12  26    4.78    3.42
  -6  12  26    0.70    3.29
   5 -12 -26    1.47    2.12
   5 -12 -26   -0.81    1.89
  -5  12  26    3.61    3.55
  -5  12  26   -0.66    3.59
   4 -12 -26   11.29    2.43
  12   4 -26   -0.79    4.23
   4 -12 -26    8.06    2.33
  -4  12  26   -4.84    3.66
   3 -12 -26    0.89    1.88
  12   3 -26    3.47    2.97
   3 -12 -26   -3.23    1.51
  12   2 -26    4.17    2.93
   2 -12 -26    3.03    1.83
  12   1 -26    1.68    2.65
 -12  -1  26   -1.87    2.95
  12   0 -26    1.07    2.36
 -12   0  26   -1.22    2.59
   1  12 -26   -3.07    2.37
  12  -1 -26   -5.31    3.29
  12  -1 -26   -1.03    2.66
 -12   1  26   -1.28    2.79
  12  -2 -26    5.06    2.55
  12  -2 -26    1.76    3.26
   2  12 -26    0.81    2.54
   2  12 -26   -0.54    2.38
 -12   2  26   -0.60    2.53
  -2 -12  26   -0.35    1.39
   3  12 -26    1.11    2.85
  12  -3 -26    1.75    3.24
  12  -3 -26   -2.05    2.51
   3  12 -26   -4.47    2.74
  -3 -12  26   -1.82    1.49
 -12   3  26    3.00    2.37
  -3 -12  26    1.45    1.49
   4  12 -26    3.66    3.33
   4  12 -26   12.85    4.01
  12  -4 -26    6.69    3.38
  12  -4 -26   17.59    4.15
  -4 -12  26    9.23    2.13
 -12   4  26    1.23    3.04
  -4 -12  26    9.92    2.05
  12  -5 -26    0.89    3.27
  12  -5 -26    4.93    2.43
  -5 -12  26    1.71    1.53
 -12   5  26   -2.56    2.88
  -5 -12  26   -1.14    1.56
  12  -6 -26    3.01    2.23
  12  -6 -26    1.82    3.43
 -12   6  26    1.38    2.96
   1  13 -26   -0.55    2.71
   2  13 -26    0.56    2.83
   2  13 -26   -0.88    2.93
  -2 -13  26    0.36    1.46
  -2 -13  26   -2.15    1.89
   3  13 -26   -1.87    3.33
   3  13 -26    1.19    3.09
  -3 -13  26    0.37    1.62
  -3 -13  26    6.42    1.95
   4  13 -26    3.66    3.22
   4  13 -26   -3.18    3.15
  -4 -13  26    0.35    1.41
  -4 -13  26   -0.39    1.50
   5  13 -26    6.09    3.97
   5  13 -26   -1.90    3.56
  -5 -13  26    0.71    1.55
  -5 -13  26    5.22    1.81
  -6 -13  26   11.40    3.02
   1  14 -26   -0.61    3.16
   2  14 -26    0.93    2.82
   2  14 -26    1.25    2.97
  -2 -14  26    0.46    1.66
  -2 -14  26   -0.37    1.41
   3  14 -26    1.01    2.96
   3  14 -26    5.49    3.56
  -3 -14  26   -0.38    1.46
  -3 -14  26   -0.38    1.50
   4  14 -26    4.96    4.27
   4  14 -26    2.86    4.27
  -4 -14  26   14.87    2.87
  -4 -14  26    6.33    2.25
   5  14 -26    1.01    3.59
  -5 -14  26   -0.36    1.60
   1   0 -27  121.61   27.56
   1  -1 -27    0.44    1.64
   1   1 -27    0.87    1.79
   2   1 -27   60.67   13.00
   1  -2 -27   68.16   12.10
  -2  -1  27   51.45   16.16
   2   0 -27   -0.41    1.58
   2   0 -27    3.98    1.88
  -2   0  27   -0.71    2.71
   2  -1 -27   51.82   12.71
  -2   1  27   43.49   15.55
   2   2 -27   -0.87    1.64
   2  -2 -27    1.13    1.62
   2  -2 -27   -1.39    1.77
   2   2 -27    0.38    1.48
  -2   2  27   -0.71    2.65
  -2  -2  27   -0.78    3.03
   3   2 -27   37.27    5.73
   3   2 -27   21.46    6.01
   2  -3 -27   11.10    5.23
   2  -3 -27   32.73    5.67
  -2   3  27   32.77    7.67
  -3  -2  27   17.46    7.12
  -3  -2  27   17.77    5.48
   1  -3 -27   -0.46    1.91
   3   1 -27    1.26    1.80
   3   1 -27   -1.17    1.58
  -1   3  27   -0.84    3.05
  -3  -1  27    0.66    1.59
  -3  -1  27    1.29    2.55
   3   0 -27   80.29   16.01
  -3   0  27   52.12   17.80
   3  -1 -27   -1.47    1.56
   3  -1 -27   -1.29    1.67
   1   3 -27    0.88    1.71
  -3   1  27   -1.44    1.69
  -3   1  27    0.64    2.60
   3  -2 -27   18.81    5.26
   2   3 -27   33.45    5.51
   3  -2 -27   30.02    5.81
  -2  -3  27    9.47    7.70
  -3   2  27   21.17    6.00
  -2  -3  27   24.26    5.89
  -3   2  27   34.58    6.85
   3   3 -27    2.93    1.73
   3  -3 -27   -0.36    1.39
   3  -3 -27    1.75    1.81
   3   3 -27    1.36    1.69
  -3   3  27   -1.28    2.60
  -3  -3  27   -0.73    3.20
  -3   3  27   -1.53    1.99
  -3  -3  27    1.95    1.73
   4   3 -27   -0.40    1.51
   3  -4 -27   -1.77    1.83
   4   3 -27    0.47    2.01
  -3   4  27    2.03    2.00
  -4  -3  27    1.30    1.57
  -4  -3  27   -2.50    2.88
   2  -4 -27    0.44    1.69
   4   2 -27    1.74    1.78
   4   2 -27    4.26    1.66
  -4  -2  27    1.75    2.63
  -4  -2  27    3.52    1.64
  -2   4  27    1.48    2.71
   4   1 -27   -1.19    1.59
   1  -4 -27   -1.47    1.85
   4   1 -27    0.37    1.44
  -4  -1  27   -1.13    2.43
  -1   4  27   -1.70    3.01
  -4  -1  27    2.38    1.57
   4   0 -27    1.07    1.45
   4   0 -27   -1.59    1.51
  -4   0  27   -2.38    1.68
  -4   0  27    2.24    2.62
   4  -1 -27   -0.35    1.40
   4  -1 -27   -0.81    1.61
   1   4 -27   -0.94    1.77
  -4   1  27    1.76    1.57
  -4   1  27   -3.26    2.48
   2   4 -27    2.02    1.70
   4  -2 -27    0.34    1.51
   4  -2 -27   -0.41    1.74
  -4   2  27    2.76    2.53
  -4   2  27    1.46    1.83
  -2  -4  27    2.57    1.77
   4  -3 -27   -0.99    1.24
   3   4 -27    1.02    2.08
   3   4 -27    2.94    1.66
   4  -3 -27   -0.82    1.78
  -3  -4  27   -1.78    1.91
  -4   3  27    1.12    2.87
  -4   3  27    0.76    1.84
  -3  -4  27   -1.41    2.92
   4   4 -27    0.38    1.49
   4  -4 -27    0.84    1.53
   4   4 -27   -2.95    2.09
  -4  -4  27    0.63    2.56
  -4   4  27   -0.41    1.95
  -4  -4  27    1.32    1.77
   4  -5 -27    8.42    1.95
   5   4 -27    1.83    2.15
   5   4 -27    8.50    1.98
   4  -5 -27    3.18    1.64
  -4   5  27    5.29    2.62
  -5  -4  27    3.82    2.02
  -5  -4  27   -2.34    2.79
  -4   5  27    4.82    3.19
   3  -5 -27   34.65    6.92
   5   3 -27   33.42    6.57
   3  -5 -27   33.30    6.15
   5   3 -27   10.97    7.10
  -5  -3  27   17.42    7.23
  -3   5  27   17.87    7.89
  -5  -3  27   36.03    6.73
  -3   5  27   36.39    8.64
   5   2 -27    0.43    1.86
   2  -5 -27   -2.51    1.54
   5   2 -27   -0.39    1.57
   2  -5 -27    1.29    1.80
  -2   5  27    0.44    2.26
  -2   5  27    0.75    2.89
  -5  -2  27    3.25    1.70
  -5  -2  27    1.20    2.40
   5   1 -27    1.25    1.75
   1  -5 -27    4.43    2.01
   5   1 -27    0.38    2.02
  -5  -1  27    9.74    2.32
  -5  -1  27    1.18    2.65
   5   0 -27   -0.75    1.49
   5   0 -27    1.65    1.67
  -5   0  27    0.55    2.68
  -5   0  27   -0.38    1.74
   5  -1 -27    1.23    1.82
   1   5 -27    2.18    1.71
   5  -1 -27    3.27    1.91
  -5   1  27    1.93    1.90
  -5   1  27    2.14    2.32
   5  -2 -27   -0.83    1.69
   5  -2 -27   -4.25    1.59
  -5   2  27    1.64    2.48
  -2  -5  27   -1.93    1.69
  -5   2  27   -0.40    1.91
   5  -3 -27   42.62    6.56
   5  -3 -27   26.06    6.36
  -5   3  27   29.51    7.58
  -5   3  27   31.36    7.34
  -3  -5  27   13.34    8.73
  -3  -5  27   25.98    6.98
   5  -4 -27    6.51    1.95
  -4  -5  27   -0.67    3.11
  -5   4  27    1.33    2.60
   5  -6 -27   10.01    2.82
   5  -6 -27    7.74    2.89
  -5   6  27    6.67    3.88
  -5   6  27   13.19    4.25
   6   3 -27   -1.75    1.93
   6   3 -27   -0.43    2.01
   3  -6 -27    4.65    1.72
   3  -6 -27    2.10    1.66
  -3   6  27   -0.70    3.16
  -6  -3  27    0.53    2.47
  -6  -3  27    0.39    2.01
  -3   6  27    1.88    2.47
   6   2 -27    2.47    3.02
   6   2 -27   10.99    2.84
   2  -6 -27   12.73    3.01
   2  -6 -27   15.97    2.65
  -6  -2  27    9.90    3.01
  -2   6  27    4.99    3.76
  -6  -2  27   11.00    3.54
  -2   6  27    6.94    4.40
   1  -6 -27    1.93    1.95
   6   1 -27    0.40    1.69
   6   1 -27    1.59    1.68
  -6  -1  27    0.56    2.42
  -6  -1  27   -0.38    2.00
   6   0 -27   -0.41    1.49
   6   0 -27   -1.16    1.77
  -6   0  27   -1.60    2.67
  -6   0  27   -0.73    1.88
   6  -1 -27    1.11    1.72
   6  -1 -27    2.89    1.57
  -6   1  27    1.65    2.88
  -6   1  27    2.58    1.92
   6  -2 -27    4.33    2.71
   6  -2 -27   12.53    2.79
  -6   2  27    8.74    3.03
  -6   2  27   11.70    3.73
   6  -3 -27    1.08    1.40
   6  -3 -27   -0.42    1.67
  -6   3  27    2.37    2.07
  -6   3  27    0.57    2.94
   6  -5 -27   12.40    2.99
   6  -5 -27    9.57    2.82
  -6   5  27   26.06    4.45
  -6   5  27    6.28    3.56
   6  -6 -27    0.44    1.96
   6  -6 -27    0.67    1.48
  -6   6  27   -5.48    3.03
  -6   6  27    0.49    2.27
   6  -7 -27    8.98    2.26
   6  -7 -27   11.98    2.69
  -6   7  27    7.47    3.51
  -6   7  27    5.32    3.41
   5  -7 -27    1.70    1.57
   5  -7 -27    1.36    1.97
  -5   7  27    9.00    3.54
  -5   7  27   -0.49    2.97
   7   4 -27    6.96    5.47
   4  -7 -27   32.80    4.44
   4  -7 -27   25.78    4.57
   7   4 -27   10.10    4.92
  -7  -4  27   29.01    5.32
  -4   7  27    9.02    5.67
  -4   7  27    9.44    5.55
  -7  -4  27   24.35    4.69
   7   3 -27    8.56    4.04
   7   3 -27    9.17    3.53
   3  -7 -27   10.01    3.08
  -3   7  27    4.54    4.94
  -3   7  27    7.16    4.67
  -7  -3  27   11.88    3.58
  -7  -3  27    9.53    3.66
   7  -3 -27   25.93    3.55
   7  -3 -27   11.95    3.43
  -7   3  27    9.15    3.60
  -7   3  27   18.14    4.06
   7  -4 -27   22.02    4.27
  -7   4  27   17.31    4.95
   7  -5 -27    4.31    1.83
   7  -5 -27    7.13    2.09
  -7   5  27    9.28    2.44
  -7   5  27    2.71    2.83
   7  -6 -27    7.70    2.42
   7  -6 -27    2.35    2.40
  -7   6  27    6.03    3.34
  -7   6  27    4.15    2.91
   7  -7 -27    0.49    1.74
   7  -7 -27    2.17    1.66
  -7   7  27    3.30    3.01
  -7   7  27    1.08    2.52
   7  -8 -27    2.04    1.93
   7  -8 -27   -4.68    1.64
  -7   8  27   -2.64    3.28
  -7   8  27    0.53    2.50
   6  -8 -27    4.58    2.19
   6  -8 -27    1.69    1.58
  -6   8  27    1.23    2.54
  -6   8  27   -3.28    2.71
   5  -8 -27   21.15    5.16
   5  -8 -27   19.48    4.97
  -5   8  27   14.24    6.49
  -5   8  27   28.42    7.29
   4  -8 -27    0.87    1.66
   8   4 -27    0.53    2.58
   8   4 -27   -1.65    1.97
   4  -8 -27   -0.75    1.51
  -4   8  27    1.96    2.31
  -8  -4  27    0.45    2.11
  -8  -4  27   -2.71    2.53
  -4   8  27    2.10    2.81
   3  -8 -27   19.60    2.95
   8   3 -27    3.47    3.78
   3  -8 -27   11.09    3.29
   8   3 -27    8.97    3.30
  -3   8  27    6.35    4.79
  -8  -3  27    6.89    3.50
  -3   8  27    8.51    4.15
  -8  -3  27   15.47    3.56
   8   2 -27   -0.91    1.96
   2  -8 -27    4.67    1.38
   2  -8 -27    5.94    2.09
   8   2 -27    2.66    1.82
  -8  -2  27    8.06    2.56
  -2   8  27    0.49    2.43
  -8  -2  27    4.09    2.19
  -2   8  27    2.64    3.60
   1  -8 -27   20.65    4.01
   8   1 -27    5.59    4.11
   8   1 -27   12.00    4.13
  -8  -1  27   21.06    4.35
  -8  -1  27   13.03    4.09
   8   0 -27   -0.84    2.03
   8   0 -27    1.98    1.99
  -8   0  27    0.50    2.29
  -8   0  27   -1.63    1.83
   8  -1 -27    8.55    4.04
   8  -1 -27   16.30    4.51
  -8   1  27   30.39    4.58
  -8   1  27   17.35    3.98
   8  -2 -27    1.64    2.10
   8  -2 -27    0.40    1.95
  -8   2  27    6.16    2.51
  -8   2  27    2.06    2.11
   8  -3 -27   17.12    3.31
   8  -3 -27   12.00    3.55
  -8   3  27   11.98    3.91
  -8   3  27    6.38    3.20
   8  -4 -27   -3.36    2.39
  -8   4  27    1.32    2.15
   8  -5 -27   29.89    5.53
   8  -5 -27   25.78    5.74
  -8   5  27   36.06    6.27
  -8   5  27    8.32    5.36
   8  -6 -27    3.35    1.77
   8  -6 -27   -0.52    1.93
  -8   6  27   -0.55    2.63
  -8   6  27    4.50    2.74
   8  -7 -27   -2.60    2.20
   8  -7 -27   -0.38    1.93
  -8   7  27    1.10    2.89
   8  -8 -27   -1.45    1.71
   8  -8 -27    0.99    1.77
  -8   8  27   -3.41    2.69
  -8   8  27    1.86    2.91
   8  -9 -27    2.35    1.69
   8  -9 -27    0.54    2.27
  -8   9  27    5.50    3.37
  -8   9  27   -0.60    2.75
   7  -9 -27    5.35    2.38
   7  -9 -27    3.66    1.80
  -7   9  27   -0.68    3.04
  -7   9  27    1.14    2.92
   6  -9 -27    3.63    1.94
   6  -9 -27    7.72    2.22
  -6   9  27    0.63    3.39
  -6   9  27    1.67    3.10
   5  -9 -27    7.89    2.05
   5  -9 -27    3.79    1.75
  -5   9  27    2.08    2.56
  -5   9  27    5.21    3.24
   9   4 -27    7.89    8.27
   9   4 -27   11.75    7.60
  -4   9  27   24.28    8.74
  -9  -4  27   16.42    6.73
  -4   9  27   11.38    8.83
   3  -9 -27    0.44    1.89
   9   3 -27   -2.16    2.45
   3  -9 -27    0.37    1.54
   9   3 -27    2.99    1.96
  -3   9  27    2.51    3.16
  -9  -3  27   -1.71    2.76
  -9  -3  27    3.20    2.14
  -3   9  27   -0.53    2.69
   2  -9 -27   24.22    3.86
   9   2 -27    4.05    4.12
   9   2 -27   13.80    4.33
  -9  -2  27   12.93    3.80
  -2   9  27    5.17    4.73
  -2   9  27    9.93    5.68
  -9  -2  27   28.08    4.27
   9   1 -27   -0.95    2.22
   9   1 -27   -0.58    2.04
  -9  -1  27    1.86    2.15
  -9  -1  27   -1.07    2.47
  -1   9  27    0.53    2.44
   9   0 -27    5.71    3.64
  -9   0  27   23.67    3.99
  -9   0  27   19.96    3.71
   9  -1 -27   -1.70    2.08
   9  -1 -27   -1.15    2.02
  -9   1  27   -0.49    2.42
  -9   1  27   -1.08    2.46
   9  -2 -27   14.86    3.68
   9  -2 -27    9.91    4.02
  -9   2  27   25.26    4.42
  -9   2  27   11.29    3.82
   9  -3 -27   -1.67    1.93
   9  -3 -27   -0.59    2.50
  -9   3  27    0.56    2.67
  -9   3  27    2.02    2.20
   9  -4 -27   45.02    7.19
  -9   4  27   31.38    6.87
   9  -5 -27    0.41    2.10
   9  -5 -27    1.20    2.44
  -9   5  27    2.76    2.57
  -9   5  27    1.19    2.92
   9  -6 -27    1.29    2.07
   9  -6 -27   -0.61    2.60
  -9   6  27    0.62    3.40
  -9   6  27   -0.58    2.93
   9  -7 -27    5.63    2.72
   9  -7 -27    0.41    2.08
  -9   7  27    0.61    3.09
  -9   7  27   -1.83    3.11
   9  -8 -27    4.62    2.72
   9  -8 -27   -0.39    1.67
  -9   8  27    0.61    2.53
  -9   8  27   -1.27    2.84
   9  -9 -27    3.55    1.85
   9  -9 -27    0.68    2.79
  -9   9  27    7.37    3.37
  -9   9  27   -2.78    3.57
   9 -10 -27    3.52    2.80
  -9  10  27   -0.67    2.93
  -9  10  27   -2.79    3.26
   8 -10 -27    0.39    1.70
   8 -10 -27    0.64    2.40
  -8  10  27    1.81    2.93
  -8  10  27   -2.08    3.32
   7 -10 -27    2.93    2.33
   7 -10 -27   -0.36    1.74
  -7  10  27    4.50    3.11
  -7  10  27   -0.62    3.31
   6 -10 -27    0.92    2.02
   6 -10 -27    6.05    1.79
  -6  10  27    6.53    3.41
  -6  10  27    6.00    3.34
   5 -10 -27   26.42    4.91
   5 -10 -27   26.95    4.88
  -5  10  27    2.71    6.94
   4 -10 -27   13.85    2.48
  10   4 -27    4.33    3.31
   4 -10 -27   14.54    2.46
  10   4 -27   -0.65    3.14
 -10  -4  27    5.09    3.31
  -4  10  27    2.97    3.74
 -10  -4  27    3.09    3.10
  -4  10  27   -0.75    4.42
  10   3 -27    6.02    4.37
  10   3 -27    8.66    4.63
   3 -10 -27   19.90    3.61
   3 -10 -27   19.65    3.58
  -3  10  27    1.69    5.18
 -10  -3  27    7.30    3.98
  -3  10  27    4.85    4.75
  10   2 -27    1.41    2.72
  10   2 -27    0.54    2.48
   2 -10 -27    1.88    1.90
  -2  10  27   -0.60    2.74
 -10  -2  27    0.49    2.03
  -2  10  27   -0.93    4.00
 -10  -2  27    1.05    2.53
  10   1 -27    2.71    2.37
  10   1 -27   -1.56    2.48
 -10  -1  27   -1.49    2.35
 -10  -1  27    2.03    2.30
  10   0 -27   -2.69    2.61
  10   0 -27    1.51    2.31
 -10   0  27   -2.00    2.39
 -10   0  27    1.00    2.45
   1  10 -27    2.81    2.24
  10  -1 -27    3.35    2.47
  10  -1 -27   -0.97    2.22
 -10   1  27   -0.50    2.28
 -10   1  27   -1.02    2.39
  10  -2 -27    3.32    2.59
  10  -2 -27    1.87    1.87
 -10   2  27   -1.02    2.53
 -10   2  27    2.61    2.25
  10  -3 -27   19.09    4.35
  10  -3 -27   15.36    3.81
 -10   3  27   20.51    4.32
 -10   3  27   15.00    4.00
  10  -4 -27   12.62    3.15
 -10   4  27    6.09    3.20
  10  -5 -27   21.69    5.88
  10  -6 -27    3.89    2.24
  10  -6 -27    3.51    3.08
 -10   6  27    4.89    2.92
 -10   6  27   -2.41    2.89
  10  -7 -27   -2.88    2.53
  10  -7 -27    0.43    1.86
 -10   7  27    0.63    2.98
 -10   7  27   10.99    3.51
  10  -8 -27    0.72    2.45
  10  -8 -27   -0.43    1.86
 -10   8  27    0.66    2.89
 -10   8  27   -2.02    2.87
  10  -9 -27    0.78    2.89
 -10   9  27    2.11    3.20
  -9  11  27    1.65    3.74
   8 -11 -27    0.64    2.50
   8 -11 -27    4.78    1.79
  -8  11  27   -2.12    3.40
  -8  11  27   -0.79    3.61
   7 -11 -27    0.55    2.12
   7 -11 -27    0.37    1.72
  -7  11  27    6.28    3.60
  -7  11  27   -2.72    3.01
   6 -11 -27   12.53    2.57
   6 -11 -27   11.68    2.91
  -6  11  27    6.34    4.18
  -6  11  27    6.10    4.20
   5 -11 -27    2.42    1.80
   5 -11 -27    1.99    1.99
  -5  11  27    5.01    3.33
  -5  11  27   -0.68    3.38
   4 -11 -27   15.42    3.27
   4 -11 -27   16.20    3.14
  11   4 -27    4.99    4.85
 -11  -4  27   23.02    4.10
  -4  11  27    1.82    4.72
  -4  11  27    4.04    4.89
 -11  -4  27   11.74    4.14
   3 -11 -27    7.46    1.90
   3 -11 -27    1.84    1.98
  11   3 -27   -2.70    3.10
  11   3 -27    3.14    2.74
 -11  -3  27   10.27    3.05
  -3  11  27   -2.50    3.61
  -3  11  27    0.57    2.98
 -11  -3  27    1.73    2.83
   2 -11 -27    0.46    1.84
  11   2 -27    3.12    3.13
 -11  -2  27   -2.71    3.19
  11  -2 -27    1.01    2.46
   2  11 -27    0.57    2.92
  -2 -11  27    0.37    1.47
  11  -3 -27    3.49    2.92
  11  -3 -27    1.03    2.47
 -11   3  27   -2.87    2.52
  -3 -11  27    0.80    1.77
 -11   3  27    4.44    2.45
  11  -4 -27   19.62    4.16
  11  -4 -27   10.54    3.94
 -11   4  27    6.59    3.56
  11  -5 -27    0.70    2.57
  11  -5 -27    3.50    2.63
 -11   5  27    3.08    2.98
 -11   5  27   -1.85    2.82
  11  -6 -27   10.07    3.44
  11  -6 -27   10.66    3.18
 -11   6  27    1.87    3.40
 -11   6  27   -1.90    3.75
  11  -7 -27    2.25    3.11
 -11   7  27   -1.30    2.94
   8 -12 -27   -3.57    2.89
  -8  12  27   -2.51    4.02
  -8  12  27   -2.07    3.34
   7 -12 -27    4.81    2.33
   7 -12 -27    4.60    1.90
  -7  12  27    2.92    3.65
  -7  12  27   -1.51    3.06
   6 -12 -27    3.23    2.21
   6 -12 -27    0.75    1.63
  -6  12  27    2.02    2.83
  -6  12  27   -2.80    3.59
   5 -12 -27    4.47    2.37
  -5  12  27    0.67    3.74
  -5  12  27    3.84    3.65
   4 -12 -27    0.40    1.50
   4 -12 -27    3.80    2.01
  -4  12  27    4.30    3.22
  -4  12  27    3.50    3.59
  12   3 -27    2.74    3.13
   3 -12 -27    5.91    2.17
   3 -12 -27    8.87    1.82
  -3  12  27    0.67    3.33
  -3  12  27   -2.82    4.04
  12   2 -27    1.99    2.99
   2 -12 -27   -0.44    1.81
 -12  -2  27    0.65    2.65
  12   1 -27   -5.16    3.22
 -12  -1  27   -0.62    2.63
  12   0 -27    0.89    3.13
  12   0 -27    1.23    2.62
 -12   0  27   -1.25    2.34
  12  -1 -27    3.50    3.03
   1  12 -27   -1.06    2.36
  12  -1 -27    0.59    2.71
 -12   1  27    1.76    2.40
  12  -2 -27    2.29    2.44
   2  12 -27   -1.11    2.69
  12  -2 -27   -3.36    3.12
 -12   2  27   -2.36    2.49
  -2 -12  27   -0.73    1.38
   3  12 -27   -0.59    3.25
  12  -3 -27   -3.36    2.87
  12  -3 -27    0.54    2.58
   3  12 -27    1.82    2.65
  -3 -12  27    4.36    1.81
  -3 -12  27    7.18    1.78
 -12   3  27   -2.44    2.77
  12  -4 -27   -4.24    3.35
  12  -4 -27    1.54    2.01
 -12   4  27   -6.40    2.71
  -4 -12  27   -0.38    1.50
  12  -5 -27    0.85    3.38
 -12   5  27    0.65    3.31
   1  13 -27   -4.61    3.01
   2  13 -27   -0.58    2.75
  -2 -13  27   -0.37    1.47
  -2 -13  27    0.44    1.80
   3  13 -27   -1.92    2.77
   3  13 -27   -4.88    2.94
  -3 -13  27    2.01    1.67
  -3 -13  27   -0.41    1.78
   4  13 -27    0.65    3.56
   4  13 -27    5.68    3.72
  -4 -13  27    2.59    1.94
  -4 -13  27   11.64    2.33
  -5 -13  27    3.47    1.90
  -2 -14  27   -0.38    1.61
   3  14 -27   -1.03    3.15
  -3 -14  27    4.11    1.93
   2   1 -28   -0.90    1.63
  -2  -1  28    4.06    3.32
  -2   0  28   71.68   18.96
   2  -1 -28    0.39    1.55
   2  -1 -28    1.87    1.78
  -2   1  28    4.67    3.12
   2   2 -28   54.11   13.38
   2  -2 -28   70.01   13.63
   2  -2 -28   71.13   13.41
  -2  -2  28   36.65   17.73
  -2   2  28   62.84   17.35
   3   2 -28    2.27    1.82
   2  -3 -28    3.97    1.76
   3   2 -28    1.32    1.71
   2  -3 -28    4.13    1.87
  -3  -2  28   -3.17    1.99
  -2   3  28    0.77    2.97
  -3  -2  28    3.01    3.23
   3   1 -28    7.06    2.85
   3   1 -28    7.67    2.87
  -3  -1  28    9.43    2.91
  -3  -1  28    4.45    3.86
   3   0 -28    0.44    1.83
   3   0 -28    2.00    1.53
  -3   0  28   -1.08    1.97
  -3   0  28   -2.88    2.96
   3  -1 -28   16.86    3.05
   3  -1 -28   10.99    2.70
  -3   1  28    5.63    3.84
  -3   1  28    7.04    2.89
   3  -2 -28    2.20    1.56
   3  -2 -28   -1.79    1.89
   2   3 -28    1.67    1.65
  -3   2  28    5.45    2.86
  -3   2  28    0.38    2.03
  -2  -3  28   -1.06    1.67
   3  -3 -28    0.44    1.52
   3  -3 -28    0.36    1.36
   3   3 -28    1.49    1.96
   3   3 -28   -3.52    1.88
  -3  -3  28   -1.45    2.97
  -3   3  28    0.40    1.92
  -3  -3  28    0.68    1.70
  -3   3  28   -4.14    3.18
   4   3 -28   10.79    3.22
   4   3 -28    8.68    3.64
   3  -4 -28    9.35    3.16
  -4  -3  28   15.67    3.13
  -3   4  28   14.27    3.58
  -4  -3  28    8.58    3.87
   4   2 -28   -0.80    1.74
   2  -4 -28   -2.68    1.81
   4   2 -28   -0.90    1.92
  -4  -2  28   -0.65    2.97
  -2   4  28   -1.33    2.33
  -4  -2  28   -1.00    1.68
   4   1 -28   -1.33    2.04
   4   1 -28    0.41    1.65
  -4  -1  28   -2.52    2.76
  -4  -1  28   -0.36    1.72
   4   0 -28   -0.41    1.71
   4   0 -28    0.84    1.72
  -4   0  28    0.37    1.84
  -4   0  28    4.88    2.90
   4  -1 -28    0.80    1.55
   4  -1 -28   -2.50    1.59
  -4   1  28    0.74    1.82
  -4   1  28    3.57    2.61
   4  -2 -28   -2.10    1.52
   2   4 -28    1.79    1.68
   4  -2 -28    0.37    1.64
  -2  -4  28    1.02    1.65
  -4   2  28   -1.91    1.97
  -4   2  28    3.61    2.84
   4  -3 -28   11.89    2.99
   4  -3 -28   16.18    3.13
   3   4 -28    9.20    3.17
   3   4 -28    5.35    3.79
  -4   3  28   14.65    3.98
  -4   3  28    3.67    3.45
  -3  -4  28   10.98    4.82
  -3  -4  28   12.85    3.38
   5   4 -28    9.22    2.27
   5   4 -28    6.30    2.37
   4  -5 -28    3.07    2.04
   4  -5 -28    2.29    1.81
  -4   5  28    0.43    2.24
  -5  -4  28    1.80    1.87
  -5  -4  28    1.22    2.77
  -4   5  28    3.86    3.04
  -2   5  28    9.47    4.20
   5   1 -28   -1.18    1.82
   5   1 -28   -1.29    1.78
  -5  -1  28   -0.61    3.13
  -5  -1  28   -0.39    1.93
   5   0 -28   -1.17    1.40
   5   0 -28    1.28    1.76
  -5   0  28   -1.96    1.97
  -5   0  28   -0.63    3.07
   5  -1 -28   -1.17    1.59
   5  -1 -28   -0.85    1.87
  -5   1  28   -1.22    1.94
  -5   1  28   -0.62    2.71
   5  -2 -28   13.31    3.43
  -5   2  28   15.68    4.38
  -5   2  28   13.03    3.96
   5  -4 -28    1.34    1.78
  -5   4  28    4.62    2.50
   5  -5 -28    1.76    1.57
   5  -5 -28    3.24    2.04
  -5   5  28    3.79    2.36
  -5   5  28    0.68    3.05
   5  -6 -28    7.51    1.95
   5  -6 -28    2.42    1.57
  -5   6  28   -0.50    2.54
  -5   6  28   -1.95    2.99
   6   4 -28    3.04    2.87
   4  -6 -28    3.45    1.90
   6   4 -28    6.14    2.16
   4  -6 -28    6.37    2.10
  -6  -4  28    2.58    3.14
  -4   6  28    3.21    2.69
  -4   6  28    1.36    3.14
  -6  -4  28    4.51    2.10
   6   3 -28   15.88    5.64
   6   3 -28   23.93    4.98
   3  -6 -28   22.37    4.42
   3  -6 -28   13.37    5.01
  -6  -3  28   21.95    5.12
  -6  -3  28   16.18    5.24
  -3   6  28   18.03    6.69
  -3   6  28   26.64    7.04
   6   2 -28   -0.82    1.63
   2  -6 -28   -1.93    2.12
   2  -6 -28    0.35    1.40
   6   2 -28    0.42    2.04
  -6  -2  28   -2.82    2.44
  -6  -2  28   -0.39    1.81
  -2   6  28   -3.43    3.93
  -2   6  28   -0.47    1.98
   6   1 -28    3.69    1.85
   6   1 -28    1.99    1.73
  -6  -1  28   -0.54    2.71
  -6  -1  28    2.69    2.02
   6   0 -28    6.51    2.45
   6   0 -28    8.10    2.64
  -6   0  28    5.33    2.51
   6  -1 -28    3.71    1.92
   6  -1 -28    0.42    1.75
  -6   1  28    6.52    2.03
  -6   1  28   -1.62    2.39
   6  -2 -28    1.72    1.68
   6  -2 -28   -2.16    1.67
  -6   2  28   -2.75    1.99
  -6   2  28   -0.55    2.71
   6  -3 -28   25.80    4.61
   6  -3 -28   17.38    4.59
  -6   3  28   14.68    4.77
  -6   3  28   19.40    5.25
   6  -4 -28   11.61    2.32
  -6   4  28    0.85    2.27
   6  -5 -28    5.92    1.74
   6  -5 -28    0.45    1.79
  -6   5  28   -2.80    2.37
  -6   5  28    1.16    2.65
   6  -6 -28    4.43    1.66
   6  -6 -28    1.38    1.58
  -6   6  28    1.81    2.92
  -6   6  28    0.51    2.57
   6  -7 -28    3.81    2.18
   6  -7 -28    2.57    1.62
  -6   7  28   -2.15    3.06
  -6   7  28   -0.63    2.84
   5  -7 -28   15.53    3.39
   5  -7 -28   20.18    3.23
  -5   7  28   11.67    4.43
  -5   7  28   15.89    4.74
   4  -7 -28    3.17    1.93
   7   4 -28    4.81    2.22
   4  -7 -28    4.50    1.95
   7   4 -28    5.24    2.60
  -4   7  28    0.98    2.56
  -4   7  28    8.68    3.34
  -7  -4  28    3.21    2.16
  -7  -4  28    2.46    3.08
   7   3 -28    7.46    2.45
   3  -7 -28   14.26    2.74
   7   3 -28    2.51    2.52
   3  -7 -28    7.93    2.16
  -7  -3  28    7.61    3.10
  -3   7  28    4.17    3.21
  -3   7  28    4.12    3.40
  -7  -3  28    8.59    2.52
   2  -7 -28    7.16    1.86
   7   2 -28    4.54    2.31
   7   2 -28    4.98    2.68
   2  -7 -28   12.43    2.44
  -7  -2  28    5.59    3.14
  -2   7  28    1.53    2.96
  -2   7  28    1.79    3.93
  -7  -2  28    6.57    2.52
   7   1 -28    3.93    2.40
   7   1 -28    4.85    2.19
  -7  -1  28    0.99    2.49
  -7  -1  28    1.52    1.95
   7   0 -28    3.39    1.79
   7   0 -28    0.42    1.82
  -7   0  28   -1.55    1.88
  -7   0  28   -2.96    2.46
   7  -1 -28    2.66    1.96
   7  -1 -28    6.12    2.12
  -7   1  28    2.43    2.16
  -7   1  28    7.07    2.80
   7  -2 -28    5.65    2.47
   7  -2 -28    1.98    2.18
  -7   2  28    5.82    2.65
  -7   2  28   11.76    2.96
   7  -3 -28    7.14    2.61
   7  -3 -28    1.93    2.22
  -7   3  28    2.15    2.39
  -7   3  28   10.92    3.08
   7  -4 -28    3.21    2.24
  -7   4  28   -4.47    2.57
   7  -5 -28    3.58    2.91
   7  -5 -28   17.71    3.46
  -7   5  28    7.02    3.53
  -7   5  28    4.48    3.74
   7  -6 -28    1.48    1.78
   7  -6 -28    4.76    2.27
  -7   6  28    4.46    2.85
  -7   6  28    2.39    2.49
   7  -7 -28    1.99    1.89
   7  -7 -28   -1.52    1.87
  -7   7  28   -4.45    4.12
  -7   7  28   -2.19    2.76
   7  -8 -28    0.37    1.65
   7  -8 -28    1.54    1.98
  -7   8  28    8.68    2.90
  -7   8  28    0.67    2.91
  -6   8  28   -0.58    3.13
  -6   8  28    0.69    4.19
   5  -8 -28   -0.35    1.51
   5  -8 -28    2.83    1.95
  -5   8  28    2.64    2.72
  -5   8  28   -4.48    2.58
   4  -8 -28   14.30    3.42
   8   4 -28   18.40    4.04
   4  -8 -28   19.29    3.57
   8   4 -28    7.36    4.47
  -4   8  28   15.23    4.93
  -8  -4  28   23.71    4.21
  -8  -4  28   11.70    3.94
  -4   8  28    9.66    4.57
   3  -8 -28    7.74    1.97
   8   3 -28    2.33    2.07
   3  -8 -28    1.89    1.83
   8   3 -28    0.49    2.52
  -8  -3  28    3.89    2.55
  -3   8  28    6.77    3.51
  -8  -3  28    1.67    2.24
  -3   8  28   -3.09    2.85
   8   2 -28    4.86    2.39
   8   2 -28    3.39    2.70
   2  -8 -28   14.55    2.78
  -8  -2  28    3.41    2.63
  -2   8  28    6.36    4.01
  -2   8  28    6.71    3.30
  -8  -2  28   13.07    3.36
   8   1 -28   -0.46    2.03
   8   1 -28    0.99    2.00
  -8  -1  28    2.10    2.63
  -8  -1  28    0.42    2.00
   8   0 -28   10.35    3.20
   8   0 -28   11.02    3.53
  -8   0  28    5.32    3.04
  -8   0  28   13.21    3.50
   8  -1 -28   -1.25    1.99
   8  -1 -28    0.55    2.45
  -8   1  28    6.64    2.22
  -8   1  28    4.59    2.45
   8  -2 -28    5.26    2.53
   8  -2 -28    5.86    2.87
  -8   2  28    5.58    2.72
  -8   2  28   11.86    3.04
   8  -3 -28    4.31    2.27
   8  -3 -28    4.33    1.94
  -8   3  28    0.53    2.45
  -8   3  28   -1.33    2.04
   8  -4 -28   26.49    4.23
  -8   4  28   -1.84    3.68
   8  -5 -28   -1.16    1.73
   8  -5 -28    1.16    2.13
  -8   5  28   -3.32    2.51
  -8   5  28   -0.59    2.76
   8  -6 -28   -0.57    2.33
   8  -6 -28    2.61    1.86
  -8   6  28    0.60    2.91
  -8   6  28   -1.00    2.41
   8  -7 -28    0.78    1.80
   8  -7 -28   -0.54    2.23
  -8   7  28   -1.86    2.66
  -8   7  28    6.69    2.67
   8  -8 -28    0.40    1.71
   8  -8 -28    0.52    2.17
  -8   8  28   -1.80    3.17
  -8   8  28   -1.77    2.97
   8  -9 -28    2.10    2.15
   8  -9 -28    0.39    1.65
  -8   9  28   -4.07    3.24
  -8   9  28   -3.04    3.12
   7  -9 -28    0.54    2.17
   7  -9 -28   -1.09    1.85
  -7   9  28    3.23    2.97
  -7   9  28   -1.18    2.83
   6  -9 -28    2.46    2.06
   6  -9 -28    3.85    1.73
  -6   9  28    1.14    3.04
  -6   9  28    6.60    3.66
   9   4 -28    0.59    2.90
   9   4 -28    0.62    2.43
   4  -9 -28    1.83    1.89
   4  -9 -28    1.50    1.60
  -4   9  28   -4.56    4.38
  -9  -4  28   -0.55    2.89
  -4   9  28   -0.59    3.19
  -9  -4  28    0.49    2.33
   3  -9 -28   23.79    4.78
   9   3 -28   12.42    5.65
   9   3 -28   14.44    5.49
   3  -9 -28   32.30    4.68
  -3   9  28    6.62    6.66
  -9  -3  28   32.88    5.01
  -3   9  28   12.00    6.40
  -9  -3  28   14.20    4.91
   9   2 -28    0.54    2.27
   2  -9 -28   -1.91    1.96
   9   2 -28    1.22    2.20
  -9  -2  28    0.96    2.21
  -9  -2  28   -1.66    2.73
  -2   9  28    1.87    3.96
  -2   9  28    2.73    2.77
   9   1 -28    1.18    2.45
   9   1 -28    2.60    2.82
  -9  -1  28    7.45    2.79
  -9  -1  28   10.14    3.13
   9   0 -28    2.93    2.25
   9   0 -28   -0.50    2.27
  -9   0  28   -1.48    2.35
  -9   0  28    0.57    2.50
   9  -1 -28    5.35    2.87
   9  -1 -28    1.93    2.44
  -9   1  28    8.70    2.67
  -9   1  28    8.60    2.92
   9  -2 -28   -2.82    2.09
   9  -2 -28   -1.21    2.36
  -9   2  28    0.97    2.21
  -9   2  28   -1.16    2.61
   9  -3 -28   37.14    5.57
   9  -3 -28   14.67    5.23
  -9   3  28   27.42    5.72
  -9   3  28   21.97    5.10
   9  -4 -28    3.11    2.27
   9  -4 -28    3.69    2.56
  -9   4  28    2.07    2.55
   9  -6 -28    0.62    2.62
   9  -6 -28    2.43    1.86
  -9   6  28    2.93    3.22
  -9   6  28    1.19    2.69
   9  -7 -28    0.42    1.85
   9  -7 -28    1.25    2.53
  -9   7  28   -0.63    2.98
  -9   7  28   -4.83    2.58
   9  -8 -28    0.41    1.88
   9  -8 -28   -1.94    2.35
  -9   8  28   -1.27    3.17
  -9   8  28    2.59    2.54
   9  -9 -28   -1.40    2.41
  -9   9  28   -4.15    3.04
   8 -10 -28    0.60    2.44
  -8  10  28    3.49    3.30
  -8  10  28   -1.40    3.69
   7 -10 -28    2.28    1.67
   7 -10 -28    1.15    2.23
  -7  10  28    0.64    3.16
  -7  10  28   -1.37    3.45
   6 -10 -28    6.71    2.07
   6 -10 -28    4.37    2.14
  -6  10  28    0.71    3.51
  -6  10  28    0.62    3.02
   5 -10 -28    2.44    2.10
   5 -10 -28    2.33    1.93
  -5  10  28    3.06    3.13
  -5  10  28    2.89    3.51
   4 -10 -28    9.87    3.24
 -10  -4  28    9.34    4.04
 -10  -4  28   19.65    4.42
  -4  10  28   11.05    5.12
  -4  10  28    9.80    5.33
   3 -10 -28    1.85    2.00
  10   3 -28   -3.57    2.51
  10   3 -28    0.71    2.71
   3 -10 -28   -1.23    1.61
 -10  -3  28    3.56    3.18
 -10  -3  28   -1.50    2.49
  -3  10  28   -1.68    2.63
  -3  10  28  -17.72    4.31
  10   1 -28   -0.68    2.34
  10   0 -28   -2.03    3.12
 -10   0  28   -0.52    2.63
 -10   0  28  -12.31    3.49
  10  -3 -28   -4.69    2.70
  10  -3 -28    2.73    2.25
 -10   3  28   -3.56    2.66
 -10   3  28    0.58    2.98
  10  -4 -28   15.42    3.76
  10  -4 -28    2.03    3.80
 -10   4  28   13.49    4.61
 -10   4  28    1.58    3.73
  10  -5 -28    4.11    2.16
  10  -5 -28    0.68    2.75
 -10   5  28    2.81    2.53
 -10   5  28    8.15    3.41
  10  -6 -28    0.69    2.59
  10  -6 -28    4.86    2.32
 -10   6  28    6.40    3.34
 -10   6  28    9.86    3.50
  10  -7 -28    0.72    2.75
 -10   7  28    1.96    3.04
   7 -11 -28    0.57    2.05
   7 -11 -28    3.49    1.85
  -7  11  28    0.67    3.38
  -7  11  28   -1.53    3.32
   6 -11 -28    3.01    1.74
   6 -11 -28    1.03    2.18
  -6  11  28   -2.61    3.35
  -6  11  28   -3.41    3.26
   5 -11 -28    9.84    2.91
   5 -11 -28   21.14    3.14
  -5  11  28    0.70    4.35
  -5  11  28    9.38    4.65
   4 -11 -28    0.95    1.82
   4 -11 -28    3.57    1.61
 -11  -4  28   11.34    3.11
  -4  11  28   -3.51    3.73
  -4  11  28    0.62    2.95
   3 -11 -28    9.59    2.03
   3 -11 -28    9.42    2.30
  11   3 -28   -1.58    2.98
  11   3 -28    0.65    3.23
  -3  11  28    0.94    4.02
 -11  -3  28    8.70    3.11
 -11  -3  28    1.70    2.44
  -3  11  28    8.85    3.59
   2 -11 -28   -2.29    2.03
  11   2 -28    2.39    2.79
  11   2 -28    1.87    2.73
 -11  -2  28   -2.81    2.63
  -2  11  28    0.59    2.89
 -11  -2  28   -1.10    2.57
  11   1 -28    0.75    2.67
  11   1 -28    2.41    2.80
 -11  -1  28   -1.13    2.64
 -11  -1  28    2.35    2.84
  11   0 -28    2.97    2.85
  11   0 -28    0.70    2.66
 -11   0  28   -1.60    2.28
 -11   0  28    0.59    2.55
  11  -1 -28   -1.40    2.61
  11  -1 -28    1.14    2.55
   1  11 -28    2.61    2.53
 -11   1  28   -0.56    2.16
 -11   1  28    4.72    2.62
  11  -2 -28    0.71    2.68
  11  -2 -28   -4.83    2.34
 -11   2  28    1.13    2.61
 -11   2  28   -0.60    3.01
  11  -3 -28    7.30    3.11
  11  -3 -28    1.54    2.58
 -11   3  28    1.14    2.64
 -11   3  28    5.19    2.95
  11  -4 -28    2.48    2.40
  11  -4 -28   -3.68    3.49
 -11   4  28    2.90    2.84
 -11   4  28    0.59    2.68
  11  -5 -28    5.95    3.71
 -11   5  28    6.18    3.51
   7 -12 -28   -3.16    2.21
  -7  12  28   -1.50    3.49
   6 -12 -28    3.62    2.20
   6 -12 -28    9.88    2.46
  -6  12  28    4.36    3.50
  -6  12  28   -2.82    3.56
   5 -12 -28    2.45    1.70
   5 -12 -28    5.11    2.12
  -5  12  28   -0.80    3.53
  -5  12  28   -2.00    3.44
   4 -12 -28   13.06    2.56
   4 -12 -28    3.87    2.25
  -4  12  28    3.15    3.81
  -4  12  28    2.67    4.25
   3 -12 -28    0.46    1.84
  12   3 -28   -0.76    3.71
 -12  -3  28    4.21    2.62
  -3  12  28   -2.86    3.89
  -3  12  28   -0.68    3.64
   2 -12 -28    0.45    1.82
  12   2 -28   -1.34    3.22
 -12  -2  28   -1.25    2.61
  -2  12  28   -1.24    2.99
  12   1 -28    0.62    2.88
  12   1 -28    2.71    3.20
 -12  -1  28   -0.65    2.40
  12   0 -28   -2.31    2.35
  12   0 -28    1.74    2.87
 -12   0  28    1.18    2.74
  12  -1 -28   -0.84    2.99
  12  -1 -28   -4.44    2.54
 -12   1  28    1.19    2.59
  12  -2 -28    3.40    3.19
   2  12 -28    0.56    2.66
  12  -2 -28   -2.18    2.71
 -12   2  28   -3.71    2.43
  -2 -12  28    0.44    1.73
  12  -3 -28    3.43    3.22
 -12   3  28    0.62    2.45
   2  13 -28   -4.10    2.76
  -2 -13  28   -1.86    1.93
   3  13 -28   -0.96    2.94
   3  13 -28    1.27    3.36
  -3 -13  28    3.88    2.09
  -3 -13  28    2.64    1.62
   2   1 -29   34.11    6.89
  -2  -1  29   36.38    7.96
  -2  -1  29   27.16    9.93
   2   0 -29    0.46    1.87
  -2   0  29    4.99    3.55
   2  -1 -29   32.30    7.12
  -2   1  29   15.20    9.62
   2  -2 -29    2.76    1.73
   2   2 -29   -2.65    1.89
   2  -2 -29    1.05    1.37
  -2   2  29   -6.81    3.54
  -2  -2  29   -1.13    2.02
   3   1 -29   -2.74    1.95
   3   1 -29    2.26    1.80
   3   0 -29    1.79    1.56
   3   0 -29   -1.26    1.61
  -3   0  29    3.09    3.64
  -3   0  29   -1.51    1.85
   3  -1 -29   -0.45    1.94
   3   3 -29    0.92    1.77
   3  -3 -29   -2.65    1.50
   3  -3 -29   -1.44    1.85
   3   3 -29    0.52    2.12
  -3  -3  29    1.60    3.13
  -3  -3  29    0.72    1.75
  -3   3  29    2.31    3.28
  -3   3  29   -2.13    2.13
   4   3 -29   -0.98    1.91
   3  -4 -29   -0.48    2.00
   4   3 -29    3.06    1.71
  -3   4  29   -1.78    2.10
  -4  -3  29   -0.36    1.68
  -4  -3  29    4.38    3.49
   4   2 -29   18.27    5.86
   4   2 -29   20.68    5.30
   2  -4 -29   27.33    5.47
  -4  -2  29   23.63    5.28
  -4  -2  29   18.41    6.51
  -2   4  29   16.73    6.45
  -4  -1  29   -5.92    3.30
  -4   1  29   -1.58    2.31
   4  -2 -29   29.99    5.30
   4  -2 -29   18.06    5.39
   2   4 -29   25.99    5.68
  -2  -4  29   28.28    5.75
  -4   2  29   22.96    6.02
  -4   2  29   18.68    6.48
   3   4 -29    1.37    1.80
   4  -3 -29   -4.02    1.63
   4  -3 -29    3.10    1.84
  -4   3  29    2.71    3.14
  -3  -4  29    3.43    3.41
  -4   3  29    2.55    1.87
  -3  -4  29   -1.95    2.34
   4  -4 -29    2.24    1.58
   4   4 -29   -2.16    2.37
   4   4 -29    2.55    1.73
  -4  -4  29   -0.79    2.98
  -4  -4  29   -2.17    1.82
  -4   4  29   -1.30    1.97
   4  -5 -29    1.81    1.80
   5   4 -29    3.04    1.95
   5   4 -29    0.58    2.33
   4  -5 -29    1.90    1.80
  -5  -4  29   -1.13    1.91
  -5  -4  29    0.69    2.74
  -4   5  29    0.72    3.04
  -4   5  29    4.01    2.47
   3  -5 -29   16.57    2.58
   5   3 -29    2.99    3.02
   3  -5 -29    6.87    2.77
   5   3 -29    7.53    2.74
  -5  -3  29    6.57    2.71
  -5  -3  29   19.94    4.19
  -3   5  29    8.93    3.52
  -3   5  29    7.33    4.15
   5   2 -29    1.30    2.05
   2  -5 -29    3.35    1.46
   2  -5 -29    0.99    1.94
   5   2 -29    1.30    1.87
  -5  -2  29   10.95    3.05
  -2   5  29    0.89    3.62
  -5  -2  29    2.76    2.04
  -2   5  29    1.89    2.50
   5   1 -29    4.88    2.26
   5   1 -29    2.10    1.82
  -5  -1  29    8.64    2.92
  -5  -1  29    6.95    2.53
   5   0 -29    2.63    1.79
   5   0 -29    1.19    1.65
  -5   0  29   -1.26    1.86
  -5   0  29    1.81    2.73
   5  -1 -29    4.81    2.22
   5  -1 -29    1.93    1.93
  -5   1  29    3.66    3.02
  -5   1  29    3.37    2.34
   5  -2 -29    4.42    1.90
   5  -2 -29    0.38    1.78
  -5   2  29    3.05    2.68
  -5   2  29    6.10    2.14
   5  -3 -29    5.37    2.51
   5  -3 -29    5.52    2.48
  -5   3  29   19.16    3.82
  -5   3  29    5.43    3.34
   5  -4 -29    6.08    2.20
  -5   4  29    2.41    2.53
   5  -5 -29    1.42    1.74
   5  -5 -29    0.95    1.82
  -5   5  29   -2.47    2.44
  -5   5  29    0.64    2.80
   5  -6 -29    1.43    1.48
   5  -6 -29    5.90    2.04
  -5   6  29    1.55    2.71
  -5   6  29   -1.89    2.83
   6   4 -29    1.86    1.81
   6   4 -29    2.13    2.39
   4  -6 -29    7.61    2.25
   4  -6 -29    4.54    1.72
  -6  -4  29    3.84    2.12
  -4   6  29    0.48    2.35
  -6  -4  29    3.21    2.85
  -4   6  29    1.45    3.26
   3  -6 -29    6.90    2.40
   3  -6 -29    0.75    1.57
   6   3 -29    0.46    1.99
   6   3 -29    0.52    2.28
  -3   6  29    5.02    3.77
  -3   6  29    3.79    2.96
  -6  -3  29    7.34    2.55
  -6  -3  29    5.26    3.21
   6   2 -29    2.75    3.32
   6   2 -29   13.51    3.05
   2  -6 -29   16.05    3.21
  -2   6  29   13.59    5.33
  -6  -2  29   11.45    3.27
  -6  -2  29    9.61    4.13
  -2   6  29    6.43    3.93
   6   1 -29    0.89    2.04
   6   1 -29   -0.43    1.59
  -6  -1  29    0.80    2.20
  -6  -1  29    2.35    2.51
   6   0 -29    0.83    1.86
   6   0 -29   -2.19    1.89
  -6   0  29   -1.95    1.91
  -6   0  29   -1.72    2.72
   6  -1 -29    1.17    1.66
   6  -1 -29    1.74    1.73
  -6   1  29   -1.19    1.92
  -6   1  29    0.58    2.80
   6  -2 -29    7.51    3.02
   6  -2 -29   12.08    3.01
  -6   2  29   16.42    3.85
  -6   2  29    9.41    3.32
   6  -3 -29    4.46    1.93
   6  -3 -29    3.32    1.84
  -6   3  29   11.26    3.29
  -6   3  29    5.09    2.48
   6  -4 -29    0.90    1.94
  -6   4  29    1.33    2.39
   6  -5 -29    0.38    1.71
   6  -5 -29    1.84    1.90
  -6   5  29   -1.89    2.23
  -6   5  29   -1.83    2.77
   6  -6 -29   -6.36    2.03
   6  -6 -29    0.37    1.59
  -6   6  29   -1.58    2.68
  -6   6  29   -0.68    3.28
   5  -7 -29   -0.35    1.53
   5  -7 -29   -1.41    1.62
  -5   7  29    0.67    2.87
  -5   7  29    0.53    2.61
   4  -7 -29    8.05    2.10
   4  -7 -29    6.52    2.34
   7   4 -29    0.54    2.80
   7   4 -29    7.29    2.51
  -4   7  29    4.34    3.30
  -7  -4  29    3.60    3.11
  -7  -4  29    4.93    2.39
  -4   7  29    3.07    2.72
   3  -7 -29    5.49    2.18
   3  -7 -29    5.86    2.56
   7   3 -29    4.48    2.76
   7   3 -29    9.89    2.55
  -3   7  29    8.56    4.19
  -3   7  29    2.66    3.24
  -7  -3  29    7.43    2.62
  -7  -3  29    3.45    3.14
   7   2 -29    0.48    1.98
   7   2 -29    3.24    1.93
   2  -7 -29   -0.94    2.06
  -7  -2  29    0.61    2.86
  -2   7  29    0.91    3.51
  -7  -2  29   -0.80    1.94
  -2   7  29    4.12    2.33
   7   1 -29    0.93    2.37
   7   1 -29    2.20    2.20
  -7  -1  29    5.93    2.50
  -7  -1  29   10.64    3.33
   7   0 -29    0.90    1.78
   7   0 -29   -0.89    2.11
  -7   0  29    1.23    2.10
  -7   0  29    4.13    2.57
   7  -1 -29    8.85    2.48
   7  -1 -29    4.29    2.40
  -7   1  29    4.61    2.47
  -7   1  29    8.90    3.15
   7  -2 -29    4.86    2.12
   7  -2 -29    1.23    1.78
  -7   2  29    4.87    2.80
  -7   2  29   -1.71    2.37
   7  -3 -29   12.29    2.63
  -7   3  29   15.22    3.58
  -7   3  29    3.99    2.73
   7  -4 -29    4.93    2.55
  -7   4  29    5.09    2.48
   7  -5 -29   -0.48    1.80
   7  -5 -29    1.55    1.85
  -7   5  29    1.45    2.35
  -7   5  29    2.54    2.94
   7  -7 -29    1.49    1.77
   7  -7 -29   -3.55    1.97
  -7   7  29   -2.53    3.13
  -7   7  29   -1.59    2.91
   7  -8 -29    1.13    1.83
   7  -8 -29   -4.64    2.02
  -7   8  29    0.65    2.74
  -7   8  29    8.94    3.07
   6  -8 -29    3.03    1.76
   6  -8 -29   -1.58    2.16
  -6   8  29    2.24    3.04
  -6   8  29   -1.81    3.15
   5  -8 -29    2.27    1.95
   5  -8 -29    6.27    2.40
  -5   8  29    1.39    3.91
   8   4 -29   -0.58    2.76
   8   4 -29   -1.02    2.06
   4  -8 -29    0.39    1.64
   4  -8 -29   -1.78    1.83
  -8  -4  29   -4.31    3.15
  -8  -4  29   -3.28    2.69
  -4   8  29   -1.06    2.99
  -4   8  29   -9.88    4.98
   3  -8 -29   13.60    3.87
   8   3 -29   12.09    3.74
   8   3 -29    8.23    4.89
   3  -8 -29   14.98    3.81
  -3   8  29    6.91    5.23
  -3   8  29   29.79    6.24
  -8  -3  29   15.89    3.93
  -8  -3  29   18.73    4.01
   8   2 -29    1.00    1.90
   2  -8 -29   -0.96    1.83
   8   2 -29    0.52    2.24
  -2   8  29    0.95    3.55
  -8  -2  29   -0.45    2.21
  -8  -2  29    1.60    2.44
  -2   8  29    2.64    2.41
   8   1 -29    0.96    2.15
   8   1 -29    2.16    2.08
  -8  -1  29    0.56    2.51
  -8  -1  29    3.77    2.45
   8   0 -29   -0.44    1.69
   8   0 -29   -3.88    2.31
  -8   0  29    3.39    2.70
  -8   0  29    1.26    2.13
   8  -1 -29    3.78    2.36
   8  -1 -29    0.84    2.00
  -8   1  29    3.96    2.17
  -8   1  29    9.01    2.90
   8  -2 -29   -1.23    2.01
   8  -2 -29    3.24    2.24
  -8   2  29    2.70    2.42
  -8   2  29    0.57    2.62
   8  -3 -29   16.90    4.27
   8  -3 -29   26.38    4.12
  -8   3  29   22.15    4.80
  -8   3  29    4.61    3.87
   8  -4 -29   -1.10    2.25
   8  -4 -29   -4.92    2.33
  -8   4  29    4.82    2.75
   8  -5 -29    2.25    2.28
   8  -5 -29    8.23    2.28
   8  -6 -29    4.79    2.51
   8  -6 -29    4.10    1.91
  -8   6  29    4.69    2.86
  -8   6  29    0.51    2.41
   8  -7 -29   -2.23    2.18
   8  -7 -29    1.62    1.85
  -8   7  29   -0.54    2.71
  -8   7  29   -2.48    2.85
   8  -8 -29    2.45    1.99
   8  -8 -29   -2.19    2.26
  -8   8  29    4.27    3.56
  -8   8  29   -0.61    3.20
   8  -9 -29    2.61    2.08
  -8   9  29    1.27    3.22
   7  -9 -29    3.60    1.91
   7  -9 -29    0.54    2.08
  -7   9  29   -2.75    3.65
  -7   9  29   -3.03    2.99
   6  -9 -29   -0.51    1.88
   6  -9 -29    2.64    1.74
  -6   9  29   -1.17    2.61
  -6   9  29    0.71    3.12
   5  -9 -29    5.81    2.45
   5  -9 -29   10.19    2.36
  -5   9  29    6.06    3.29
  -5   9  29    3.72    3.70
   4  -9 -29   15.32    3.63
   4  -9 -29   22.02    3.91
  -4   9  29   12.63    5.92
  -4   9  29    6.71    5.64
  -9  -4  29    8.70    4.17
  -9  -4  29   20.95    4.52
   3  -9 -29   -0.46    1.91
   9   3 -29   -1.31    2.61
   3  -9 -29   -1.26    1.73
   9   3 -29    0.56    2.57
  -9  -3  29    1.73    2.91
  -9  -3  29   -0.51    2.26
  -3   9  29   -5.08    3.41
  -9  -1  29    1.52    2.40
   9   0 -29    2.41    2.57
   9   0 -29   -1.43    2.49
  -9   0  29   -3.50    2.48
  -9   0  29   -1.65    2.99
   9  -1 -29    2.98    2.87
  -9   1  29    3.88    3.45
  -9   1  29   -0.49    2.70
   9  -3 -29    0.43    2.01
   9  -3 -29   -0.58    2.40
  -9   3  29   -2.28    3.20
  -9   3  29    1.51    2.46
   9  -4 -29   19.00    4.23
   9  -4 -29   19.83    4.26
  -9   4  29   22.36    4.79
   9  -5 -29    2.48    2.84
   9  -5 -29    6.04    2.35
  -9   5  29    4.66    3.13
  -9   5  29    3.32    2.71
   9  -6 -29   -3.19    2.35
   9  -6 -29   -0.42    2.15
  -9   6  29    0.62    3.02
  -9   6  29    1.18    3.18
   9  -7 -29    3.83    2.29
  -9   7  29    3.20    3.02
  -9   7  29   -0.65    3.17
   7 -10 -29    1.16    2.23
  -7  10  29    1.31    3.25
   6 -10 -29    2.67    1.90
   6 -10 -29    3.46    1.81
  -6  10  29   -3.44    3.18
  -6  10  29    2.53    3.08
   5 -10 -29   12.48    2.57
   5 -10 -29    1.91    2.32
  -5  10  29    2.46    3.81
  -5  10  29    0.79    4.16
   4 -10 -29    3.27    1.92
   4 -10 -29    0.39    1.57
 -10  -4  29    7.89    2.90
  -4  10  29    2.53    3.43
  -4  10  29    0.89    3.22
  10   3 -29    4.33    3.62
   3 -10 -29    8.47    2.23
  10   3 -29    1.31    3.82
   3 -10 -29   12.06    2.67
  -3  10  29   -1.74    3.60
 -10  -3  29    5.68    3.08
  -3  10  29   -0.95    4.32
  10   2 -29    4.80    2.52
  10   2 -29   -0.62    3.10
   2 -10 -29    0.99    2.13
  -2  10  29    1.93    3.18
 -10  -2  29   -0.62    2.82
 -10  -2  29   -1.58    2.32
  10   1 -29    1.37    2.40
  10   1 -29    0.56    2.55
 -10  -1  29   -0.62    2.92
 -10  -1  29    2.11    2.37
  10   0 -29   -4.18    2.48
  10   0 -29   -0.67    2.63
 -10   0  29   -0.60    3.05
 -10   0  29   -0.53    2.44
  10  -1 -29    2.69    2.30
  10  -1 -29    2.01    2.55
 -10   1  29    0.50    2.42
  10  -2 -29    0.49    2.19
  10  -2 -29    3.32    2.46
 -10   2  29    0.50    2.47
 -10   2  29    7.97    3.34
  10  -3 -29    7.76    3.09
  10  -3 -29    4.68    3.18
 -10   3  29   13.42    3.44
 -10   3  29    8.42    3.14
  10  -4 -29    4.97    2.24
  10  -4 -29    1.35    2.78
 -10   4  29   -3.26    2.82
 -10   4  29    3.90    3.08
  10  -5 -29    7.36    2.75
  10  -5 -29   11.83    3.39
 -10   5  29    9.99    3.46
   6 -11 -29    6.16    2.33
  -6  11  29   -1.47    3.48
  -6  11  29    0.65    3.12
   5 -11 -29    1.00    2.14
   5 -11 -29    5.74    1.88
  -5  11  29    6.25    3.88
  -5  11  29    2.42    3.42
   4 -11 -29   11.19    2.61
   4 -11 -29   11.85    2.77
  -4  11  29    3.21    4.05
  -4  11  29    0.91    4.75
  11   3 -29    1.27    2.95
   3 -11 -29    2.89    2.05
  11   3 -29    0.81    2.77
 -11  -3  29   -3.98    2.72
  -3  11  29    2.91    4.06
  -3  11  29   -3.04    2.96
 -11  -3  29   -3.24    3.14
  11   2 -29    2.36    3.06
  11   2 -29    0.63    2.97
   2 -11 -29    1.87    2.00
  -2  11  29   -4.24    3.14
 -11  -2  29    4.15    2.68
 -11  -2  29    0.61    2.47
  11   1 -29    2.12    2.52
  11   1 -29    2.46    2.62
 -11  -1  29   -4.21    2.68
 -11  -1  29   -0.54    2.74
  11   0 -29   -0.59    2.67
  11   0 -29   -0.71    2.55
 -11   0  29    1.72    2.40
 -11   0  29    3.53    3.02
  11  -1 -29   -5.12    3.08
  11  -1 -29    1.69    2.41
 -11   1  29   -2.96    2.85
 -11   1  29   -1.70    2.58
  11  -2 -29    4.51    2.95
  11  -2 -29   -2.73    2.84
 -11   2  29    0.60    2.70
 -11   2  29    1.11    2.71
  11  -3 -29   -1.53    3.22
 -11   3  29    2.26    2.52
   5 -12 -29   -0.54    2.07
  -5  12  29    4.89    3.23
  -5  12  29   -0.88    3.48
   4 -12 -29    1.79    1.86
   4 -12 -29    0.49    1.95
  -4  12  29    2.01    2.97
  -4  12  29    2.66    3.60
  12   3 -29    5.12    3.24
   3 -12 -29    0.95    1.95
 -12  -3  29   -0.67    2.60
  -3  12  29   -1.40    3.17
 -12  -3  29    1.83    2.82
  -3  12  29   -2.00    3.51
  12   2 -29    0.71    3.25
   2 -12 -29   -0.46    1.81
 -12  -2  29   -6.48    3.04
  -2  12  29   -1.86    3.19
 -12  -2  29   -1.98    2.36
  12   1 -29    8.94    3.31
  12   1 -29    5.55    3.35
 -12  -1  29    0.60    2.56
  12   0 -29   -0.85    3.17
 -12   0  29   -2.41    2.73
   2   1 -30    3.20    1.98
  -2  -1  30    0.80    1.96
   2   0 -30    5.11    2.24
  -2   0  30    1.67    2.20
  -2   0  30    9.68    3.98
   2  -1 -30   -1.87    1.98
  -2   1  30   -3.02    2.25
  -2   1  30    0.88    3.39
   2   2 -30    1.85    2.23
   2  -2 -30    1.87    1.81
  -2   2  30    0.45    2.05
  -2   2  30   -0.88    3.38
  -2  -2  30    3.48    2.15
   2  -3 -30   18.56    3.73
   3   2 -30   10.99    3.74
   3   2 -30   18.24    4.01
  -2   3  30   11.33    4.24
  -3  -2  30    6.85    3.60
  -2   3  30    5.27    5.14
  -3  -2  30   10.08    5.45
   3   1 -30    1.43    1.85
   3   1 -30    2.96    1.96
  -3  -1  30    0.77    2.96
  -3  -1  30   -0.39    1.81
   3   0 -30   -0.48    1.90
   3   0 -30    1.38    1.80
  -3   0  30   -3.04    3.25
  -3   0  30   -2.44    1.97
   3  -1 -30   -0.49    1.81
   3  -1 -30    1.33    1.77
  -3   1  30    3.17    2.87
  -3   1  30    3.71    2.21
   3  -2 -30   14.71    3.93
   2   3 -30    6.33    4.15
   3  -2 -30   27.96    3.82
  -3   2  30   13.50    4.15
  -2  -3  30   17.56    3.87
  -3   2  30   16.99    5.51
   3  -3 -30    0.99    2.04
   3  -3 -30    4.11    1.61
   3   3 -30    0.47    1.89
  -3  -3  30   -0.87    3.45
  -3   3  30    4.09    3.47
  -3   3  30   -3.57    2.06
  -3  -3  30    2.92    2.21
   4   3 -30    2.72    2.21
   3  -4 -30    9.53    2.39
   4   3 -30   -1.60    2.33
  -4  -3  30    4.47    2.10
  -3   4  30    2.31    2.50
  -4  -3  30    9.63    3.76
   4   2 -30    2.22    2.00
   4   2 -30    0.99    2.18
   2  -4 -30    4.06    2.14
  -4  -2  30    7.66    3.73
  -4  -2  30    3.01    1.96
  -2   4  30    3.77    2.31
   4   1 -30    8.26    2.73
   4   1 -30    1.85    2.81
  -4  -1  30   14.97    2.85
  -4  -1  30    8.49    3.69
   4   0 -30   -1.77    1.66
   4   0 -30    3.08    2.10
  -4   0  30    0.69    2.93
  -4   0  30    0.40    2.06
   4  -1 -30    7.22    2.63
   4  -1 -30    8.96    2.87
  -4   1  30    9.91    3.11
  -4   1  30    6.92    3.93
   2   4 -30    0.96    2.18
   4  -2 -30    2.71    2.19
   4  -2 -30    7.06    1.92
  -4   2  30    5.13    2.42
  -2  -4  30    0.76    2.88
  -4   2  30    5.44    2.99
   3   4 -30    1.86    2.16
   4  -3 -30    4.47    1.79
   4  -3 -30    4.57    2.14
  -4   3  30    8.95    3.48
  -3  -4  30    6.29    3.91
  -4   3  30    1.33    2.11
  -3  -4  30    4.80    2.54
   4   4 -30   -0.45    1.73
   4   4 -30    0.60    2.62
   4  -4 -30    0.46    1.71
  -4  -4  30    0.82    3.43
  -4   4  30   -1.77    2.31
  -4  -4  30    0.75    1.76
   5   4 -30    1.35    1.73
   4  -5 -30    1.42    2.03
   4  -5 -30   -1.96    1.71
   5   4 -30    1.18    2.32
  -5  -4  30    1.18    1.99
  -4   5  30    0.47    2.17
  -4   5  30    3.69    3.11
  -5  -4  30   -0.70    2.75
   5   3 -30   -2.20    1.64
   3  -5 -30   -0.50    1.82
   3  -5 -30   -1.23    1.52
   5   3 -30   -1.10    2.23
  -3   5  30    2.04    2.40
  -3   5  30    0.84    3.50
  -5  -3  30    2.82    3.27
  -5  -3  30    0.80    1.99
   5   2 -30   13.07    3.77
   5   2 -30    8.40    4.57
   2  -5 -30   30.65    4.37
  -5  -2  30   17.36    4.77
  -2   5  30    9.87    4.86
  -2   5  30   10.97    5.96
  -5  -2  30   18.55    4.22
   5   1 -30   -0.46    1.93
   5   1 -30    1.38    1.74
  -5  -1  30    1.28    2.02
  -5  -1  30    0.63    2.71
   5   0 -30   -1.21    1.64
   5   0 -30   -0.91    1.99
  -5   0  30   -1.85    3.07
  -5   0  30   -0.44    2.18
   5  -1 -30   -2.25    1.91
   5  -1 -30    0.39    1.69
  -5   1  30    1.25    2.63
  -5   1  30    2.20    2.37
   5  -2 -30   19.14    3.92
   5  -2 -30    8.15    3.52
  -5   2  30   24.15    4.61
  -5   2  30   15.45    4.66
   5  -3 -30    6.08    2.07
   5  -3 -30    1.12    1.51
  -5   3  30    2.51    2.96
  -5   3  30   -0.47    2.29
   5  -4 -30    3.85    2.07
  -5   4  30    2.51    2.47
   5  -5 -30   -0.72    1.47
   5  -5 -30    0.96    1.73
  -5   5  30   -2.57    2.72
  -5   5  30    5.26    2.98
   5  -6 -30   -4.19    2.15
   5  -6 -30    0.39    1.96
  -5   6  30   -6.81    4.04
  -5   6  30   -3.75    3.16
   6   4 -30   -0.49    1.98
   6   4 -30   -1.12    2.40
   4  -6 -30    1.18    1.73
   4  -6 -30   -4.25    1.84
  -4   6  30   -2.48    2.61
  -6  -4  30   -1.63    1.88
  -4   6  30    1.50    3.20
  -6  -4  30    6.48    2.74
   3  -6 -30    2.04    1.97
   6   3 -30    1.41    1.89
   6   3 -30    1.02    2.34
   3  -6 -30    6.58    2.29
  -6  -3  30    3.21    2.77
  -3   6  30    9.90    3.58
  -6  -3  30   -0.45    2.08
  -3   6  30    0.55    2.93
   6   2 -30   -0.96    2.06
   6   2 -30    0.87    1.60
   2  -6 -30   -1.99    2.15
  -6  -2  30   -0.43    1.89
  -2   6  30   -1.88    3.58
  -2   6  30   -0.53    2.27
  -6  -2  30   -0.66    2.71
   6   1 -30    4.43    2.35
   6   1 -30    4.79    2.64
  -6  -1  30    4.99    2.55
  -6  -1  30    9.48    3.89
   6   0 -30   -1.80    1.72
   6   0 -30   -0.45    1.91
  -6   0  30    1.62    1.94
  -6   0  30    2.63    3.08
   6  -1 -30    4.57    2.25
   6  -1 -30    3.14    2.11
  -6   1  30   20.44    4.15
  -6   1  30    5.78    2.56
   6  -2 -30    0.45    1.78
   6  -2 -30   -0.81    2.02
  -6   2  30    1.70    2.14
  -6   2  30    4.66    2.59
   6  -3 -30    5.12    1.97
   6  -3 -30    2.75    1.95
  -6   3  30    3.37    3.08
  -6   3  30    2.65    2.40
   6  -4 -30   -2.00    1.82
   6  -4 -30   -0.93    1.70
  -6   4  30   -0.92    2.53
   6  -5 -30   -2.83    2.19
   6  -5 -30    0.40    1.87
  -6   5  30   -3.43    2.91
  -6   5  30   -5.64    4.59
   6  -6 -30    0.93    2.08
   6  -6 -30    1.55    1.79
  -6   6  30    1.64    3.05
  -6   6  30   -6.58    3.90
   6  -7 -30    1.16    1.77
   6  -7 -30   -0.48    1.83
  -6   7  30   -0.58    2.99
  -6   7  30    2.11    3.24
   5  -7 -30   -1.95    1.89
   5  -7 -30    0.84    1.58
  -5   7  30   -3.59    3.43
  -5   7  30    1.09    2.94
   7   3 -30    4.30    2.24
   3  -7 -30    3.41    1.89
   3  -7 -30    5.69    1.86
   7   3 -30    1.61    2.50
  -3   7  30    2.53    3.69
  -7  -3  30    7.42    3.40
  -3   7  30    2.74    3.26
  -7  -3  30    0.44    2.51
   2  -7 -30   14.90    2.53
   7   2 -30    0.49    2.31
   7   2 -30    1.40    2.22
  -2   7  30    4.80    4.30
  -2   7  30   -0.53    3.17
  -7  -2  30    8.31    2.65
  -7  -2  30   11.93    3.34
   7   1 -30    2.73    2.04
   7   1 -30    3.10    1.64
  -7  -1  30   -1.64    1.92
  -7  -1  30   -0.58    2.54
   7   0 -30    0.87    1.85
   7   0 -30    0.46    1.79
  -7   0  30   -4.04    2.76
  -7   0  30    2.13    1.96
   7  -1 -30   -0.99    1.90
   7  -1 -30   -0.42    1.79
  -7   1  30   -0.86    2.35
  -7   1  30   -0.59    2.89
   7  -2 -30    3.98    2.42
   7  -2 -30    2.87    2.25
  -7   2  30    7.53    2.43
  -7   2  30    8.31    3.27
   7  -3 -30   -1.19    2.12
   7  -3 -30    2.01    2.17
  -7   3  30   -0.46    2.20
  -7   3  30    1.81    3.17
   7  -5 -30    0.38    1.93
   7  -5 -30   -0.49    2.07
  -7   5  30   -4.50    2.60
  -7   5  30   -1.24    2.69
   7  -6 -30   -5.41    1.91
   7  -6 -30   -1.93    1.79
  -7   6  30   -1.54    2.97
  -7   6  30   -4.44    2.69
   7  -7 -30   -0.51    2.13
   7  -7 -30    1.98    1.91
  -7   7  30    2.68    2.75
  -7   7  30   -0.67    3.09
   7  -8 -30    0.40    1.92
   7  -8 -30    1.05    2.06
  -7   8  30    2.81    3.48
  -7   8  30    0.62    3.14
   6  -8 -30    5.81    2.04
   6  -8 -30    0.38    1.63
  -6   8  30    2.49    2.90
  -6   8  30    0.71    3.11
   5  -8 -30    5.93    2.36
   5  -8 -30    0.42    1.86
  -5   8  30    5.09    3.08
  -5   8  30    9.94    4.02
   4  -8 -30   10.70    2.70
   4  -8 -30   13.66    2.84
  -8  -4  30   22.28    4.26
  -4   8  30   13.64    4.86
  -4   8  30    0.55    3.50
   8   3 -30    2.47    1.80
   8   3 -30   -1.16    2.55
   3  -8 -30   -0.41    1.51
   3  -8 -30    0.48    1.82
  -3   8  30    2.19    2.52
  -3   8  30    2.62    4.64
  -8  -3  30   -3.14    3.42
  -8  -3  30    1.80    1.92
   8  -3 -30   -1.63    2.43
   8  -3 -30   -0.88    2.28
  -8   3  30   -0.55    2.65
  -8   3  30   -3.81    2.27
   8  -4 -30    7.69    3.15
   8  -4 -30    2.81    3.04
  -8   4  30   15.25    3.50
  -8   4  30    6.91    3.51
   8  -5 -30    4.14    2.11
   8  -5 -30    5.17    2.50
  -8   5  30    3.88    3.36
  -8   5  30   -1.04    2.78
   8  -6 -30   -3.61    2.49
   8  -6 -30   -1.69    1.97
  -8   6  30   -3.73    2.40
  -8   6  30    4.16    3.01
   8  -7 -30   -5.98    2.48
  -8   7  30    3.35    2.56
   6  -9 -30    4.69    2.32
   6  -9 -30    6.57    2.20
  -6   9  30    4.82    3.16
  -6   9  30    3.56    3.51
   5  -9 -30    4.47    1.96
   5  -9 -30    1.63    1.83
  -5   9  30    1.71    2.92
  -5   9  30   -3.95    3.76
   4  -9 -30    1.21    1.81
   4  -9 -30   -0.96    1.81
  -4   9  30    4.48    4.03
  -4   9  30    0.63    2.69
   9   3 -30    2.36    3.23
   9   3 -30    1.27    3.10
   3  -9 -30   16.78    2.69
   3  -9 -30   16.06    2.37
  -3   9  30    5.76    4.49
  -9  -3  30    8.63    3.41
  -9  -3  30   10.24    3.43
  -3   9  30   -3.43    3.80
   9   2 -30   -0.61    2.38
   2  -9 -30   -1.02    2.12
   9   2 -30    2.68    2.67
  -9  -2  30   -0.60    2.47
  -9  -2  30    3.15    2.45
  -2   9  30    5.17    2.78
   9   1 -30   -1.05    2.55
   9   1 -30    3.03    2.33
  -9  -1  30    0.59    2.75
  -9  -1  30   -0.52    2.17
   9   0 -30   -0.62    2.17
   9   0 -30   -0.50    2.45
  -9   0  30   -2.37    2.51
  -9   0  30   -0.50    2.23
   9  -1 -30    3.47    2.36
   9  -1 -30    1.93    2.06
  -9   1  30   -5.43    2.51
  -9   1  30    0.59    2.85
   9  -2 -30   -1.11    2.08
   9  -2 -30   -0.93    2.01
  -9   2  30    2.99    2.89
  -9   2  30    2.03    2.44
   9  -3 -30    2.79    2.60
   9  -3 -30    2.75    3.00
  -9   3  30    8.30    3.09
  -9   3  30   14.03    3.37
   9  -4 -30    0.44    1.99
   9  -4 -30    0.56    2.38
  -9   4  30    3.07    2.53
  -9   4  30    1.62    2.71
   9  -5 -30    1.70    2.10
   9  -5 -30    0.60    2.65
  -9   5  30   10.70    3.11
   6 -10 -30   -3.18    2.32
  -6  10  30   -1.29    3.36
   5 -10 -30    1.65    1.98
   5 -10 -30    4.86    2.29
  -5  10  30    3.80    3.45
  -5  10  30    0.81    3.42
   4 -10 -30    2.86    2.23
   4 -10 -30    8.09    2.14
  -4  10  30   -0.92    4.01
  -4  10  30   -0.65    3.28
  10   3 -30    6.43    3.03
  10   3 -30    1.92    2.66
   3 -10 -30    0.99    1.83
  -3  10  30    3.58    2.97
  -3  10  30    9.80    4.47
 -10  -3  30    2.15    2.76
 -10  -3  30    0.60    2.90
  10   2 -30    2.35    2.84
   2 -10 -30   -1.49    2.07
  10   2 -30    4.93    2.57
  -2  10  30   -0.65    2.94
 -10  -2  30    1.61    2.44
 -10  -2  30    4.20    2.98
  10   1 -30   -3.89    2.71
  10   1 -30    0.69    2.55
 -10  -1  30   -2.38    2.83
 -10  -1  30   -1.63    2.30
  10   0 -30    3.24    2.46
  10   0 -30   -2.04    2.58
 -10   0  30    2.53    2.70
 -10   0  30    4.76    3.18
  10  -1 -30    2.01    2.48
  10  -1 -30   -1.08    2.57
 -10   1  30    1.01    2.12
 -10   1  30   -2.99    2.92
  10  -2 -30    0.52    2.21
  10  -2 -30   -1.99    2.61
 -10   2  30   -0.54    2.39
 -10   2  30    3.62    2.84
  10  -3 -30   -1.34    2.37
  10  -3 -30    1.47    1.82
 -10   3  30    1.67    2.79
 -10   3  30   -0.61    2.38
  -5  11  30    2.14    3.65
   4 -11 -30    0.50    1.96
   4 -11 -30    0.87    1.79
  -4  11  30    1.98    3.63
  -4  11  30    3.59    3.48
  11   3 -30    0.73    3.11
  11   3 -30    0.82    2.87
   3 -11 -30   -1.88    2.01
 -11  -3  30    0.60    2.68
 -11  -3  30   -1.38    3.31
  -3  11  30   -5.59    3.37
  -3  11  30   -2.02    4.09
  11   2 -30   -2.58    2.91
  11   2 -30   -0.74    2.52
 -11  -2  30    7.95    3.45
 -11  -2  30    0.57    2.67
  11   1 -30    2.49    2.86
  11   1 -30    7.86    2.65
 -11  -1  30   -1.29    2.70
 -11  -1  30    0.58    2.77
  11   0 -30    3.69    2.86
 -11   0  30   -5.16    2.62
  11  -1 -30    0.77    2.95
 -11   1  30   -1.67    2.59
   3 -12 -30   -0.98    2.02
  -3  12  30    5.00    3.42
 -12  -3  30   -3.32    2.85
   2   1 -31    0.50    2.07
  -2  -1  31    2.91    2.20
   2   0 -31   -2.42    1.93
  -2   0  31    1.70    2.15
   2  -1 -31   -0.97    1.91
  -2   1  31   -0.88    2.18
   2  -2 -31   -2.03    1.96
   2   2 -31   -3.05    2.32
  -2   2  31    3.64    2.18
  -2  -2  31   -1.22    1.92
   3   2 -31    4.48    2.48
  -3  -2  31    2.67    3.73
  -3  -2  31    1.26    2.33
  -2   3  31    5.71    2.58
  -2   3  31    4.63    3.68
   3   1 -31    4.99    2.57
   3   1 -31    2.70    2.10
  -3  -1  31    6.99    3.86
  -3  -1  31    5.29    2.44
   3   0 -31    0.50    1.81
   3   0 -31    0.48    1.85
  -3   0  31   -1.67    3.44
  -3   0  31    0.42    1.98
   3  -1 -31    3.51    2.54
   3  -1 -31    9.86    2.38
  -3   1  31    4.76    3.55
  -3   1  31    4.76    2.61
   3  -2 -31    3.98    2.17
   2   3 -31    5.59    2.55
   3  -2 -31    7.08    2.54
  -3   2  31   10.30    2.81
  -3   2  31   -4.00    3.81
  -2  -3  31    1.60    2.29
   3  -3 -31   -2.57    2.10
   3   3 -31    0.99    1.84
   3  -3 -31    0.86    1.71
  -3   3  31   -0.46    2.42
  -3   3  31   -4.04    3.12
  -3  -3  31   -2.74    3.48
  -3  -3  31    1.76    2.04
   3  -4 -31    2.59    2.37
   4   3 -31    0.59    2.61
   4   3 -31    3.18    2.16
  -4  -3  31    2.37    2.19
  -3   4  31    2.94    2.41
  -4  -3  31    4.02    3.38
   4   2 -31    4.69    3.13
   2  -4 -31   14.69    3.15
   4   2 -31    5.57    2.90
  -4  -2  31    7.12    2.81
  -4  -2  31   15.64    4.59
  -2   4  31    3.45    3.41
   4   1 -31    3.82    1.83
   4   1 -31    5.46    2.14
  -4  -1  31   -0.79    1.86
  -4  -1  31    1.58    3.39
   4   0 -31   -2.72    1.77
   4   0 -31    0.46    1.88
  -4   0  31   -1.23    2.09
  -4   0  31    2.34    3.54
   4  -1 -31    2.77    2.05
   4  -1 -31    3.92    1.97
  -4   1  31    3.38    2.19
  -4   1  31    7.61    3.24
   4  -2 -31   13.06    3.00
   4  -2 -31    9.21    2.78
   2   4 -31    9.37    2.95
  -2  -4  31    8.58    3.11
  -4   2  31    8.29    3.06
  -4   2  31    9.19    3.74
   4  -3 -31    5.31    1.85
   4  -3 -31    5.12    2.09
   3   4 -31    3.90    2.22
  -3  -4  31    6.11    2.23
  -4   3  31    4.45    3.57
  -4   3  31   -1.81    2.11
   4  -4 -31    1.43    2.13
   4   4 -31   -0.47    1.82
   4   4 -31    0.65    2.56
  -4  -4  31    2.72    2.12
  -4  -4  31   -0.83    3.11
  -4   4  31   -3.25    2.21
   5   4 -31   -1.21    2.66
   4  -5 -31    0.40    1.96
   4  -5 -31  -10.31    2.45
   5   4 -31    1.39    1.74
  -4   5  31   -7.43    2.99
  -5  -4  31   -3.20    3.83
  -5  -4  31    4.96    2.22
   3  -5 -31   12.99    2.94
   5   3 -31    3.18    2.51
   5   3 -31    2.27    2.86
   3  -5 -31    8.64    2.53
  -5  -3  31   10.82    2.89
  -5  -3  31    8.85    4.05
  -3   5  31    6.67    3.73
  -3   5  31    4.51    3.33
   5   2 -31    1.80    1.82
   2  -5 -31    1.55    1.93
   5   2 -31   -0.53    2.13
  -5  -2  31   -0.43    2.20
  -5  -2  31   -0.72    2.73
  -2   5  31    3.15    2.45
   5   1 -31   13.30    3.03
   5   1 -31    5.57    3.14
  -5  -1  31    9.20    3.20
  -5  -1  31   14.17    4.02
   5   0 -31   -0.48    1.84
   5   0 -31   -0.49    2.11
  -5   0  31   -0.46    1.95
  -5   0  31   -2.06    2.82
   5  -1 -31    6.13    2.95
   5  -1 -31    7.07    2.89
  -5   1  31    6.00    3.21
  -5   1  31    8.90    3.18
   5  -2 -31   -2.74    2.26
   5  -2 -31    0.48    2.00
  -5   2  31    0.67    2.92
  -5   2  31    0.47    2.11
   5  -3 -31    7.58    2.61
   5  -3 -31   10.58    2.68
  -5   3  31    4.08    3.04
  -5   3  31    4.51    3.16
   5  -4 -31    0.49    2.00
   5  -4 -31   -0.88    2.05
  -5   4  31   -2.60    3.02
   5  -5 -31   -1.31    2.08
  -5   5  31   -7.90    4.65
   5  -6 -31   -3.01    1.69
   5  -6 -31    0.96    2.01
  -5   6  31    0.56    2.56
  -5   6  31    0.75    3.35
   4  -6 -31   -4.37    2.03
   4  -6 -31   -5.68    1.89
  -6  -4  31    0.71    3.24
  -4   6  31   -5.88    4.77
  -6  -4  31   -0.43    2.18
  -4   6  31   -2.61    2.98
   6   2 -31    2.22    2.11
   6   2 -31   -1.01    2.43
  -2   6  31    1.09    3.29
  -6  -2  31    6.26    2.62
  -6  -2  31    3.73    3.03
   6   1 -31   -1.40    2.03
   6   1 -31    0.46    1.97
  -6  -1  31    0.64    3.22
  -6  -1  31   -0.87    2.27
   6   0 -31    1.36    1.48
   6   0 -31    1.85    1.77
  -6   0  31   -0.84    2.13
  -6   0  31   -3.84    3.01
   6  -1 -31   -2.30    1.92
   6  -1 -31    0.86    1.76
  -6   1  31   -5.85    3.15
  -6   1  31   -4.30    2.11
   6  -2 -31    5.86    2.42
   6  -2 -31    4.66    2.37
  -6   2  31    4.87    2.65
  -6   2  31    3.93    3.23
   6  -4 -31   -5.71    2.27
   6  -4 -31   -1.62    2.03
  -6   4  31   -1.44    2.92
  -6   4  31   -7.42    4.34
   6  -5 -31    0.40    1.74
   6  -5 -31    1.93    2.09
  -6   5  31   -2.54    2.92
  -6   5  31    4.75    3.10
   6  -6 -31   -0.48    1.93
   6  -6 -31    0.39    1.66
  -6   6  31   -0.57    2.85
  -6   6  31   -0.70    3.05
   6  -7 -31   -0.40    1.70
   6  -7 -31   -0.99    2.10
  -6   7  31    2.39    2.70
  -6   7  31   -2.70    2.72
   5  -7 -31   -0.50    2.12
   5  -7 -31    0.41    1.75
  -5   7  31   -1.56    3.30
  -5   7  31   -2.27    2.91
   4  -7 -31   -1.61    1.68
   4  -7 -31    2.53    1.93
  -4   7  31    2.71    2.66
  -7  -4  31   -0.72    3.34
  -4   7  31    5.18    3.68
   7   3 -31   -0.60    2.43
   3  -7 -31   -2.85    1.58
   7   3 -31   -1.47    1.84
   3  -7 -31    3.45    2.01
  -7  -3  31    4.26    3.08
  -7  -3  31    3.67    2.09
  -3   7  31    4.68    3.69
  -3   7  31    0.56    2.96
   7   2 -31    0.52    2.19
   7   2 -31   -0.48    1.83
  -7  -2  31   -5.40    3.25
  -7  -2  31    0.84    1.92
  -7  -1  31    0.61    3.10
  -7  -1  31    1.71    2.33
   7  -1 -31    3.03    2.34
   7  -1 -31   -0.88    2.17
  -7   1  31   -0.45    2.52
  -7   1  31   -0.62    3.22
   7  -2 -31    5.61    2.08
   7  -2 -31   -0.85    1.83
  -7   2  31   -2.51    3.55
  -7   2  31    0.46    2.33
   7  -3 -31   -0.52    1.90
   7  -3 -31    4.57    2.08
  -7   3  31   -1.91    2.79
  -7   3  31   -0.95    2.50
   7  -4 -31   -0.42    1.87
   7  -4 -31    0.52    2.01
  -7   4  31    0.64    3.16
  -7   4  31   -3.46    2.51
   7  -5 -31    1.00    1.86
   7  -5 -31    1.27    1.83
  -7   5  31   -0.52    2.93
  -7   5  31    1.97    2.85
   7  -6 -31   -2.42    1.95
  -7   6  31    7.96    3.09
  -7   6  31   -6.86    3.35
   7  -7 -31    0.52    1.80
  -7   7  31   -1.66    2.70
   6  -8 -31    0.54    2.09
  -6   8  31    1.93    3.18
   5  -8 -31   -1.68    1.67
   5  -8 -31   -2.53    2.11
  -5   8  31    2.32    3.42
  -5   8  31    7.03    2.72
   4  -8 -31    0.82    1.62
   4  -8 -31   -2.83    1.97
  -4   8  31   -4.54    3.79
  -4   8  31    7.50    3.45
   8   3 -31    0.51    1.89
   3  -8 -31    4.73    1.65
   3  -8 -31    3.84    1.93
   8   3 -31    2.86    2.78
  -3   8  31   -0.98    3.78
  -8  -3  31    2.36    2.38
  -3   8  31    0.57    2.82
  -8  -3  31    7.54    3.05
   8   2 -31    1.63    2.54
   8   2 -31   -1.07    2.07
  -8  -2  31   -0.46    2.29
  -8  -2  31    0.65    3.02
   8   1 -31   -0.59    2.00
   8   1 -31   -2.61    2.56
  -8  -1  31   -1.78    2.11
  -8  -1  31    0.66    3.07
   8   0 -31    1.52    2.48
   8   0 -31   -1.68    2.12
  -8   0  31    3.76    2.57
  -8   0  31   -3.69    2.29
   8  -1 -31   -1.94    2.31
   8  -1 -31   -1.64    2.10
  -8   1  31   -2.80    2.34
  -8   1  31   -2.51    2.91
   8  -2 -31   -0.47    2.34
   8  -2 -31   -1.10    2.17
  -8   2  31    0.65    2.91
  -8   2  31    1.90    2.28
   8  -3 -31    5.00    2.11
   8  -3 -31   -3.21    1.82
  -8   3  31    2.93    2.54
  -8   3  31    0.64    3.18
   8  -4 -31    4.49    2.34
   8  -4 -31    2.25    2.05
  -8   4  31    0.51    2.31
  -8   4  31    5.34    3.41
   8  -5 -31    1.74    2.45
  -8   5  31   -1.06    2.50
   5  -9 -31    5.07    2.19
  -5   9  31    1.77    3.31
   4  -9 -31    4.48    2.19
   4  -9 -31    7.02    2.22
  -4   9  31    8.24    4.52
  -4   9  31    3.25    3.75
   3  -9 -31    0.48    1.86
   9   3 -31    1.26    2.34
   9   3 -31   -1.26    2.76
  -3   9  31    2.97    3.82
  -9  -3  31   -0.53    2.60
  -9  -3  31    0.62    2.91
  -3   9  31    0.58    3.19
   9   2 -31   -2.45    2.08
   9   2 -31    1.78    2.48
  -9  -2  31   -2.15    2.49
  -9  -2  31   -2.90    2.54
   9   1 -31    0.57    2.60
   9   1 -31   -0.62    2.51
  -9  -1  31   -0.59    2.91
  -9  -1  31   -0.53    2.36
   9   0 -31    9.23    2.83
   9   0 -31    3.19    2.80
  -9   0  31    8.33    2.99
  -9   0  31    1.00    2.57
   9  -1 -31   -0.56    2.11
   9  -1 -31    0.50    2.33
  -9   1  31   -0.60    2.81
  -9   1  31    2.56    2.67
   9  -2 -31    0.97    2.32
   9  -2 -31    0.55    1.85
  -9   2  31    1.04    2.61
  -9   2  31   -2.41    2.85
   9  -3 -31   -3.31    2.32
  -9   3  31   -3.74    2.54
   4 -10 -31    1.95    2.10
  -4  10  31    5.40    3.17
  10   3 -31    1.42    2.58
  10   3 -31   -0.65    2.83
   3 -10 -31    3.90    1.96
 -10  -3  31   -2.60    3.51
  -3  10  31    1.85    3.06
 -10  -3  31    1.11    2.61
  10   2 -31    0.71    2.32
  10   2 -31   -1.24    2.64
 -10  -2  31    1.11    2.59
 -10  -2  31    1.93    3.07
  10   1 -31    3.44    2.48
  10   1 -31   -0.58    2.68
 -10  -1  31    1.80    3.11
 -10  -1  31    4.24    2.69
  10   0 -31   -4.07    2.63
  10   0 -31    1.65    2.33
 -10   0  31    0.51    2.61
  10  -1 -31    1.34    2.63
 -10   1  31    4.91    2.65
  11   3 -31   -4.89    3.04
 -11  -3  31   -2.52    2.80
  11   2 -31    3.64    2.92
 -11  -2  31   -1.15    2.52
   3   2 -32   -3.60    1.91
  -3  -2  32    0.94    2.07
  -3  -2  32    5.59    4.11
   3   1 -32    3.11    2.35
  -3  -1  32    9.91    4.21
  -3  -1  32    4.05    2.50
   3   0 -32    1.56    2.23
  -3   0  32   -2.72    3.25
  -3   0  32    0.44    2.15
   3  -1 -32    0.43    1.81
   3  -1 -32    5.23    2.33
  -3   1  32    0.46    2.17
  -3   1  32    1.81    3.83
   3  -2 -32    0.86    1.64
   3  -2 -32   -0.53    1.99
  -3   2  32    0.90    3.60
  -3   2  32    0.47    2.24
   3   3 -32   13.04    3.22
   3  -3 -32    9.21    2.70
   3  -3 -32   13.81    3.37
  -3  -3  32    7.08    3.32
  -3   3  32    7.15    3.47
  -3   3  32    0.90    4.79
   4   2 -32    0.98    2.00
   4   2 -32    0.57    1.98
  -4  -2  32    0.81    3.77
  -4  -2  32    5.78    2.25
   4   1 -32    3.82    2.11
   4   1 -32    5.29    2.21
  -4  -1  32   -4.21    4.16
  -4  -1  32    0.42    2.13
   4   0 -32    4.85    2.36
   4   0 -32    2.37    2.38
  -4   0  32   11.69    4.29
  -4   0  32   10.10    2.64
   4  -1 -32   -0.46    2.02
   4  -1 -32    1.89    2.01
  -4   1  32    0.83    3.41
  -4   1  32    0.86    2.37
   4  -2 -32    2.65    1.95
   4  -2 -32    2.38    2.04
  -4   2  32    1.78    2.64
  -4   2  32  -10.83    4.41
   4  -4 -32   -5.45    2.15
   4  -4 -32    1.27    1.96
  -4   4  32   -5.98    4.93
  -4  -4  32    0.82    2.04
  -4  -4  32    0.95    3.84
  -4   4  32   -1.47    2.69
   4  -5 -32    2.54    1.72
   4  -5 -32    0.51    2.13
  -4   5  32    2.57    2.67
  -4   5  32    0.87    3.49
  -5  -4  32    0.88    4.14
   5   3 -32   -0.60    2.24
   3  -5 -32    1.95    1.57
   5   3 -32    0.48    1.81
   3  -5 -32    0.53    2.02
  -5  -3  32    4.94    3.52
  -3   5  32    1.72    2.85
  -3   5  32    6.57    3.60
  -5  -3  32    3.01    2.15
  -5  -2  32    7.62    2.78
  -5  -2  32    1.49    4.27
   5  -3 -32    0.50    2.30
   5  -3 -32    0.89    2.13
  -5   3  32    6.77    2.85
  -5   3  32    8.17    3.48
   5  -4 -32    3.07    2.32
   5  -4 -32    0.44    1.85
  -5   4  32    4.52    3.20
  -5   4  32   -1.60    2.40
   5  -5 -32   -0.86    1.88
   5  -5 -32    5.89    2.17
  -5   5  32   -1.66    3.07
  -5   5  32   -7.63    3.25
   5  -6 -32    0.86    1.65
   5  -6 -32   -0.49    1.86
  -5   6  32    0.76    3.44
  -5   6  32   -3.46    3.17
   4  -6 -32   -4.36    2.04
   4  -6 -32   -0.42    1.59
  -4   6  32    0.89    4.03
  -4   6  32   -3.84    2.84
   3  -6 -32    5.28    2.57
   3  -6 -32    6.69    1.91
   6   3 -32    3.00    2.29
   6   3 -32    0.64    2.97
  -6  -3  32    0.97    2.38
  -3   6  32    3.44    3.05
  -6  -3  32    7.35    3.31
  -3   6  32   -3.86    3.82
   6   2 -32    4.15    1.90
   6   2 -32    0.58    2.40
  -6  -2  32    1.36    2.74
  -6  -2  32   -2.31    2.27
   6   1 -32   -0.48    1.95
   6   1 -32    0.94    1.69
  -6  -1  32    2.64    3.04
  -6  -1  32    0.45    2.22
   6   0 -32    3.34    1.90
   6   0 -32   -3.27    1.92
  -6   0  32    1.79    2.05
  -6   0  32    1.95    3.02
   6  -1 -32    1.35    2.01
   6  -1 -32    0.95    1.96
  -6   1  32    5.02    2.98
  -6   1  32   -0.45    2.07
   6  -2 -32   -0.48    1.78
   6  -2 -32   -0.87    1.90
  -6   2  32    4.61    2.38
  -6   2  32    1.27    2.71
   6  -3 -32    8.69    2.38
   6  -3 -32    3.39    2.21
  -6   3  32    3.85    3.13
  -6   3  32    8.58    2.80
   6  -4 -32   -1.67    1.78
   6  -4 -32   -2.47    2.02
  -6   4  32    1.49    2.65
  -6   4  32    1.95    3.05
   6  -5 -32    6.43    2.31
  -6   5  32   -4.33    2.56
  -6   5  32    2.06    3.16
   6  -6 -32    0.98    1.98
  -6   6  32   -2.94    2.84
   5  -7 -32   -1.54    2.11
  -5   7  32    0.58    2.95
   4  -7 -32   -1.03    2.06
   4  -7 -32   -5.64    1.79
  -4   7  32   -1.83    3.88
  -4   7  32    1.12    2.60
   7   3 -32   -0.59    2.64
   7   3 -32    1.01    1.85
   3  -7 -32   -0.51    2.09
  -3   7  32    1.97    3.88
  -7  -3  32   -2.80    2.87
  -7  -3  32    0.48    2.32
  -3   7  32   -1.72    2.66
   7   2 -32   -0.49    1.84
   7   2 -32    0.54    2.36
  -7  -2  32   -1.31    2.32
  -7  -2  32    4.27    3.12
   7   1 -32    2.18    2.31
   7   1 -32    3.73    2.15
  -7  -1  32    5.70    3.16
  -7  -1  32    0.88    2.42
   7   0 -32    0.51    2.33
   7   0 -32    1.02    2.11
  -7   0  32    0.71    2.98
  -7   0  32    4.12    2.34
   7  -1 -32    0.47    2.12
   7  -1 -32    1.04    2.20
  -7   1  32    1.86    2.41
  -7   1  32    4.23    3.38
   7  -2 -32   -0.45    1.99
   7  -2 -32    1.05    1.97
  -7   2  32    6.19    2.66
  -7   2  32    2.82    3.40
   7  -3 -32    0.53    2.15
   7  -3 -32    1.33    2.04
  -7   3  32   -0.71    2.99
  -7   3  32    2.46    2.65
   7  -4 -32    2.13    2.24
  -7   4  32    1.54    2.53
   7  -5 -32   -0.53    1.91
  -7   5  32    2.15    3.06
   4  -8 -32   -0.97    1.82
  -4   8  32   -0.61    3.15
   8   3 -32    3.19    2.69
   3  -8 -32    0.49    1.89
   8   3 -32   -0.53    2.00
  -8  -3  32    1.95    2.41
  -8  -3  32   -3.37    3.22
  -3   8  32    1.00    3.55
  -3   8  32    1.81    3.00
   8   2 -32   -0.56    2.68
   8   2 -32    2.20    2.19
  -8  -2  32    1.99    2.94
  -8  -2  32   -0.46    2.30
   8   1 -32   -2.36    2.48
   8   1 -32    2.64    2.39
  -8  -1  32    0.46    2.19
  -8  -1  32    0.63    2.68
   8   0 -32    0.99    2.17
   8   0 -32    1.70    2.61
  -8   0  32    2.50    3.21
  -8   0  32    5.73    2.55
   8  -1 -32   -1.67    2.26
   8  -1 -32   -0.95    2.12
  -8   1  32   -2.50    3.22
  -8   1  32   -0.48    2.13
   8  -2 -32    2.24    2.39
   8  -2 -32   -0.46    1.91
  -8   2  32   -0.63    2.97
  -8   2  32    1.96    2.45
   8  -3 -32    1.13    2.30
  -8   3  32   -3.03    2.45
   9   3 -32   -0.64    2.36
   9   3 -32   -1.31    3.27
  -9  -3  32   -5.05    3.33
  -9  -3  32    0.54    2.59
   9   2 -32   -2.50    2.73
   9   2 -32   -6.90    2.68
  -9  -2  32    0.69    3.06
  -9  -2  32    2.20    2.57
   9   1 -32    3.42    2.79
   9   1 -32   -0.64    2.70
  -9  -1  32   -0.53    2.50
  -9  -1  32    7.55    3.31
   9   0 -32   -2.39    2.44
  -9   0  32    2.58    2.27
  -9   0  32   -1.97    2.93
   9  -1 -32    6.63    2.26
  -9   1  32    2.10    2.77
  10   3 -32   -1.42    3.40
  10   3 -32   -0.72    2.53
 -10  -3  32   -0.65    2.51
 -10  -3  32    0.58    2.73
  10   2 -32   -2.14    2.63
 -10  -2  32   -1.15    2.93
   3   2 -33    3.19    2.58
  -3  -2  33    6.23    2.89
   3   1 -33   -1.60    2.20
  -3  -1  33   -1.50    2.51
  -3  -1  33   -7.62    3.92
   3   0 -33    3.75    2.88
  -3   0  33   10.64    3.31
  -3   0  33   10.35    4.57
   3  -1 -33    0.54    2.02
  -3   1  33   -7.38    4.38
  -3   1  33   -2.48    2.53
   3  -2 -33    3.79    2.53
  -3   2  33    9.17    3.07
  -3   2  33   11.16    4.31
   3  -3 -33   -2.18    2.21
   3   3 -33   -1.05    2.00
  -3  -3  33   -0.45    2.19
  -3   3  33   -5.63    3.80
  -3   3  33   -0.56    2.57
   3  -4 -33   13.12    3.42
   4   3 -33    5.48    3.26
   4   3 -33   10.09    3.02
  -4  -3  33   16.25    5.29
  -3   4  33    9.51    5.04
  -3   4  33    9.76    3.81
  -4  -3  33    9.03    3.08
   4   2 -33    2.93    2.08
   4   2 -33    2.38    2.43
  -4  -2  33    1.31    2.35
  -4  -2  33    5.35    3.81
   4   1 -33    5.49    2.82
   4   1 -33    7.40    3.14
  -4  -1  33    6.15    3.00
  -4  -1  33    9.18    4.02
   4   0 -33   -0.53    2.00
   4   0 -33   -2.97    2.00
  -4   0  33   -0.45    2.33
  -4   0  33    0.82    3.50
   4  -1 -33    8.48    2.81
   4  -1 -33    8.64    2.97
  -4   1  33    7.22    3.03
  -4   1  33   11.54    4.17
   4  -2 -33    6.54    2.19
   4  -2 -33    0.48    2.14
  -4   2  33   -0.47    2.21
  -4   2  33    0.85    3.23
   4  -3 -33    4.22    2.79
   4  -3 -33   19.25    3.25
  -4   3  33   14.85    4.63
  -4   3  33    3.44    3.41
   4  -4 -33    2.06    1.91
   4  -4 -33   -2.76    1.94
  -4  -4  33    0.98    3.91
  -4   4  33    2.06    2.50
  -4   4  33    7.08    3.89
   4  -5 -33    2.31    2.14
   4  -5 -33    4.58    2.37
  -4   5  33   -7.11    3.74
  -4   5  33    1.08    2.78
   5   3 -33    6.41    2.46
   3  -5 -33   11.40    3.02
   5   3 -33    1.89    3.17
  -5  -3  33    1.78    4.27
  -3   5  33    1.15    3.21
  -5  -3  33    6.73    2.82
  -3   5  33    0.96    3.88
   5   2 -33    3.82    2.44
   5   2 -33   -2.27    2.69
  -5  -2  33    6.00    2.62
  -5  -2  33   10.92    3.98
   5   1 -33    2.89    1.98
   5   1 -33    4.26    2.50
  -5  -1  33    6.57    3.88
  -5  -1  33    0.95    2.34
   5   0 -33   10.71    3.11
   5   0 -33   11.70    3.12
  -5   0  33   12.99    4.13
  -5   0  33    2.92    3.02
   5  -1 -33    7.38    2.45
   5  -1 -33    1.54    2.12
  -5   1  33    9.74    3.53
  -5   1  33    3.04    2.75
   5  -2 -33    4.62    2.32
   5  -2 -33    8.95    2.65
  -5   2  33    0.52    3.34
  -5   2  33   18.82    3.75
   5  -3 -33   10.42    2.77
   5  -3 -33    9.63    2.56
  -5   3  33   17.61    4.19
  -5   3  33    8.13    3.15
   5  -4 -33    0.51    2.28
   5  -4 -33    2.70    2.06
  -5   4  33    6.65    2.85
  -5   4  33    5.40    3.54
   5  -5 -33    4.03    2.30
  -5   5  33    0.58    3.22
   4  -6 -33    0.51    1.99
  -4   6  33    1.70    2.91
   6   3 -33    1.94    2.52
   6   3 -33   -0.52    2.05
   3  -6 -33    1.05    2.06
  -3   6  33    1.16    3.16
  -6  -3  33   -1.52    2.61
   6   2 -33    4.27    2.33
   6   2 -33    3.03    2.78
  -6  -2  33   12.22    4.02
  -6  -2  33    6.72    2.79
   6   1 -33    0.47    1.94
   6   1 -33    0.58    2.72
  -6  -1  33   -4.39    3.13
  -6  -1  33    1.95    2.25
   6   0 -33    1.10    2.30
   6   0 -33    0.49    1.99
  -6   0  33    1.41    2.93
  -6   0  33    1.86    2.12
   6  -1 -33    1.95    1.86
   6  -1 -33    2.59    2.55
  -6   1  33   -2.34    2.55
  -6   1  33    5.54    3.22
   6  -2 -33    2.36    2.40
   6  -2 -33    9.82    2.37
  -6   2  33    8.93    3.70
  -6   2  33   -2.89    2.51
   6  -3 -33   -0.50    1.81
  -6   3  33    4.48    2.67
   6  -4 -33    3.05    2.14
  -6   4  33   -1.58    2.66
   7   3 -33    1.55    2.04
   7   3 -33    0.60    2.78
  -7  -3  33    5.00    3.35
  -7  -3  33   -0.50    2.30
   7   2 -33    2.29    2.46
   7   2 -33    4.00    2.18
  -7  -2  33   -0.67    2.93
  -7  -2  33    0.91    2.31
   7   1 -33    3.17    2.39
  -7  -1  33    4.87    3.03
  -7  -1  33   -1.84    2.38
   7   0 -33    0.51    2.25
   7   0 -33   -2.09    2.03
  -7   0  33   -4.10    3.32
  -7   0  33   -0.48    2.45
   7  -1 -33    0.49    2.24
   7  -1 -33    0.53    2.17
  -7   1  33    0.69    3.14
  -7   1  33   -0.97    2.24
   7  -2 -33   -3.21    1.83
  -7   2  33   -0.99    2.29
   8   3 -33   -1.65    1.97
   8   3 -33   -0.68    3.16
  -8  -3  33    0.77    3.38
  -8  -3  33   -2.56    2.63
   8   2 -33   -0.60    2.53
   8   2 -33    3.55    2.20
  -8  -2  33   -1.91    2.43
  -8  -2  33   -3.75    3.64
   8   1 -33   -2.32    2.70
   8   1 -33   -0.60    2.39
  -8  -1  33    5.71    2.35
  -8  -1  33    4.11    3.31
   8   0 -33    0.58    2.22
  -8   0  33   -1.48    2.28
   9   3 -33   -3.26    2.56
  -9  -3  33   -3.43    2.91
   9   2 -33    1.93    2.54
  -9  -2  33    2.83    2.82
   3   2 -34    2.18    2.33
  -3  -2  34    2.40    2.53
   3   1 -34   12.43    3.15
  -3  -1  34   12.48    3.38
   3   0 -34    0.55    2.04
  -3   0  34    1.04    2.45
   3  -1 -34    4.45    3.02
  -3   1  34    4.93    3.61
   3  -2 -34    2.23    2.13
  -3   2  34   -0.57    2.75
  -3   2  34    7.78    4.40
   3   3 -34    5.28    2.44
   3  -3 -34    9.52    2.55
  -3   3  34    5.17    3.35
  -3   3  34    6.85    4.39
  -3  -3  34    1.83    2.54
   3  -4 -34    0.56    2.18
   4   3 -34    2.07    2.21
  -3   4  34   -3.50    2.99
  -4  -3  34    0.89    2.49
  -4  -3  34   -1.00    4.21
   4   2 -34    8.34    3.01
  -4  -2  34   16.43    5.37
  -4  -2  34   10.13    3.46
   4   1 -34   -1.01    1.84
   4   1 -34   -3.63    1.98
  -4  -1  34   -0.93    2.15
  -4  -1  34    0.94    3.30
   4   0 -34    6.31    2.99
   4   0 -34   12.62    3.27
  -4   0  34   25.16    4.84
  -4   0  34    2.34    3.10
   4  -1 -34    1.62    2.27
   4  -1 -34    3.12    2.27
  -4   1  34    0.48    2.31
  -4   1  34    0.86    3.22
   4  -2 -34   15.71    3.48
  -4   2  34    5.47    3.41
  -4   2  34   20.45    4.57
   4  -3 -34    0.54    1.91
  -4   3  34   -0.86    3.39
  -4   3  34   -2.57    2.58
   5   3 -34   -3.06    2.08
   5   3 -34    4.12    2.86
  -5  -3  34    4.37    3.53
  -5  -3  34    1.85    2.30
   5   2 -34    0.62    2.73
   5   2 -34    2.51    2.00
  -5  -2  34    4.28    2.29
  -5  -2  34   17.11    4.45
   5   1 -34    2.27    2.64
  -5  -1  34   15.89    4.50
  -5  -1  34    2.97    2.85
   5   0 -34    1.57    2.07
   5   0 -34   -1.03    2.06
  -5   0  34    0.50    2.32
  -5   0  34    0.85    3.56
   5  -1 -34    8.26    2.49
   5  -1 -34    4.58    2.55
  -5   1  34   10.96    4.18
  -5   1  34    5.71    2.83
   5  -2 -34   -0.49    2.27
   5  -2 -34    1.06    1.94
  -5   2  34   -2.14    2.67
   6   3 -34    2.01    2.92
   6   3 -34    4.25    2.37
  -6  -3  34   10.01    3.11
  -6  -3  34   10.70    4.23
   6   2 -34    6.50    2.42
   6   2 -34    3.11    3.04
  -6  -2  34    6.04    2.74
  -6  -2  34    8.75    3.84
   6   1 -34    3.51    2.59
   6   1 -34    0.49    1.73
  -6  -1  34   -1.01    2.46
  -6  -1  34    5.33    3.48
   6   0 -34    2.20    2.53
   6   0 -34    2.00    2.17
  -6   0  34    3.96    2.62
   6  -1 -34    1.52    2.03
  -6   1  34   -2.96    2.44
   7   3 -34   -0.73    3.21
   7   3 -34   -2.13    2.08
  -7  -3  34    1.56    3.46
  -7  -3  34   -1.04    2.22
   7   2 -34   -1.88    2.86
   7   2 -34    4.63    2.08
  -7  -2  34    6.59    2.54
   7   1 -34    1.96    1.99
   7   1 -34    0.54    1.86
  -7  -1  34   -1.43    2.30
   8   3 -34   -1.13    2.22
  -8  -3  34    2.65    2.64
   4   3 -35    6.16    2.39
  -4  -3  35    2.34    2.74
   4   2 -35    1.62    2.22
  -4  -2  35    6.04    4.00
  -4  -2  35    2.83    2.59
   4   1 -35    2.54    2.54
  -4  -1  35    4.39    3.03
  -4  -1  35   11.64    4.41
   4   0 -35   -1.05    1.97
  -4   0  35    0.97    3.49
  -4   0  35   -0.49    2.53
   4  -1 -35    6.84    2.40
  -4   1  35    1.50    2.81
   5   3 -35    1.06    2.00
   5   3 -35   -2.07    2.43
  -5  -3  35    2.89    3.72
  -5  -3  35   -0.97    2.39
   5   2 -35    0.66    2.64
   5   2 -35   -2.63    2.18
  -5  -2  35    0.49    2.14
  -5  -2  35    2.67    4.04
   5   1 -35    0.51    1.94
  -5  -1  35    2.03    2.41
   5   0 -35    2.05    2.00
  -5   0  35   -1.58    2.81
   6   3 -35   -0.56    2.04
   6   3 -35   -0.70    3.02
  -6  -3  35    5.37    3.03
   6   2 -35    4.12    2.22
  -6  -2  35    2.62    2.87
   4   3 -36   -0.52    2.00
  -4  -3  36    1.01    2.72
   4   2 -36    4.24    2.15
   0   0   0    0.00    0.00
;
_shelx_hkl_checksum              57407
_shelx_fab_checksum              90737
_shelx_fab_file
;
    1    2    0    271.81      0.00
    0    2    0   -203.80      0.00
    1    3    0     16.28      0.00
    2    3    0    144.51      0.00
    2    4    0     46.46      0.00
    1    4    0     75.40      0.00
    0    4    0     23.80      0.00
    2    5    0     47.74      0.00
    1    5    0    -48.62      0.00
    2    6    0     78.80      0.00
    1    6    0    -43.76      0.00
    0    6    0      2.75      0.00
    3    6    0     -4.79      0.00
    3    7    0     75.84      0.00
    2    7    0    -40.57      0.00
    1    7    0     19.48      0.00
    4    8    0     13.31      0.00
    3    8    0      3.06      0.00
    2    8    0    -23.12      0.00
    1    8    0    -12.93      0.00
    0    8    0     18.07      0.00
    4    9    0      4.12      0.00
    3    9    0     18.16      0.00
    2    9    0     11.41      0.00
    1    9    0     21.93      0.00
    5   10    0     -0.34      0.00
    4   10    0     -2.69      0.00
    3   10    0     -0.32      0.00
    2   10    0     -1.35      0.00
    1   10    0    -16.92      0.00
    0   10    0     -2.97      0.00
    5   11    0    -11.04      0.00
    4   11    0     -4.08      0.00
    3   11    0      0.95      0.00
    2   11    0      1.32      0.00
    1   11    0     -5.91      0.00
    5   12    0     -1.11      0.00
    4   12    0     -2.14      0.00
    3   12    0     -6.11      0.00
    2   12    0     -6.73      0.00
    1   12    0     -3.90      0.00
    0   12    0     20.29      0.00
    6   13    0     11.71      0.00
    5   13    0      6.35      0.00
    4   13    0      5.01      0.00
    3   13    0      3.30      0.00
    2   13    0      8.96      0.00
    1   13    0     -2.42      0.00
    5   14    0      2.48      0.00
    3   14    0      3.86      0.00
    2   14    0     -8.11      0.00
    1   14    0     -0.46      0.00
    0   14    0      1.62      0.00
    3   15    0      0.13      0.00
    1   15    0     -8.96      0.00
    2   15    0     -1.88      0.00
    4   15    0      5.29      0.00
    5   15    0     -4.38      0.00
    3   16    0      2.79      0.00
    2   16    0      5.34      0.00
    1   16    0      0.17      0.00
    0   16    0     -5.35      0.00
    4   16    0     -5.06      0.00
    5   16    0      0.65      0.00
    1   17    0     -0.92      0.00
    2   17    0      4.99      0.00
    3   17    0     12.19      0.00
    4   17    0     -0.17      0.00
    5   17    0      8.11      0.00
    0   18    0     -3.44      0.00
    1   18    0      2.52      0.00
    2   18    0      2.53      0.00
    3   18    0      1.15      0.00
    4   18    0      1.99      0.00
    5   18    0     -1.44      0.00
    2   19    0      2.55      0.00
    3   19    0      7.44      0.00
    4   19    0     -0.36      0.00
    5   19    0     -1.72      0.00
    3   20    0     22.40      0.00
    4   20    0     -3.32      0.00
    5   20    0     -5.92      0.00
    1    2    1     22.57      0.00
    1    3    1    145.51      0.00
    0    3    1    -58.92      0.00
    2    4    1     42.92      0.00
    1    4    1     10.00      0.00
    3    5    1     -6.00      0.00
    2    5    1     50.69      0.00
    1    5    1     -9.06      0.00
    0    5    1     17.46      0.00
    3    6    1      3.39      0.00
    2    6    1    -44.53      0.00
    1    6    1     -1.65      0.00
    4    7    1     -0.10      0.00
    3    7    1      3.19      0.00
    2    7    1     13.43      0.00
    1    7    1    -27.26      0.00
    0    7    1    -41.64      0.00
    4    8    1     -0.32      0.00
    3    8    1     -0.68      0.00
    2    8    1     -4.81      0.00
    1    8    1     -5.52      0.00
    5    9    1      4.15      0.00
    4    9    1      7.72      0.00
    3    9    1      0.48      0.00
    2    9    1     -0.67      0.00
    1    9    1     -6.09      0.00
    0    9    1    -16.11      0.00
    5   10    1    -10.98      0.00
    4   10    1     13.63      0.00
    3   10    1    -10.58      0.00
    2   10    1      0.22      0.00
    1   10    1     15.53      0.00
    5   11    1    -11.73      0.00
    4   11    1      3.73      0.00
    3   11    1      6.25      0.00
    2   11    1     -2.82      0.00
    1   11    1     -2.28      0.00
    0   11    1      5.35      0.00
    6   12    1      0.13      0.00
    5   12    1     -3.81      0.00
    4   12    1     -0.53      0.00
    3   12    1      1.12      0.00
    2   12    1     -0.36      0.00
    1   12    1     -3.08      0.00
    5   13    1      9.16      0.00
    4   13    1     -3.26      0.00
    3   13    1     -1.12      0.00
    2   13    1      1.57      0.00
    1   13    1      5.17      0.00
    0   13    1     28.65      0.00
    5   14    1    -12.27      0.00
    3   14    1      1.54      0.00
    2   14    1      3.73      0.00
    1   14    1      3.29      0.00
    5   15    1      0.12      0.00
    4   15    1     -2.35      0.00
    3   15    1      0.74      0.00
    2   15    1      6.57      0.00
    1   15    1      1.37      0.00
    0   15    1     -8.96      0.00
    4   16    1     -0.70      0.00
    3   16    1     -1.13      0.00
    2   16    1     -4.32      0.00
    1   16    1     -1.42      0.00
    5   16    1     -0.86      0.00
    6   16    1     20.94      0.00
    3   17    1      1.71      0.00
    2   17    1      3.62      0.00
    1   17    1     -0.69      0.00
    0   17    1     -5.65      0.00
    4   17    1     -0.45      0.00
    5   17    1     -3.45      0.00
    6   17    1    -17.21      0.00
    1   18    1     -0.23      0.00
    2   18    1      0.71      0.00
    3   18    1      0.88      0.00
    4   18    1      1.44      0.00
    5   18    1     -1.30      0.00
    0   19    1    -15.53      0.00
    1   19    1     -3.64      0.00
    2   19    1     -3.42      0.00
    3   19    1     -1.17      0.00
    4   19    1     -0.90      0.00
    5   19    1     -3.25      0.00
    2   20    1      1.93      0.00
    3   20    1     -5.09      0.00
    4   20    1      4.18      0.00
    5   20    1     -2.23      0.00
    1    1    2   -361.61      0.00
    1    2    2   -106.33      0.00
    0    2    2     17.13      0.00
    2    2    2     60.05      0.00
    2    3    2    -50.43      0.00
    1    3    2     10.13      0.00
    2    4    2    -33.72      0.00
    1    4    2     61.02      0.00
    0    4    2     15.24      0.00
    3    5    2    -16.52      0.00
    2    5    2    -51.14      0.00
    1    5    2     16.08      0.00
    3    6    2     -4.36      0.00
    2    6    2     16.18      0.00
    1    6    2      0.11      0.00
    0    6    2    -36.73      0.00
    4    6    2    -10.35      0.00
    4    7    2     -0.11      0.00
    3    7    2     -6.67      0.00
    2    7    2      5.84      0.00
    1    7    2    -32.97      0.00
    4    8    2     -7.49      0.00
    3    8    2     -3.19      0.00
    1    8    2      8.93      0.00
    0    8    2     -3.65      0.00
    5    8    2    -20.04      0.00
    5    9    2     -7.78      0.00
    4    9    2     13.42      0.00
    3    9    2     -5.82      0.00
    2    9    2     -4.92      0.00
    1    9    2      1.55      0.00
    5   10    2     -1.92      0.00
    4   10    2     -0.72      0.00
    3   10    2      1.01      0.00
    2   10    2      3.25      0.00
    1   10    2      1.14      0.00
    0   10    2      2.93      0.00
    6   11    2     -2.10      0.00
    5   11    2     -2.35      0.00
    4   11    2      2.03      0.00
    3   11    2     -1.21      0.00
    2   11    2      1.33      0.00
    1   11    2      2.36      0.00
    6   12    2     -6.88      0.00
    5   12    2     -5.05      0.00
    4   12    2     -4.10      0.00
    3   12    2     -0.33      0.00
    2   12    2     -1.21      0.00
    1   12    2     -1.90      0.00
    0   12    2      1.97      0.00
    5   13    2     -8.03      0.00
    4   13    2     -6.95      0.00
    3   13    2     -4.77      0.00
    2   13    2     -0.29      0.00
    1   13    2     -5.38      0.00
    6   13    2     41.41      0.00
    4   14    2     10.64      0.00
    3   14    2     -0.70      0.00
    2   14    2     -2.86      0.00
    1   14    2      4.33      0.00
    0   14    2     -6.74      0.00
    5   14    2      5.57      0.00
    6   14    2    -25.13      0.00
    5   15    2     -7.25      0.00
    4   15    2     -2.29      0.00
    3   15    2     -0.46      0.00
    2   15    2      2.22      0.00
    1   15    2      1.26      0.00
    6   15    2     23.36      0.00
    5   16    2      0.22      0.00
    4   16    2     -2.06      0.00
    3   16    2      2.40      0.00
    2   16    2      2.14      0.00
    1   16    2     -1.94      0.00
    0   16    2     -1.90      0.00
    6   16    2      2.54      0.00
    4   17    2      8.59      0.00
    3   17    2      3.27      0.00
    2   17    2     -0.59      0.00
    1   17    2      4.40      0.00
    5   17    2     -3.57      0.00
    6   17    2     -0.77      0.00
    2   18    2     -1.24      0.00
    1   18    2     -1.39      0.00
    0   18    2      0.58      0.00
    3   18    2     -5.14      0.00
    4   18    2     -6.70      0.00
    5   18    2      4.29      0.00
    6   18    2     -7.64      0.00
    1   19    2     -0.88      0.00
    2   19    2     -5.79      0.00
    3   19    2     -4.31      0.00
    4   19    2     -1.62      0.00
    5   19    2      2.51      0.00
    6   19    2     -3.09      0.00
    1   20    2      7.26      0.00
    2   20    2     -4.34      0.00
    3   20    2      9.16      0.00
    4   20    2      3.09      0.00
    5   20    2      0.11      0.00
    0    1    3    100.65      0.00
    1    2    3   -109.23      0.00
    2    3    3    -10.66      0.00
    1    3    3    -89.74      0.00
    0    3    3    103.48      0.00
    3    4    3    -12.49      0.00
    2    4    3    -36.73      0.00
    1    4    3    -36.19      0.00
    3    5    3     10.18      0.00
    2    5    3   -111.43      0.00
    1    5    3      2.35      0.00
    0    5    3     40.48      0.00
    4    5    3     10.96      0.00
    4    6    3     -8.39      0.00
    3    6    3      6.47      0.00
    2    6    3     17.97      0.00
    1    6    3    -13.70      0.00
    3    7    3      0.27      0.00
    2    7    3     25.62      0.00
    1    7    3     17.74      0.00
    0    7    3      1.46      0.00
    4    7    3    -15.52      0.00
    5    7    3     -1.54      0.00
    5    8    3     -7.59      0.00
    4    8    3     -9.60      0.00
    3    8    3     -7.78      0.00
    1    8    3     -8.07      0.00
    5    9    3      7.25      0.00
    4    9    3     -7.63      0.00
    3    9    3    -11.12      0.00
    2    9    3      7.46      0.00
    1    9    3      2.05      0.00
    0    9    3     14.13      0.00
    4   10    3     -0.52      0.00
    3   10    3      8.61      0.00
    2   10    3      1.26      0.00
    1   10    3     -0.74      0.00
    5   10    3     -5.14      0.00
    6   11    3     -0.34      0.00
    5   11    3     -1.91      0.00
    4   11    3     -4.88      0.00
    3   11    3      3.12      0.00
    2   11    3     -0.22      0.00
    1   11    3     -4.68      0.00
    0   11    3    -12.42      0.00
    5   12    3     -9.67      0.00
    4   12    3      0.94      0.00
    3   12    3      2.35      0.00
    2   12    3      1.77      0.00
    1   12    3     -4.24      0.00
    5   13    3      7.00      0.00
    4   13    3     -1.49      0.00
    3   13    3      1.03      0.00
    2   13    3     -7.37      0.00
    1   13    3     -4.48      0.00
    0   13    3      9.27      0.00
    6   13    3     -1.91      0.00
    3   14    3      3.06      0.00
    2   14    3      3.77      0.00
    1   14    3     -4.67      0.00
    4   14    3     -5.54      0.00
    5   14    3      1.34      0.00
    6   14    3     27.95      0.00
    5   15    3      9.92      0.00
    4   15    3      3.20      0.00
    3   15    3     -0.98      0.00
    2   15    3     -6.71      0.00
    1   15    3     -4.04      0.00
    0   15    3     -0.39      0.00
    6   15    3     -2.73      0.00
    4   16    3     -2.64      0.00
    3   16    3      1.78      0.00
    2   16    3      5.66      0.00
    1   16    3      0.89      0.00
    5   16    3     -1.07      0.00
    6   16    3      3.56      0.00
    5   17    3     -4.38      0.00
    4   17    3     -7.16      0.00
    3   17    3      4.60      0.00
    2   17    3     -0.92      0.00
    1   17    3     -3.40      0.00
    0   17    3      0.94      0.00
    6   17    3     -0.31      0.00
    3   18    3      4.38      0.00
    2   18    3     -3.83      0.00
    1   18    3     -1.62      0.00
    4   18    3     -0.27      0.00
    5   18    3      0.98      0.00
    6   18    3     -5.50      0.00
    2   19    3     -0.75      0.00
    1   19    3     -6.02      0.00
    0   19    3      1.57      0.00
    3   19    3     -2.30      0.00
    4   19    3      6.69      0.00
    5   19    3      2.63      0.00
    6   19    3      2.42      0.00
    1   20    3     -3.50      0.00
    2   20    3      5.76      0.00
    3   20    3     -1.32      0.00
    4   20    3      2.42      0.00
    5   20    3     -3.88      0.00
    2   21    3     -1.32      0.00
    0    0    4    -48.08      0.00
    1    1    4     50.89      0.00
    1    2    4    -14.85      0.00
    0    2    4     48.20      0.00
    2    2    4     -8.11      0.00
    2    3    4     16.56      0.00
    1    3    4     50.56      0.00
    3    3    4    -44.84      0.00
    3    4    4     13.37      0.00
    2    4    4     14.37      0.00
    1    4    4    -24.09      0.00
    0    4    4    -83.65      0.00
    4    4    4    -31.33      0.00
    3    5    4     15.71      0.00
    2    5    4    -28.59      0.00
    1    5    4    -55.58      0.00
    4    5    4     -8.63      0.00
    4    6    4     39.47      0.00
    3    6    4     28.59      0.00
    2    6    4    -18.06      0.00
    1    6    4     16.58      0.00
    0    6    4     33.19      0.00
    5    6    4    -12.55      0.00
    5    7    4    -13.61      0.00
    3    7    4    -13.41      0.00
    2    7    4     17.54      0.00
    1    7    4      2.92      0.00
    5    8    4      2.79      0.00
    4    8    4      2.26      0.00
    3    8    4     -0.09      0.00
    2    8    4      4.52      0.00
    5    9    4     -4.82      0.00
    4    9    4     -5.12      0.00
    3    9    4      7.90      0.00
    2    9    4    -18.31      0.00
    1    9    4      5.77      0.00
    6    9    4    -22.77      0.00
    5   10    4     -9.25      0.00
    4   10    4      3.92      0.00
    3   10    4     -3.94      0.00
    2   10    4     -3.00      0.00
    1   10    4      0.62      0.00
    0   10    4    -12.98      0.00
    3   11    4      3.24      0.00
    2   11    4      2.57      0.00
    1   11    4    -11.37      0.00
    5   11    4      5.46      0.00
    6   11    4     -9.21      0.00
    4   12    4      7.46      0.00
    3   12    4      6.78      0.00
    2   12    4      2.26      0.00
    1   12    4     -5.38      0.00
    0   12    4     -4.36      0.00
    5   12    4     -6.25      0.00
    4   13    4      0.08      0.00
    3   13    4      4.51      0.00
    2   13    4      1.01      0.00
    1   13    4      2.96      0.00
    5   13    4      4.06      0.00
    6   13    4      2.93      0.00
    5   14    4     -0.11      0.00
    4   14    4      3.75      0.00
    1   14    4     -7.00      0.00
    0   14    4     -2.78      0.00
    2   14    4     -6.11      0.00
    3   14    4      1.50      0.00
    6   14    4     -6.99      0.00
    5   15    4     -7.57      0.00
    4   15    4     -4.25      0.00
    3   15    4      1.33      0.00
    2   15    4      0.75      0.00
    1   15    4     -4.19      0.00
    6   15    4     23.04      0.00
    4   16    4     -7.08      0.00
    3   16    4      0.24      0.00
    2   16    4     -3.93      0.00
    1   16    4      1.04      0.00
    0   16    4      7.10      0.00
    6   16    4      2.97      0.00
    5   17    4     -6.41      0.00
    4   17    4     -1.83      0.00
    3   17    4      0.52      0.00
    2   17    4      2.02      0.00
    1   17    4      2.59      0.00
    6   17    4     -7.49      0.00
    5   18    4     -8.32      0.00
    4   18    4      0.81      0.00
    3   18    4      3.74      0.00
    2   18    4     -6.89      0.00
    1   18    4      1.53      0.00
    0   18    4      1.94      0.00
    6   18    4      1.50      0.00
    3   19    4     -3.00      0.00
    2   19    4     -5.66      0.00
    1   19    4     -4.10      0.00
    4   19    4      0.24      0.00
    5   19    4      3.70      0.00
    6   19    4      0.52      0.00
    2   20    4      2.21      0.00
    1   20    4      1.82      0.00
    0   20    4      0.88      0.00
    3   20    4     -1.30      0.00
    4   20    4     13.01      0.00
    1   21    4     -5.06      0.00
    0    1    5    -56.81      0.00
    1    2    5     77.83      0.00
    2    3    5     55.97      0.00
    1    3    5    -58.50      0.00
    0    3    5     46.20      0.00
    3    4    5    -42.74      0.00
    2    4    5     -4.29      0.00
    1    4    5     13.44      0.00
    4    5    5     12.37      0.00
    3    5    5     -5.08      0.00
    2    5    5     31.76      0.00
    1    5    5      4.43      0.00
    0    5    5      9.07      0.00
    4    6    5      4.99      0.00
    3    6    5      9.30      0.00
    2    6    5     22.28      0.00
    1    6    5     25.27      0.00
    5    7    5     -9.69      0.00
    4    7    5     -5.20      0.00
    3    7    5     10.24      0.00
    2    7    5      3.00      0.00
    1    7    5     12.26      0.00
    0    7    5     29.96      0.00
    6    8    5     17.06      0.00
    5    8    5      0.76      0.00
    4    8    5    -10.72      0.00
    3    8    5    -12.14      0.00
    2    8    5      4.54      0.00
    1    8    5     -4.93      0.00
    6    9    5      4.89      0.00
    5    9    5     -1.42      0.00
    4    9    5      2.94      0.00
    3    9    5    -25.88      0.00
    2    9    5      7.30      0.00
    1    9    5     -4.04      0.00
    0    9    5     -9.71      0.00
    6   10    5    -10.21      0.00
    4   10    5      0.76      0.00
    3   10    5     12.73      0.00
    2   10    5     -0.75      0.00
    1   10    5    -14.09      0.00
    5   10    5     -4.08      0.00
    4   11    5      0.07      0.00
    3   11    5     12.55      0.00
    2   11    5      1.81      0.00
    1   11    5      0.98      0.00
    0   11    5     -5.22      0.00
    5   11    5     -2.47      0.00
    6   11    5      3.07      0.00
    4   12    5      1.34      0.00
    3   12    5      0.00      0.00
    2   12    5     -5.11      0.00
    1   12    5      7.73      0.00
    6   12    5      3.66      0.00
    4   13    5      5.47      0.00
    3   13    5     -7.15      0.00
    2   13    5      1.91      0.00
    1   13    5     -4.93      0.00
    0   13    5      8.39      0.00
    5   13    5     -4.61      0.00
    4   14    5      7.40      0.00
    2   14    5     -1.42      0.00
    1   14    5      2.10      0.00
    5   14    5      2.39      0.00
    6   14    5     -0.32      0.00
    7   14    5     23.93      0.00
    5   15    5      7.86      0.00
    4   15    5     -0.98      0.00
    3   15    5      3.61      0.00
    2   15    5      1.63      0.00
    1   15    5     -2.98      0.00
    0   15    5     10.54      0.00
    6   15    5      9.27      0.00
    4   16    5     -3.66      0.00
    3   16    5     -1.73      0.00
    2   16    5      7.59      0.00
    1   16    5      6.20      0.00
    5   16    5     21.03      0.00
    6   16    5      2.92      0.00
    7   16    5     10.55      0.00
    5   17    5      1.40      0.00
    4   17    5     -1.13      0.00
    3   17    5      5.43      0.00
    2   17    5      4.79      0.00
    1   17    5     -1.54      0.00
    0   17    5     -3.60      0.00
    6   17    5     -2.73      0.00
    7   17    5     -3.39      0.00
    4   18    5      4.01      0.00
    3   18    5      4.32      0.00
    2   18    5     -0.69      0.00
    1   18    5     -4.39      0.00
    6   18    5      3.26      0.00
    4   19    5     -0.88      0.00
    3   19    5     -6.41      0.00
    2   19    5     -0.51      0.00
    1   19    5      4.00      0.00
    0   19    5      2.01      0.00
    5   19    5     -1.93      0.00
    6   19    5     -4.33      0.00
    3   20    5      2.77      0.00
    2   20    5     -0.25      0.00
    1   20    5     -2.81      0.00
    4   20    5     10.13      0.00
    1   21    5     -6.26      0.00
    0    0    6   -104.23      0.00
    1    1    6     22.26      0.00
    1    2    6    -16.90      0.00
    0    2    6    -68.45      0.00
    2    2    6     -2.78      0.00
    2    3    6    -28.76      0.00
    1    3    6     62.29      0.00
    3    3    6     63.50      0.00
    3    4    6     10.67      0.00
    2    4    6     13.33      0.00
    1    4    6    -63.71      0.00
    0    4    6     63.23      0.00
    4    4    6     36.42      0.00
    4    5    6      7.30      0.00
    3    5    6    -21.37      0.00
    2    5    6    -31.35      0.00
    1    5    6    -17.75      0.00
    5    5    6     38.64      0.00
    5    6    6      5.45      0.00
    4    6    6     11.81      0.00
    3    6    6     27.65      0.00
    2    6    6     -9.42      0.00
    1    6    6     15.91      0.00
    0    6    6     45.92      0.00
    6    6    6      4.93      0.00
    6    7    6      3.38      0.00
    5    7    6     -9.79      0.00
    4    7    6    -18.63      0.00
    2    7    6     18.30      0.00
    1    7    6      9.71      0.00
    6    8    6     -6.20      0.00
    5    8    6      5.79      0.00
    4    8    6     -7.23      0.00
    3    8    6     -1.86      0.00
    2    8    6      7.22      0.00
    1    8    6     -5.20      0.00
    0    8    6     11.02      0.00
    6    9    6     11.18      0.00
    5    9    6      0.75      0.00
    4    9    6     -8.39      0.00
    3    9    6      8.20      0.00
    2    9    6      1.82      0.00
    1    9    6    -13.36      0.00
    7   10    6     -2.11      0.00
    6   10    6      4.44      0.00
    5   10    6      6.67      0.00
    4   10    6     13.74      0.00
    3   10    6      4.81      0.00
    2   10    6      3.00      0.00
    1   10    6     -1.43      0.00
    0   10    6     -2.01      0.00
    4   11    6     -0.81      0.00
    2   11    6      8.24      0.00
    1   11    6     -0.05      0.00
    5   11    6    -10.59      0.00
    6   11    6     -5.48      0.00
    4   12    6     -9.04      0.00
    3   12    6     -4.13      0.00
    2   12    6      0.42      0.00
    1   12    6     -3.41      0.00
    0   12    6     -3.50      0.00
    6   12    6      8.89      0.00
    7   12    6     -2.92      0.00
    3   13    6      3.95      0.00
    2   13    6     -2.11      0.00
    1   13    6      8.04      0.00
    4   13    6     -4.37      0.00
    5   13    6      2.29      0.00
    6   13    6      4.32      0.00
    7   13    6      6.44      0.00
    4   14    6      3.90      0.00
    3   14    6      2.12      0.00
    1   14    6      2.67      0.00
    0   14    6      6.66      0.00
    2   14    6     -2.89      0.00
    5   14    6      0.12      0.00
    6   14    6      6.61      0.00
    7   14    6      5.93      0.00
    4   15    6     -3.28      0.00
    3   15    6     -1.65      0.00
    2   15    6      2.03      0.00
    1   15    6      5.16      0.00
    5   15    6      3.16      0.00
    6   15    6      3.85      0.00
    3   16    6      4.46      0.00
    2   16    6      4.97      0.00
    1   16    6     -2.92      0.00
    0   16    6      6.21      0.00
    5   16    6     -8.82      0.00
    6   16    6     -0.69      0.00
    7   16    6      6.70      0.00
    4   17    6     -5.34      0.00
    3   17    6      0.71      0.00
    2   17    6     -0.55      0.00
    1   17    6     -3.65      0.00
    5   17    6     -3.84      0.00
    6   17    6      0.85      0.00
    7   17    6      0.92      0.00
    4   18    6      0.79      0.00
    3   18    6     -2.82      0.00
    2   18    6     -3.28      0.00
    1   18    6     -2.72      0.00
    0   18    6      4.97      0.00
    5   18    6     -6.30      0.00
    6   18    6      4.62      0.00
    7   18    6     -1.00      0.00
    4   19    6      2.22      0.00
    3   19    6      0.75      0.00
    2   19    6     -2.52      0.00
    1   19    6      1.98      0.00
    5   19    6      8.59      0.00
    6   19    6     -0.94      0.00
    4   20    6     -1.35      0.00
    3   20    6      4.09      0.00
    2   20    6      2.66      0.00
    1   20    6      3.96      0.00
    0   20    6     -3.00      0.00
    0    1    7    -19.94      0.00
    1    2    7    -22.11      0.00
    2    3    7    -49.89      0.00
    1    3    7    -39.35      0.00
    0    3    7     25.22      0.00
    3    4    7    -10.88      0.00
    2    4    7     25.62      0.00
    1    4    7     23.20      0.00
    4    5    7     -1.51      0.00
    3    5    7    -12.28      0.00
    2    5    7     -1.79      0.00
    1    5    7    -14.96      0.00
    0    5    7    -86.57      0.00
    5    6    7      4.43      0.00
    4    6    7      2.78      0.00
    3    6    7     -1.55      0.00
    2    6    7      9.30      0.00
    1    6    7     -4.92      0.00
    6    7    7    -12.69      0.00
    5    7    7     -2.39      0.00
    4    7    7     -2.93      0.00
    3    7    7     -2.43      0.00
    2    7    7    -17.46      0.00
    1    7    7      8.15      0.00
    0    7    7     29.83      0.00
    7    8    7      5.91      0.00
    6    8    7      0.36      0.00
    5    8    7      7.10      0.00
    4    8    7    -11.01      0.00
    3    8    7     -1.15      0.00
    2    8    7     -9.65      0.00
    1    8    7     -2.42      0.00
    7    9    7      4.72      0.00
    6    9    7     -2.77      0.00
    5    9    7     -1.53      0.00
    4    9    7      3.05      0.00
    3    9    7      3.78      0.00
    2    9    7      1.79      0.00
    1    9    7     -1.65      0.00
    0    9    7     -2.69      0.00
    7   10    7      9.88      0.00
    6   10    7      1.57      0.00
    4   10    7      1.19      0.00
    3   10    7      2.96      0.00
    2   10    7     11.10      0.00
    1   10    7      2.56      0.00
    5   10    7    -10.82      0.00
    3   11    7     -0.11      0.00
    2   11    7     -4.00      0.00
    1   11    7      4.19      0.00
    0   11    7      7.62      0.00
    4   11    7      4.59      0.00
    5   11    7     10.80      0.00
    6   11    7      7.29      0.00
    7   11    7     -9.05      0.00
    4   12    7     -4.64      0.00
    3   12    7    -10.68      0.00
    2   12    7      0.01      0.00
    1   12    7     -6.95      0.00
    5   12    7      0.33      0.00
    6   12    7    -15.47      0.00
    7   12    7     20.24      0.00
    4   13    7     -0.12      0.00
    2   13    7      4.36      0.00
    3   13    7      4.50      0.00
    5   13    7      2.28      0.00
    6   13    7      3.28      0.00
    7   13    7     13.11      0.00
    4   14    7      4.90      0.00
    3   14    7      2.49      0.00
    2   14    7      7.58      0.00
    5   14    7      0.07      0.00
    6   14    7     -1.82      0.00
    7   14    7      1.45      0.00
    4   15    7     -3.98      0.00
    3   15    7     -3.01      0.00
    2   15    7     -4.04      0.00
    1   15    7     -2.94      0.00
    0   15    7     -0.54      0.00
    5   15    7     -5.71      0.00
    6   15    7    -14.76      0.00
    7   15    7     28.14      0.00
    3   16    7      1.04      0.00
    2   16    7     -2.81      0.00
    1   16    7      0.33      0.00
    5   16    7     -0.38      0.00
    6   16    7      7.85      0.00
    7   16    7      5.02      0.00
    4   17    7     -2.30      0.00
    3   17    7     -2.91      0.00
    2   17    7      1.26      0.00
    1   17    7     -5.27      0.00
    0   17    7      1.19      0.00
    5   17    7     -3.18      0.00
    6   17    7      2.98      0.00
    7   17    7      4.45      0.00
    3   18    7     -0.86      0.00
    2   18    7     -4.34      0.00
    1   18    7      1.59      0.00
    5   18    7     -0.15      0.00
    6   18    7      3.83      0.00
    7   18    7      4.65      0.00
    4   19    7      5.87      0.00
    3   19    7      1.57      0.00
    2   19    7      1.76      0.00
    1   19    7      1.16      0.00
    0   19    7      3.69      0.00
    5   19    7     -4.00      0.00
    6   19    7      2.55      0.00
    4   20    7     -0.30      0.00
    3   20    7      8.51      0.00
    2   20    7      2.73      0.00
    1   20    7      6.03      0.00
    0    0    8    -67.66      0.00
    1    1    8     -3.86      0.00
    1    2    8     60.32      0.00
    0    2    8     61.76      0.00
    2    2    8    -12.72      0.00
    2    3    8    -22.37      0.00
    1    3    8    -41.36      0.00
    3    3    8    -70.37      0.00
    3    4    8     -1.41      0.00
    2    4    8      1.82      0.00
    1    4    8     -4.64      0.00
    4    4    8    -31.20      0.00
    4    5    8      2.60      0.00
    3    5    8      0.65      0.00
    2    5    8     12.91      0.00
    1    5    8    -27.73      0.00
    5    6    8     -4.33      0.00
    4    6    8      1.94      0.00
    3    6    8     10.22      0.00
    2    6    8     11.76      0.00
    1    6    8      0.76      0.00
    0    6    8     16.28      0.00
    6    6    8     -9.88      0.00
    6    7    8      8.58      0.00
    5    7    8      1.43      0.00
    4    7    8     -4.38      0.00
    3    7    8     -7.34      0.00
    2    7    8     -7.26      0.00
    7    7    8      0.73      0.00
    7    8    8      0.83      0.00
    6    8    8     -2.72      0.00
    5    8    8      2.37      0.00
    4    8    8      0.41      0.00
    3    8    8     -7.31      0.00
    2    8    8      4.74      0.00
    1    8    8    -16.45      0.00
    0    8    8     -1.06      0.00
    7    9    8     -9.99      0.00
    6    9    8     -3.66      0.00
    5    9    8      1.75      0.00
    4    9    8      0.12      0.00
    3    9    8     -7.41      0.00
    2    9    8      2.20      0.00
    1    9    8     -0.91      0.00
    7   10    8      0.41      0.00
    6   10    8    -13.33      0.00
    5   10    8     -1.16      0.00
    4   10    8     -4.56      0.00
    3   10    8     -6.11      0.00
    2   10    8     -5.67      0.00
    1   10    8      2.22      0.00
    0   10    8      5.32      0.00
    3   11    8     -4.42      0.00
    2   11    8     -1.35      0.00
    4   11    8      6.52      0.00
    5   11    8    -10.36      0.00
    7   11    8     -2.00      0.00
    3   12    8      2.44      0.00
    2   12    8     -3.25      0.00
    1   12    8      1.50      0.00
    0   12    8     -8.09      0.00
    6   12    8     10.50      0.00
    4   13    8      5.90      0.00
    3   13    8     -0.88      0.00
    2   13    8     -3.60      0.00
    1   13    8     10.99      0.00
    5   13    8     -8.06      0.00
    6   13    8     -4.84      0.00
    7   13    8      8.64      0.00
    4   14    8     -0.23      0.00
    3   14    8     -2.99      0.00
    2   14    8      6.97      0.00
    1   14    8     -2.49      0.00
    0   14    8      3.25      0.00
    5   14    8      3.95      0.00
    6   14    8     -2.94      0.00
    7   14    8     -2.44      0.00
    4   15    8      1.89      0.00
    3   15    8      2.97      0.00
    2   15    8      1.10      0.00
    1   15    8      0.50      0.00
    5   15    8      2.30      0.00
    6   15    8     -4.32      0.00
    7   15    8     -7.03      0.00
    4   16    8     -1.09      0.00
    2   16    8     -2.14      0.00
    1   16    8      2.40      0.00
    0   16    8      2.22      0.00
    5   16    8     -0.05      0.00
    6   16    8     -5.45      0.00
    7   16    8     -1.56      0.00
    4   17    8      4.48      0.00
    3   17    8      0.99      0.00
    2   17    8     -6.50      0.00
    1   17    8     -3.51      0.00
    5   17    8     -0.86      0.00
    6   17    8      1.57      0.00
    3   18    8     -8.22      0.00
    2   18    8      2.27      0.00
    1   18    8     -0.22      0.00
    0   18    8     -4.94      0.00
    4   18    8     11.71      0.00
    5   18    8      4.59      0.00
    6   18    8      3.45      0.00
    7   18    8      4.73      0.00
    4   19    8     -6.05      0.00
    3   19    8      2.76      0.00
    2   19    8     -3.96      0.00
    1   19    8     -4.20      0.00
    5   19    8     -4.32      0.00
    3   20    8     -0.66      0.00
    2   20    8     -8.10      0.00
    1   20    8     -3.15      0.00
    0   20    8     -2.44      0.00
    0    1    9     -5.84      0.00
    1    2    9     -2.28      0.00
    2    3    9     18.26      0.00
    1    3    9      0.39      0.00
    0    3    9    -43.75      0.00
    3    4    9      6.97      0.00
    2    4    9     20.21      0.00
    1    4    9     46.75      0.00
    4    5    9     -6.17      0.00
    3    5    9      5.00      0.00
    2    5    9      3.56      0.00
    1    5    9     -5.46      0.00
    0    5    9    -45.53      0.00
    5    6    9     -6.52      0.00
    4    6    9      1.37      0.00
    2    6    9     -5.90      0.00
    1    6    9     17.80      0.00
    6    7    9     -1.29      0.00
    5    7    9      5.47      0.00
    4    7    9    -10.15      0.00
    3    7    9      3.11      0.00
    2    7    9    -10.82      0.00
    1    7    9    -12.43      0.00
    0    7    9     -2.91      0.00
    7    8    9     -8.59      0.00
    6    8    9      1.78      0.00
    5    8    9     12.45      0.00
    4    8    9      3.42      0.00
    3    8    9      5.18      0.00
    2    8    9     -5.45      0.00
    1    8    9    -12.73      0.00
    8    9    9      7.64      0.00
    7    9    9    -10.90      0.00
    6    9    9      2.24      0.00
    5    9    9     -2.46      0.00
    4    9    9      3.44      0.00
    3    9    9     12.28      0.00
    2    9    9     -5.28      0.00
    1    9    9     -3.69      0.00
    0    9    9    -10.51      0.00
    8   10    9     -3.07      0.00
    7   10    9     -7.49      0.00
    6   10    9     10.58      0.00
    5   10    9     -3.24      0.00
    3   10    9      1.23      0.00
    2   10    9      6.32      0.00
    1   10    9      4.60      0.00
    3   11    9     -3.32      0.00
    2   11    9     -2.95      0.00
    1   11    9     -1.58      0.00
    0   11    9      0.17      0.00
    4   11    9      9.01      0.00
    5   11    9      0.53      0.00
    7   11    9     16.23      0.00
    3   12    9     -1.29      0.00
    2   12    9      6.72      0.00
    1   12    9     -5.78      0.00
    5   12    9     -9.64      0.00
    6   12    9     -7.90      0.00
    7   12    9      5.00      0.00
    8   12    9     17.76      0.00
    3   13    9      2.63      0.00
    2   13    9     12.26      0.00
    1   13    9      4.70      0.00
    0   13    9     25.75      0.00
    4   13    9     -0.48      0.00
    5   13    9      1.50      0.00
    6   13    9    -11.74      0.00
    7   13    9     -1.98      0.00
    8   13    9      2.23      0.00
    3   14    9      1.42      0.00
    2   14    9     -3.18      0.00
    1   14    9     -1.20      0.00
    4   14    9      1.99      0.00
    5   14    9      0.08      0.00
    6   14    9      8.29      0.00
    7   14    9     -2.69      0.00
    4   15    9      1.91      0.00
    3   15    9      0.21      0.00
    2   15    9      2.32      0.00
    1   15    9     -6.67      0.00
    0   15    9     -1.21      0.00
    5   15    9      0.52      0.00
    7   15    9     -7.40      0.00
    8   15    9      1.10      0.00
    4   16    9      8.52      0.00
    3   16    9     -3.36      0.00
    1   16    9      2.63      0.00
    5   16    9      4.42      0.00
    6   16    9     -5.09      0.00
    7   16    9      0.09      0.00
    8   16    9      6.46      0.00
    4   17    9     -4.99      0.00
    3   17    9     -3.65      0.00
    2   17    9     -1.86      0.00
    1   17    9      1.76      0.00
    0   17    9     -0.34      0.00
    5   17    9     -6.24      0.00
    6   17    9      5.65      0.00
    7   17    9      1.79      0.00
    4   18    9      0.83      0.00
    2   18    9     -1.94      0.00
    1   18    9     -3.51      0.00
    5   18    9      4.24      0.00
    6   18    9     -7.21      0.00
    7   18    9    -10.59      0.00
    3   19    9      1.51      0.00
    2   19    9     -1.56      0.00
    1   19    9      1.85      0.00
    0   19    9     -6.05      0.00
    4   19    9     -3.92      0.00
    5   19    9     -3.27      0.00
    3   20    9     12.34      0.00
    2   20    9      0.40      0.00
    1   20    9      2.61      0.00
    1    1   10    -54.42      0.00
    1    2   10      6.99      0.00
    0    2   10    128.66      0.00
    2    2   10    -59.72      0.00
    2    3   10    -14.15      0.00
    1    3   10     -4.11      0.00
    3    3   10     15.74      0.00
    3    4   10      9.68      0.00
    2    4   10     53.78      0.00
    1    4   10      7.05      0.00
    0    4   10     20.77      0.00
    4    4   10     -3.99      0.00
    4    5   10      4.38      0.00
    3    5   10     12.58      0.00
    2    5   10      5.61      0.00
    1    5   10     18.83      0.00
    5    5   10    -14.45      0.00
    5    6   10     -0.34      0.00
    4    6   10      5.69      0.00
    3    6   10    -17.87      0.00
    2    6   10     -7.21      0.00
    0    6   10      7.23      0.00
    6    6   10    -20.14      0.00
    6    7   10      0.86      0.00
    5    7   10     12.24      0.00
    4    7   10      2.81      0.00
    3    7   10     -3.22      0.00
    2    7   10      3.25      0.00
    1    7   10      1.25      0.00
    7    7   10     19.43      0.00
    7    8   10     -5.09      0.00
    6    8   10      6.03      0.00
    5    8   10     -0.43      0.00
    4    8   10     -0.12      0.00
    3    8   10     13.12      0.00
    2    8   10     -3.25      0.00
    1    8   10     -8.11      0.00
    0    8   10    -14.64      0.00
    8    8   10     -0.66      0.00
    8    9   10     -0.17      0.00
    7    9   10     -1.63      0.00
    6    9   10      1.38      0.00
    5    9   10     -0.89      0.00
    4    9   10     12.55      0.00
    3    9   10     -0.61      0.00
    2    9   10      8.10      0.00
    1    9   10     -2.97      0.00
    8   10   10      3.67      0.00
    7   10   10      3.03      0.00
    6   10   10     -1.19      0.00
    5   10   10      0.34      0.00
    4   10   10      4.27      0.00
    3   10   10      2.91      0.00
    2   10   10      0.30      0.00
    1   10   10      3.88      0.00
    0   10   10     12.25      0.00
    3   11   10     -5.87      0.00
    2   11   10     -5.51      0.00
    1   11   10      7.61      0.00
    4   11   10      1.94      0.00
    6   11   10    -12.44      0.00
    7   11   10      8.14      0.00
    8   11   10     -2.32      0.00
    4   12   10      1.56      0.00
    5   12   10      0.06      0.00
    7   12   10     12.40      0.00
    8   12   10     -1.11      0.00
    3   13   10     -2.59      0.00
    2   13   10      3.31      0.00
    1   13   10      2.42      0.00
    4   13   10     -0.15      0.00
    5   13   10      6.32      0.00
    6   13   10      9.40      0.00
    7   13   10      5.29      0.00
    8   13   10     -5.90      0.00
    3   14   10      1.79      0.00
    2   14   10      2.87      0.00
    1   14   10     -4.94      0.00
    0   14   10     -9.92      0.00
    4   14   10     -0.75      0.00
    5   14   10      3.07      0.00
    6   14   10     -5.22      0.00
    7   14   10      5.39      0.00
    8   14   10     -2.98      0.00
    3   15   10      1.75      0.00
    2   15   10      0.20      0.00
    1   15   10     -0.52      0.00
    4   15   10    -12.35      0.00
    5   15   10     -4.48      0.00
    6   15   10      8.69      0.00
    7   15   10      9.57      0.00
    8   15   10      5.19      0.00
    3   16   10     -6.37      0.00
    2   16   10     -3.35      0.00
    1   16   10     -1.68      0.00
    4   16   10      1.24      0.00
    5   16   10     -2.70      0.00
    6   16   10      5.08      0.00
    7   16   10     -2.24      0.00
    8   16   10      9.26      0.00
    3   17   10      1.16      0.00
    2   17   10      6.81      0.00
    1   17   10      0.41      0.00
    4   17   10     -1.94      0.00
    5   17   10     -4.03      0.00
    7   17   10     -4.58      0.00
    8   17   10     -5.48      0.00
    3   18   10     -0.38      0.00
    2   18   10      2.63      0.00
    4   18   10     -3.86      0.00
    5   18   10      0.04      0.00
    6   18   10      3.23      0.00
    7   18   10      4.88      0.00
    3   19   10      1.44      0.00
    2   19   10      3.77      0.00
    1   19   10      4.63      0.00
    4   19   10     -1.31      0.00
    0    1   11     -4.74      0.00
    1    2   11     38.01      0.00
    2    3   11     -0.89      0.00
    1    3   11      1.67      0.00
    0    3   11    -24.14      0.00
    3    4   11     -1.13      0.00
    2    4   11      5.23      0.00
    1    4   11     -1.29      0.00
    4    5   11      4.65      0.00
    3    5   11      1.32      0.00
    2    5   11     24.48      0.00
    1    5   11     -2.84      0.00
    0    5   11     -2.99      0.00
    5    6   11     -5.33      0.00
    4    6   11     -8.61      0.00
    3    6   11      3.85      0.00
    2    6   11    -11.90      0.00
    1    6   11      6.42      0.00
    6    7   11     -1.34      0.00
    5    7   11     -1.20      0.00
    4    7   11     11.14      0.00
    3    7   11     -3.46      0.00
    2    7   11      0.29      0.00
    1    7   11      0.92      0.00
    0    7   11     -4.74      0.00
    7    8   11      6.02      0.00
    6    8   11     -2.60      0.00
    5    8   11      8.37      0.00
    4    8   11      7.85      0.00
    3    8   11     10.32      0.00
    2    8   11     -0.88      0.00
    1    8   11     -0.29      0.00
    8    9   11      7.38      0.00
    7    9   11     -4.68      0.00
    6    9   11      2.71      0.00
    5    9   11      3.68      0.00
    4    9   11     -1.84      0.00
    3    9   11     -2.70      0.00
    2    9   11      4.63      0.00
    1    9   11      4.67      0.00
    0    9   11      4.85      0.00
    8   10   11      1.54      0.00
    7   10   11     -6.60      0.00
    6   10   11    -10.99      0.00
    5   10   11      0.62      0.00
    4   10   11      3.71      0.00
    3   10   11     -3.89      0.00
    1   10   11      2.82      0.00
    3   11   11      1.53      0.00
    2   11   11      1.95      0.00
    1   11   11     -1.34      0.00
    0   11   11      2.22      0.00
    4   11   11      3.67      0.00
    6   11   11      1.26      0.00
    7   11   11    -13.24      0.00
    8   11   11      5.66      0.00
    3   12   11     -5.44      0.00
    2   12   11     -0.83      0.00
    4   12   11      0.80      0.00
    5   12   11     -7.09      0.00
    6   12   11      5.05      0.00
    7   12   11      5.16      0.00
    8   12   11    -11.77      0.00
    3   13   11      4.19      0.00
    1   13   11     -3.49      0.00
    0   13   11      5.17      0.00
    4   13   11      2.02      0.00
    5   13   11      3.68      0.00
    6   13   11     -5.25      0.00
    7   13   11      1.27      0.00
    8   13   11      0.37      0.00
    3   14   11      3.15      0.00
    2   14   11     -0.89      0.00
    1   14   11     -3.92      0.00
    4   14   11     -2.19      0.00
    5   14   11      5.59      0.00
    6   14   11     -6.44      0.00
    8   14   11     -6.51      0.00
    3   15   11      0.56      0.00
    2   15   11      0.04      0.00
    1   15   11     -1.54      0.00
    0   15   11     -8.43      0.00
    4   15   11      5.61      0.00
    6   15   11      0.13      0.00
    7   15   11     -2.39      0.00
    8   15   11     -3.35      0.00
    3   16   11     -4.19      0.00
    2   16   11      1.71      0.00
    1   16   11      2.92      0.00
    4   16   11     14.23      0.00
    5   16   11      7.96      0.00
    6   16   11     -5.49      0.00
    7   16   11     -8.31      0.00
    3   17   11      0.94      0.00
    2   17   11      1.74      0.00
    1   17   11      1.41      0.00
    0   17   11     -0.82      0.00
    4   17   11      6.99      0.00
    5   17   11      7.00      0.00
    6   17   11     -1.18      0.00
    7   17   11      0.88      0.00
    8   17   11     -1.08      0.00
    3   18   11      9.72      0.00
    2   18   11     -5.57      0.00
    1   18   11     -5.92      0.00
    4   18   11      0.87      0.00
    5   18   11      1.93      0.00
    6   18   11     11.48      0.00
    3   19   11     -4.93      0.00
    2   19   11     -3.69      0.00
    1   19   11      2.61      0.00
    0   19   11      2.37      0.00
    0    0   12     99.91      0.00
    1    1   12    -10.56      0.00
    1    2   12     16.25      0.00
    0    2   12      1.10      0.00
    2    2   12      8.77      0.00
    2    3   12      8.58      0.00
    1    3   12    -21.39      0.00
    3    3   12    -17.51      0.00
    3    4   12      6.86      0.00
    2    4   12     -2.64      0.00
    1    4   12      8.96      0.00
    0    4   12    -21.21      0.00
    4    4   12      0.96      0.00
    4    5   12     -1.65      0.00
    3    5   12     -0.90      0.00
    2    5   12     10.69      0.00
    1    5   12     -0.40      0.00
    5    5   12      6.40      0.00
    5    6   12     -0.52      0.00
    4    6   12      5.58      0.00
    3    6   12    -12.59      0.00
    2    6   12      6.31      0.00
    1    6   12      4.51      0.00
    0    6   12    -13.52      0.00
    6    6   12     -1.82      0.00
    6    7   12      1.21      0.00
    5    7   12     -3.99      0.00
    4    7   12     -2.31      0.00
    3    7   12     -0.31      0.00
    2    7   12     -8.65      0.00
    1    7   12      2.39      0.00
    7    7   12     10.38      0.00
    7    8   12      0.61      0.00
    6    8   12     -1.66      0.00
    5    8   12      1.07      0.00
    4    8   12      4.66      0.00
    3    8   12      7.32      0.00
    2    8   12      7.12      0.00
    1    8   12     -3.14      0.00
    0    8   12    -13.42      0.00
    8    8   12     -5.71      0.00
    8    9   12     -0.78      0.00
    7    9   12      1.84      0.00
    6    9   12     -3.60      0.00
    5    9   12      4.86      0.00
    4    9   12     -3.01      0.00
    3    9   12     -2.89      0.00
    2    9   12     -2.37      0.00
    1    9   12      6.30      0.00
    7   10   12     -3.82      0.00
    6   10   12     -1.72      0.00
    5   10   12     -0.81      0.00
    4   10   12     -2.51      0.00
    3   10   12      5.60      0.00
    2   10   12      5.80      0.00
    1   10   12     -6.60      0.00
    0   10   12      1.78      0.00
    8   10   12      8.36      0.00
    9   11   12    -11.99      0.00
    8   11   12      3.00      0.00
    7   11   12     -0.32      0.00
    2   11   12     -4.49      0.00
    1   11   12      0.95      0.00
    3   11   12     -0.41      0.00
    5   11   12     -6.48      0.00
    6   11   12      1.86      0.00
    3   12   12     -3.99      0.00
    2   12   12      0.38      0.00
    1   12   12     -3.19      0.00
    4   12   12      2.51      0.00
    5   12   12      3.14      0.00
    6   12   12      0.20      0.00
    7   12   12      0.07      0.00
    8   12   12      7.96      0.00
    3   13   12      1.08      0.00
    2   13   12     -1.20      0.00
    1   13   12      3.11      0.00
    4   13   12     -3.28      0.00
    5   13   12      3.37      0.00
    6   13   12      5.95      0.00
    7   13   12     -7.39      0.00
    8   13   12     -7.01      0.00
    3   14   12      8.11      0.00
    2   14   12     -2.96      0.00
    1   14   12     -1.33      0.00
    0   14   12      4.77      0.00
    4   14   12      0.59      0.00
    5   14   12     -0.25      0.00
    6   14   12     -2.62      0.00
    7   14   12     -0.35      0.00
    8   14   12     -2.19      0.00
    3   15   12      0.44      0.00
    2   15   12      1.20      0.00
    1   15   12      1.03      0.00
    5   15   12    -12.01      0.00
    6   15   12     -1.92      0.00
    7   15   12      1.22      0.00
    8   15   12      3.94      0.00
    3   16   12      2.35      0.00
    2   16   12     -4.74      0.00
    1   16   12     -4.95      0.00
    0   16   12      1.95      0.00
    4   16   12      1.19      0.00
    5   16   12     -8.32      0.00
    6   16   12     -4.26      0.00
    7   16   12      7.75      0.00
    8   16   12      6.98      0.00
    3   17   12     -5.02      0.00
    2   17   12     -4.86      0.00
    1   17   12      0.11      0.00
    4   17   12      0.64      0.00
    6   17   12      2.11      0.00
    7   17   12     -9.27      0.00
    8   17   12      8.86      0.00
    3   18   12     -5.30      0.00
    2   18   12     -1.53      0.00
    1   18   12     -1.37      0.00
    0   18   12     -4.81      0.00
    4   18   12      4.88      0.00
    5   18   12      3.76      0.00
    6   18   12     -8.19      0.00
    2   19   12      0.68      0.00
    1   19   12     -5.85      0.00
    0    1   13     -1.75      0.00
    1    2   13    -21.85      0.00
    2    3   13     -0.94      0.00
    1    3   13     20.29      0.00
    0    3   13     -4.01      0.00
    3    4   13      2.23      0.00
    2    4   13      8.65      0.00
    1    4   13      3.67      0.00
    4    5   13     -4.92      0.00
    3    5   13     14.50      0.00
    2    5   13      9.91      0.00
    1    5   13     -2.67      0.00
    0    5   13     15.10      0.00
    5    6   13     -9.33      0.00
    4    6   13     -5.40      0.00
    3    6   13     -4.92      0.00
    2    6   13     -4.30      0.00
    1    6   13    -10.49      0.00
    6    7   13     -3.75      0.00
    5    7   13     -2.71      0.00
    4    7   13      2.12      0.00
    3    7   13     -2.52      0.00
    2    7   13      3.89      0.00
    1    7   13     -3.99      0.00
    0    7   13      3.80      0.00
    7    8   13     -2.94      0.00
    6    8   13     10.32      0.00
    5    8   13      0.05      0.00
    4    8   13      4.52      0.00
    3    8   13      1.56      0.00
    2    8   13      2.20      0.00
    1    8   13     -4.50      0.00
    8    9   13     -1.91      0.00
    7    9   13      2.85      0.00
    6    9   13     -6.72      0.00
    5    9   13     -3.05      0.00
    4    9   13     -7.20      0.00
    3    9   13     -2.23      0.00
    2    9   13     -4.51      0.00
    1    9   13    -16.21      0.00
    0    9   13      3.11      0.00
    9   10   13      2.79      0.00
    8   10   13      0.32      0.00
    7   10   13     -4.55      0.00
    6   10   13      1.61      0.00
    5   10   13      5.05      0.00
    4   10   13      2.59      0.00
    3   10   13      1.58      0.00
    2   10   13      5.35      0.00
    1   10   13     -4.63      0.00
    9   11   13     -3.40      0.00
    7   11   13      3.26      0.00
    5   11   13      4.13      0.00
    4   11   13    -10.24      0.00
    8   11   13      5.01      0.00
    2   12   13     -3.70      0.00
    1   12   13      1.42      0.00
    3   12   13      0.22      0.00
    4   12   13     -0.16      0.00
    5   12   13     -1.90      0.00
    6   12   13      5.07      0.00
    7   12   13     -3.27      0.00
    8   12   13     -0.88      0.00
    9   12   13    -31.97      0.00
    2   13   13      4.86      0.00
    1   13   13      7.04      0.00
    0   13   13     -2.47      0.00
    3   13   13      5.50      0.00
    4   13   13      1.03      0.00
    5   13   13     -0.97      0.00
    6   13   13      0.58      0.00
    7   13   13    -11.74      0.00
    9   13   13    108.75      0.00
    2   14   13      8.50      0.00
    1   14   13      2.14      0.00
    3   14   13     -1.66      0.00
    4   14   13     -2.57      0.00
    5   14   13      0.07      0.00
    7   14   13      4.44      0.00
    8   14   13     -3.40      0.00
    9   14   13      5.07      0.00
    1   15   13     -5.56      0.00
    0   15   13    -12.60      0.00
    4   15   13     -1.32      0.00
    5   15   13     -3.12      0.00
    6   15   13      5.05      0.00
    7   15   13      2.11      0.00
    8   15   13     -3.74      0.00
    3   16   13      0.33      0.00
    2   16   13     -7.57      0.00
    1   16   13      4.39      0.00
    4   16   13    -10.12      0.00
    5   16   13      4.97      0.00
    6   16   13     11.92      0.00
    8   16   13     -7.23      0.00
    3   17   13     -7.68      0.00
    2   17   13    -10.07      0.00
    1   17   13      2.92      0.00
    0   17   13      3.92      0.00
    5   17   13      1.39      0.00
    6   17   13     -4.12      0.00
    7   17   13    -17.61      0.00
    2   18   13     -5.02      0.00
    1   18   13     -3.47      0.00
    3   18   13      2.73      0.00
    4   18   13     -1.97      0.00
    5   18   13     -3.77      0.00
    0    0   14     -6.60      0.00
    1    1   14     -3.36      0.00
    1    2   14     -9.29      0.00
    0    2   14    -13.34      0.00
    2    3   14      1.84      0.00
    1    3   14     -4.02      0.00
    3    3   14     11.93      0.00
    3    4   14     -6.17      0.00
    2    4   14     -8.21      0.00
    1    4   14      2.03      0.00
    0    4   14     -6.39      0.00
    4    4   14     -4.07      0.00
    4    5   14     -2.83      0.00
    3    5   14     -3.28      0.00
    2    5   14     -4.77      0.00
    1    5   14      2.86      0.00
    5    5   14     -1.13      0.00
    5    6   14      7.75      0.00
    4    6   14     -4.34      0.00
    3    6   14      1.09      0.00
    2    6   14      2.42      0.00
    1    6   14      1.77      0.00
    0    6   14    -11.38      0.00
    6    6   14     -2.33      0.00
    6    7   14     -5.49      0.00
    5    7   14    -14.02      0.00
    4    7   14      1.23      0.00
    3    7   14     -6.16      0.00
    2    7   14     -4.99      0.00
    1    7   14     -3.11      0.00
    7    7   14      1.20      0.00
    7    8   14      1.28      0.00
    6    8   14     -1.85      0.00
    5    8   14      1.30      0.00
    4    8   14      7.90      0.00
    3    8   14      2.70      0.00
    2    8   14    -10.71      0.00
    1    8   14      3.05      0.00
    0    8   14      0.70      0.00
    8    8   14      5.91      0.00
    8    9   14      0.45      0.00
    7    9   14     -7.12      0.00
    6    9   14      1.36      0.00
    5    9   14      0.02      0.00
    4    9   14      4.65      0.00
    3    9   14     -2.69      0.00
    2    9   14     -1.87      0.00
    1    9   14      2.53      0.00
    9    9   14     -8.66      0.00
    9   10   14     -2.85      0.00
    6   10   14     -4.00      0.00
    5   10   14     -2.37      0.00
    4   10   14     -2.54      0.00
    3   10   14      1.66      0.00
    2   10   14      2.08      0.00
    1   10   14      2.62      0.00
    0   10   14    -12.63      0.00
    8   10   14      5.47      0.00
    9   11   14      1.83      0.00
    8   11   14      5.29      0.00
    7   11   14      5.18      0.00
    6   11   14      0.46      0.00
    5   11   14     -1.04      0.00
    4   11   14     -2.45      0.00
    3   11   14      2.36      0.00
    2   11   14     -2.76      0.00
    1   11   14     -1.28      0.00
    1   12   14     -2.15      0.00
    0   12   14      2.21      0.00
    3   12   14      3.02      0.00
    4   12   14      2.83      0.00
    5   12   14      0.66      0.00
    6   12   14     -3.41      0.00
    7   12   14     -0.56      0.00
    8   12   14      2.14      0.00
    2   13   14     -7.16      0.00
    1   13   14     -2.46      0.00
    3   13   14      1.31      0.00
    4   13   14     -5.79      0.00
    5   13   14     -2.32      0.00
    6   13   14     -3.86      0.00
    7   13   14     -3.76      0.00
    8   13   14    -12.20      0.00
    9   13   14     -4.73      0.00
    2   14   14     -1.51      0.00
    1   14   14      6.84      0.00
    0   14   14      2.10      0.00
    3   14   14      2.66      0.00
    4   14   14      1.84      0.00
    6   14   14      2.82      0.00
    7   14   14      4.05      0.00
    8   14   14      2.12      0.00
    9   14   14     -6.37      0.00
    2   15   14     -6.17      0.00
    3   15   14     -5.67      0.00
    4   15   14      4.87      0.00
    5   15   14     -8.13      0.00
    6   15   14      1.96      0.00
    7   15   14      0.13      0.00
    8   15   14     14.61      0.00
    9   15   14      0.15      0.00
    2   16   14     -2.56      0.00
    1   16   14     -3.98      0.00
    0   16   14      4.97      0.00
    3   16   14      5.50      0.00
    4   16   14      1.23      0.00
    5   16   14     -2.74      0.00
    7   16   14      3.90      0.00
    8   16   14     -0.36      0.00
    9   16   14      2.40      0.00
    1   17   14      1.85      0.00
    3   17   14     -8.94      0.00
    4   17   14     -1.96      0.00
    5   17   14     -0.67      0.00
    6   17   14     -1.05      0.00
    7   17   14      8.23      0.00
    2   18   14      4.57      0.00
    1   18   14      1.88      0.00
    0   18   14     -4.57      0.00
    3   18   14     -2.48      0.00
    4   18   14     -1.20      0.00
    0    1   15     -4.89      0.00
    1    2   15     12.38      0.00
    2    3   15      2.85      0.00
    1    3   15     -1.85      0.00
    0    3   15     -4.05      0.00
    3    4   15     -8.48      0.00
    2    4   15    -10.06      0.00
    1    4   15     -8.50      0.00
    4    5   15     -0.20      0.00
    3    5   15     -5.28      0.00
    2    5   15     -8.89      0.00
    1    5   15     -1.87      0.00
    0    5   15      0.97      0.00
    5    6   15     11.71      0.00
    4    6   15     -2.88      0.00
    3    6   15     -0.19      0.00
    2    6   15      4.60      0.00
    1    6   15     -7.22      0.00
    6    7   15      3.84      0.00
    5    7   15     -1.06      0.00
    4    7   15    -12.26      0.00
    3    7   15      0.92      0.00
    2    7   15      9.65      0.00
    1    7   15      5.09      0.00
    0    7   15     -2.23      0.00
    7    8   15      2.55      0.00
    6    8   15      7.23      0.00
    5    8   15      1.73      0.00
    4    8   15     -1.36      0.00
    3    8   15      0.01      0.00
    2    8   15      4.51      0.00
    1    8   15     -0.81      0.00
    8    9   15      3.15      0.00
    7    9   15     -2.07      0.00
    6    9   15      2.50      0.00
    5    9   15     -4.76      0.00
    4    9   15      0.50      0.00
    3    9   15     -3.81      0.00
    2    9   15      4.80      0.00
    1    9   15     -8.94      0.00
    0    9   15      3.42      0.00
    9   10   15     -1.92      0.00
    8   10   15      4.32      0.00
    7   10   15      0.81      0.00
    6   10   15     -2.67      0.00
    5   10   15      3.54      0.00
    4   10   15      4.25      0.00
    3   10   15      5.19      0.00
    2   10   15      5.29      0.00
    1   10   15     -0.08      0.00
   10   11   15     -3.67      0.00
    9   11   15      2.25      0.00
    8   11   15      6.52      0.00
    6   11   15      0.03      0.00
    5   11   15      4.52      0.00
    4   11   15     -1.32      0.00
    3   11   15      0.30      0.00
    2   11   15      1.49      0.00
    1   11   15      1.26      0.00
    0   11   15     -3.22      0.00
    7   11   15     -3.22      0.00
    2   12   15      3.26      0.00
    1   12   15      0.67      0.00
    3   12   15      2.96      0.00
    4   12   15      6.10      0.00
    5   12   15      1.20      0.00
    6   12   15     -0.70      0.00
    7   12   15      4.62      0.00
    8   12   15    -12.25      0.00
    9   12   15      0.13      0.00
    2   13   15     -7.57      0.00
    1   13   15     -9.68      0.00
    0   13   15      3.61      0.00
    3   13   15     -0.70      0.00
    4   13   15      2.94      0.00
    5   13   15      8.68      0.00
    6   13   15     -4.31      0.00
    7   13   15     -1.51      0.00
    8   13   15      0.71      0.00
    9   13   15     -1.29      0.00
    2   14   15     -0.40      0.00
    1   14   15     -1.33      0.00
    3   14   15     -8.72      0.00
    5   14   15     -0.32      0.00
    6   14   15      2.24      0.00
    7   14   15     -6.01      0.00
    8   14   15     -9.39      0.00
    9   14   15     -6.96      0.00
    2   15   15     -0.29      0.00
    1   15   15      3.33      0.00
    0   15   15     -3.92      0.00
    3   15   15      7.68      0.00
    4   15   15      0.39      0.00
    5   15   15     -4.39      0.00
    6   15   15     11.69      0.00
    7   15   15     -0.32      0.00
    8   15   15      0.04      0.00
    9   15   15     -1.20      0.00
    2   16   15     -3.58      0.00
    1   16   15      0.94      0.00
    3   16   15      5.51      0.00
    4   16   15     -2.10      0.00
    5   16   15     -6.06      0.00
    6   16   15     -0.27      0.00
    7   16   15      0.19      0.00
    8   16   15      1.31      0.00
    9   16   15     -0.94      0.00
    2   17   15     -3.17      0.00
    1   17   15     -5.13      0.00
    0   17   15      4.78      0.00
    3   17   15      1.20      0.00
    4   17   15      1.37      0.00
    5   17   15      1.16      0.00
    6   17   15     10.80      0.00
    2   18   15     -5.55      0.00
    1   18   15    -12.79      0.00
    3   18   15      6.55      0.00
    0    0   16      3.31      0.00
    1    1   16      8.99      0.00
    1    2   16      4.97      0.00
    0    2   16     10.43      0.00
    2    2   16     10.66      0.00
    2    3   16    -10.74      0.00
    1    3   16     31.40      0.00
    3    3   16     12.83      0.00
    3    4   16     -3.55      0.00
    2    4   16     -5.02      0.00
    1    4   16    -10.37      0.00
    0    4   16      9.50      0.00
    4    4   16     12.39      0.00
    4    5   16      5.32      0.00
    3    5   16      4.40      0.00
    2    5   16     10.65      0.00
    1    5   16      8.12      0.00
    5    5   16     16.18      0.00
    5    6   16     -1.65      0.00
    4    6   16      4.83      0.00
    3    6   16      3.19      0.00
    2    6   16     -2.43      0.00
    1    6   16      8.33      0.00
    0    6   16      2.95      0.00
    6    6   16      3.67      0.00
    6    7   16      2.51      0.00
    5    7   16      1.35      0.00
    4    7   16     -2.93      0.00
    3    7   16      6.13      0.00
    2    7   16      1.77      0.00
    1    7   16      4.88      0.00
    7    7   16     -4.43      0.00
    7    8   16      5.41      0.00
    6    8   16      2.99      0.00
    5    8   16     -2.07      0.00
    4    8   16     -0.03      0.00
    3    8   16      3.51      0.00
    2    8   16     -0.98      0.00
    1    8   16      6.36      0.00
    0    8   16      9.97      0.00
    8    8   16     -3.82      0.00
    8    9   16     -4.48      0.00
    6    9   16      3.13      0.00
    5    9   16     -3.46      0.00
    4    9   16    -12.22      0.00
    3    9   16      4.21      0.00
    2    9   16     -2.99      0.00
    1    9   16      0.41      0.00
    9    9   16      2.27      0.00
    9   10   16     -0.13      0.00
    8   10   16     -0.38      0.00
    7   10   16      2.25      0.00
    6   10   16      6.69      0.00
    5   10   16    -10.71      0.00
    4   10   16      2.39      0.00
    3   10   16     -0.37      0.00
    2   10   16     -0.28      0.00
    1   10   16     -2.31      0.00
    0   10   16    -10.26      0.00
   10   11   16     -9.32      0.00
    8   11   16      1.42      0.00
    7   11   16      6.59      0.00
    5   11   16     -1.41      0.00
    4   11   16     -0.43      0.00
    2   11   16     -3.15      0.00
    1   11   16     -2.45      0.00
    6   11   16      2.70      0.00
    2   12   16      3.65      0.00
    1   12   16      1.55      0.00
    0   12   16      2.05      0.00
    3   12   16     -1.57      0.00
    4   12   16      2.23      0.00
    5   12   16     11.64      0.00
    6   12   16      0.44      0.00
    7   12   16     -1.83      0.00
    8   12   16      3.72      0.00
    9   12   16      2.10      0.00
    2   13   16      2.71      0.00
    1   13   16     -3.78      0.00
    3   13   16      7.31      0.00
    4   13   16      5.31      0.00
    5   13   16     -0.36      0.00
    7   13   16     -2.90      0.00
    8   13   16     -4.13      0.00
    9   13   16      3.29      0.00
    1   14   16     -0.30      0.00
    0   14   16     -5.68      0.00
    2   14   16      0.41      0.00
    4   14   16      0.64      0.00
    5   14   16     -4.12      0.00
    6   14   16     -4.61      0.00
    7   14   16     -4.19      0.00
    8   14   16      9.21      0.00
    2   15   16     -0.57      0.00
    1   15   16      0.77      0.00
    3   15   16      1.87      0.00
    4   15   16     -7.70      0.00
    5   15   16     -0.41      0.00
    6   15   16      1.96      0.00
    8   15   16     -0.09      0.00
    9   15   16     -1.35      0.00
    2   16   16     -1.82      0.00
    1   16   16      2.83      0.00
    0   16   16     -5.88      0.00
    3   16   16     -4.54      0.00
    5   16   16      4.93      0.00
    6   16   16      1.83      0.00
    7   16   16     -1.34      0.00
    8   16   16     -3.09      0.00
    2   17   16     -1.42      0.00
    1   17   16     -1.93      0.00
    3   17   16     -5.01      0.00
    4   17   16      2.10      0.00
    5   17   16      0.26      0.00
    6   17   16      1.66      0.00
    0    1   17     -5.29      0.00
    1    2   17     -6.36      0.00
    2    3   17     -3.52      0.00
    1    3   17     -6.00      0.00
    0    3   17      7.18      0.00
    3    4   17      0.04      0.00
    2    4   17     -7.46      0.00
    1    4   17      3.63      0.00
    4    5   17      2.21      0.00
    3    5   17      5.86      0.00
    2    5   17    -17.72      0.00
    1    5   17      0.43      0.00
    0    5   17      7.35      0.00
    5    6   17      4.03      0.00
    4    6   17      7.26      0.00
    3    6   17      5.55      0.00
    2    6   17      9.91      0.00
    1    6   17      7.22      0.00
    6    7   17     -8.58      0.00
    5    7   17     -1.18      0.00
    4    7   17      0.09      0.00
    3    7   17     -5.39      0.00
    2    7   17      2.65      0.00
    1    7   17      2.99      0.00
    7    8   17      2.71      0.00
    6    8   17      2.73      0.00
    5    8   17     -1.09      0.00
    4    8   17     -2.26      0.00
    3    8   17     -1.87      0.00
    2    8   17     -3.75      0.00
    1    8   17     -1.67      0.00
    8    9   17     -4.65      0.00
    7    9   17      6.41      0.00
    6    9   17      3.43      0.00
    5    9   17     -3.57      0.00
    4    9   17      3.13      0.00
    3    9   17     -1.47      0.00
    2    9   17     -4.54      0.00
    1    9   17      3.37      0.00
    0    9   17      4.35      0.00
    9   10   17     -3.39      0.00
    8   10   17     -5.60      0.00
    7   10   17      4.84      0.00
    6   10   17     -2.17      0.00
    5   10   17     -5.30      0.00
    4   10   17      0.78      0.00
    3   10   17      4.07      0.00
    2   10   17      7.19      0.00
    1   10   17     -0.19      0.00
   10   11   17      2.75      0.00
    9   11   17     11.05      0.00
    8   11   17      3.87      0.00
    7   11   17      4.75      0.00
    6   11   17      2.84      0.00
    4   11   17     -2.77      0.00
    3   11   17      3.56      0.00
    2   11   17      3.88      0.00
    1   11   17      2.16      0.00
    0   11   17    -10.72      0.00
    5   11   17      0.15      0.00
    1   12   17      2.91      0.00
    2   12   17     -0.68      0.00
    3   12   17      4.42      0.00
    4   12   17     -0.40      0.00
    5   12   17     -4.42      0.00
    6   12   17      5.99      0.00
    8   12   17     -2.20      0.00
    9   12   17      2.36      0.00
   10   12   17      2.18      0.00
    1   13   17     -3.88      0.00
    0   13   17      9.52      0.00
    2   13   17     -0.85      0.00
    3   13   17     -1.49      0.00
    4   13   17      3.64      0.00
    6   13   17     -1.13      0.00
    7   13   17      3.21      0.00
    8   13   17     -3.95      0.00
    9   13   17     -3.05      0.00
   10   13   17     -4.82      0.00
    1   14   17      4.41      0.00
    2   14   17     -2.18      0.00
    3   14   17      6.22      0.00
    4   14   17     -5.33      0.00
    5   14   17     -4.77      0.00
    6   14   17      1.48      0.00
    7   14   17     -0.90      0.00
    8   14   17      4.94      0.00
    9   14   17    -11.11      0.00
   10   14   17     -2.72      0.00
    1   15   17      1.94      0.00
    0   15   17      6.81      0.00
    2   15   17     -0.65      0.00
    3   15   17      3.74      0.00
    4   15   17     -3.31      0.00
    5   15   17      4.69      0.00
    6   15   17      5.50      0.00
    7   15   17     -0.71      0.00
    8   15   17     -0.07      0.00
    9   15   17      4.56      0.00
    1   16   17     -2.71      0.00
    2   16   17     -0.77      0.00
    4   16   17      0.98      0.00
    5   16   17     -2.20      0.00
    6   16   17      7.74      0.00
    7   16   17     -3.12      0.00
    8   16   17      3.47      0.00
    1   17   17     -1.55      0.00
    0   17   17     -0.72      0.00
    2   17   17     -0.53      0.00
    3   17   17     -2.01      0.00
    4   17   17     -3.85      0.00
    5   17   17     -0.84      0.00
    0    0   18     -7.74      0.00
    1    1   18     -7.72      0.00
    1    2   18     -3.18      0.00
    0    2   18     -0.65      0.00
    2    2   18     20.23      0.00
    2    3   18     -7.89      0.00
    1    3   18     -1.04      0.00
    3    3   18     -6.49      0.00
    3    4   18     -5.45      0.00
    2    4   18    -24.26      0.00
    1    4   18     -6.41      0.00
    0    4   18     -5.29      0.00
    4    4   18     -4.09      0.00
    4    5   18      5.04      0.00
    3    5   18     -9.16      0.00
    2    5   18     -1.86      0.00
    1    5   18     -0.92      0.00
    5    5   18      7.16      0.00
    5    6   18      0.05      0.00
    4    6   18     -7.06      0.00
    3    6   18     -5.83      0.00
    2    6   18      8.91      0.00
    0    6   18     -9.20      0.00
    6    6   18     -1.47      0.00
    6    7   18     -0.86      0.00
    5    7   18      0.41      0.00
    4    7   18     -0.19      0.00
    3    7   18      1.79      0.00
    2    7   18     -0.20      0.00
    1    7   18      0.44      0.00
    7    7   18     -0.94      0.00
    7    8   18     -0.62      0.00
    6    8   18     -3.64      0.00
    5    8   18      3.17      0.00
    4    8   18     -2.23      0.00
    3    8   18     -4.35      0.00
    2    8   18      2.65      0.00
    1    8   18      2.38      0.00
    0    8   18      0.51      0.00
    8    8   18      5.86      0.00
    8    9   18     11.26      0.00
    7    9   18     -1.86      0.00
    6    9   18     -5.37      0.00
    5    9   18     -1.27      0.00
    4    9   18     -0.33      0.00
    3    9   18      0.33      0.00
    2    9   18     -0.53      0.00
    1    9   18     -4.71      0.00
    9    9   18      5.90      0.00
    8   10   18      1.70      0.00
    7   10   18     -3.42      0.00
    6   10   18     -0.14      0.00
    5   10   18      4.87      0.00
    4   10   18     -2.63      0.00
    3   10   18      2.24      0.00
    2   10   18     -2.37      0.00
    1   10   18      0.15      0.00
    0   10   18     -1.05      0.00
   10   10   18    -12.11      0.00
   10   11   18     -4.38      0.00
    9   11   18     -4.16      0.00
    8   11   18     -1.98      0.00
    7   11   18     -2.42      0.00
    6   11   18      1.98      0.00
    5   11   18      1.55      0.00
    3   11   18     -8.51      0.00
    2   11   18     -1.32      0.00
    1   11   18     -3.22      0.00
    4   11   18     -2.97      0.00
    1   12   18     -2.30      0.00
    0   12   18      0.69      0.00
    2   12   18      1.35      0.00
    3   12   18     -1.35      0.00
    4   12   18      8.56      0.00
    5   12   18      5.18      0.00
    7   12   18      0.04      0.00
    8   12   18     -2.66      0.00
    9   12   18     -1.21      0.00
   10   12   18      3.88      0.00
    1   13   18     -0.51      0.00
    2   13   18     -6.97      0.00
    4   13   18      2.68      0.00
    5   13   18     -2.95      0.00
    6   13   18     -4.66      0.00
    7   13   18      0.22      0.00
    8   13   18      3.86      0.00
   10   13   18      4.41      0.00
    1   14   18     -1.32      0.00
    0   14   18     -8.69      0.00
    2   14   18     -3.49      0.00
    3   14   18     -9.03      0.00
    4   14   18     -2.20      0.00
    5   14   18     -1.36      0.00
    6   14   18     -2.28      0.00
    7   14   18     -2.00      0.00
    8   14   18      2.11      0.00
    9   14   18     -0.01      0.00
   10   14   18      5.17      0.00
    1   15   18      5.40      0.00
    2   15   18     -0.95      0.00
    3   15   18     -1.32      0.00
    4   15   18     -3.24      0.00
    6   15   18     -2.20      0.00
    7   15   18     12.05      0.00
    8   15   18     -4.47      0.00
    9   15   18      5.63      0.00
    1   16   18     -6.56      0.00
    2   16   18     -1.30      0.00
    3   16   18      0.26      0.00
    4   16   18      0.74      0.00
    5   16   18     -1.50      0.00
    6   16   18      3.17      0.00
    7   16   18      8.58      0.00
    1   17   18      1.25      0.00
    2   17   18     -5.54      0.00
    3   17   18     -1.95      0.00
    0    1   19     -7.24      0.00
    1    2   19     -1.87      0.00
    2    3   19    -11.82      0.00
    1    3   19    -12.99      0.00
    0    3   19     -1.94      0.00
    2    4   19      3.86      0.00
    1    4   19     -6.11      0.00
    4    5   19     -8.63      0.00
    3    5   19     -6.73      0.00
    2    5   19    -11.48      0.00
    5    6   19     -0.56      0.00
    4    6   19     -0.90      0.00
    3    6   19     -7.87      0.00
    2    6   19     -6.84      0.00
    1    6   19      7.26      0.00
    6    7   19      0.15      0.00
    5    7   19     -0.04      0.00
    4    7   19     -1.68      0.00
    3    7   19     -6.74      0.00
    2    7   19     -6.08      0.00
    1    7   19     -1.66      0.00
    0    7   19     -9.51      0.00
    7    8   19     -5.10      0.00
    6    8   19      4.57      0.00
    5    8   19     -1.58      0.00
    4    8   19      2.06      0.00
    3    8   19      0.33      0.00
    2    8   19      3.91      0.00
    1    8   19     -4.16      0.00
    8    9   19     -5.73      0.00
    7    9   19     -5.68      0.00
    6    9   19      4.35      0.00
    5    9   19     -2.02      0.00
    3    9   19      3.09      0.00
    2    9   19     -0.81      0.00
    1    9   19      2.27      0.00
    0    9   19     -2.04      0.00
    4    9   19      9.37      0.00
    9   10   19      1.26      0.00
    8   10   19     -5.84      0.00
    7   10   19     -5.98      0.00
    6   10   19     -1.32      0.00
    5   10   19     -8.75      0.00
    4   10   19     -2.99      0.00
    3   10   19      1.18      0.00
    2   10   19     -1.82      0.00
    1   10   19      1.33      0.00
   10   11   19     -9.59      0.00
    9   11   19      4.14      0.00
    8   11   19      2.19      0.00
    6   11   19      3.06      0.00
    5   11   19      5.57      0.00
    4   11   19     -2.62      0.00
    3   11   19     -5.12      0.00
    1   11   19      3.79      0.00
    0   11   19      0.95      0.00
    2   11   19     -1.25      0.00
    1   12   19      3.59      0.00
    2   12   19      2.04      0.00
    3   12   19     -0.17      0.00
    4   12   19     -3.54      0.00
    6   12   19     -6.56      0.00
    7   12   19     -6.53      0.00
    8   12   19     -2.14      0.00
    9   12   19     10.10      0.00
   10   12   19     -4.77      0.00
    2   13   19      1.83      0.00
    3   13   19     -2.71      0.00
    4   13   19     -4.96      0.00
    5   13   19     -0.46      0.00
    6   13   19      3.51      0.00
    7   13   19    -11.37      0.00
    8   13   19      2.30      0.00
    9   13   19      1.54      0.00
   10   13   19      0.54      0.00
    1   14   19     -2.08      0.00
    2   14   19     -5.89      0.00
    3   14   19     -2.48      0.00
    4   14   19     -2.01      0.00
    5   14   19     -2.95      0.00
    6   14   19      3.39      0.00
    7   14   19      6.12      0.00
    8   14   19     -8.78      0.00
    9   14   19     -4.48      0.00
   10   14   19     -5.13      0.00
    1   15   19     -6.42      0.00
    0   15   19     -7.00      0.00
    2   15   19      1.47      0.00
    3   15   19     -0.07      0.00
    5   15   19      2.62      0.00
    6   15   19      5.62      0.00
    7   15   19      0.35      0.00
    8   15   19     -2.71      0.00
    9   15   19     -3.91      0.00
    1   16   19     -3.12      0.00
    2   16   19      3.35      0.00
    3   16   19     -0.84      0.00
    4   16   19     -4.99      0.00
    5   16   19     -2.56      0.00
    6   16   19     -3.94      0.00
    0   17   19      0.15      0.00
    1   17   19     -6.54      0.00
    0    0   20      5.56      0.00
    1    1   20     -2.92      0.00
    1    2   20     -1.75      0.00
    0    2   20      5.00      0.00
    2    2   20     -1.36      0.00
    1    3   20     -8.30      0.00
    3    3   20     -9.31      0.00
    3    4   20      5.61      0.00
    2    4   20     -6.84      0.00
    1    4   20      2.87      0.00
    0    4   20      1.16      0.00
    4    4   20      3.81      0.00
    4    5   20     -0.81      0.00
    3    5   20     -4.38      0.00
    2    5   20     -0.23      0.00
    1    5   20     -3.18      0.00
    5    5   20     -7.09      0.00
    5    6   20     -2.93      0.00
    4    6   20     -2.66      0.00
    3    6   20     -1.72      0.00
    2    6   20      4.20      0.00
    1    6   20      0.59      0.00
    0    6   20     -3.15      0.00
    6    6   20      3.61      0.00
    6    7   20     -1.28      0.00
    5    7   20      0.38      0.00
    4    7   20      6.47      0.00
    3    7   20     -2.89      0.00
    2    7   20     -4.78      0.00
    1    7   20     -4.80      0.00
    7    7   20     14.52      0.00
    7    8   20      3.90      0.00
    6    8   20      0.36      0.00
    5    8   20      1.70      0.00
    4    8   20      2.99      0.00
    3    8   20      0.30      0.00
    2    8   20     -1.58      0.00
    1    8   20      0.36      0.00
    0    8   20     -3.04      0.00
    8    8   20     -3.44      0.00
    8    9   20      2.71      0.00
    7    9   20      1.77      0.00
    6    9   20     -3.03      0.00
    5    9   20     -1.24      0.00
    4    9   20      4.35      0.00
    3    9   20      1.93      0.00
    2    9   20     -5.08      0.00
    1    9   20      4.34      0.00
    9    9   20     -1.92      0.00
    9   10   20     -9.28      0.00
    8   10   20      1.28      0.00
    7   10   20     -4.31      0.00
    6   10   20      3.42      0.00
    5   10   20     -1.13      0.00
    4   10   20      1.64      0.00
    3   10   20      1.49      0.00
    2   10   20      3.93      0.00
    1   10   20      4.38      0.00
    0   10   20      9.43      0.00
   10   10   20      2.42      0.00
   10   11   20     -5.88      0.00
    9   11   20     -2.87      0.00
    8   11   20     -2.70      0.00
    7   11   20      2.60      0.00
    5   11   20     -0.48      0.00
    4   11   20      0.14      0.00
    3   11   20      0.96      0.00
    2   11   20     -0.40      0.00
    1   11   20     -1.89      0.00
   11   11   20      3.74      0.00
   11   12   20      3.58      0.00
    1   12   20     -1.64      0.00
    0   12   20     -6.46      0.00
    2   12   20      5.41      0.00
    3   12   20      2.46      0.00
    4   12   20     -3.14      0.00
    5   12   20      3.46      0.00
    6   12   20     -0.16      0.00
    7   12   20     -0.09      0.00
    8   12   20     -6.46      0.00
   10   12   20    -13.35      0.00
    1   13   20      1.36      0.00
    2   13   20     -1.14      0.00
    3   13   20     -1.85      0.00
    4   13   20     -0.71      0.00
    5   13   20     -1.38      0.00
    6   13   20      1.37      0.00
    7   13   20      2.67      0.00
    8   13   20      2.75      0.00
    9   13   20      5.21      0.00
   10   13   20     31.08      0.00
    1   14   20     -1.20      0.00
    0   14   20     -0.08      0.00
    2   14   20     -5.41      0.00
    3   14   20      1.76      0.00
    4   14   20     -1.23      0.00
    5   14   20      6.65      0.00
    6   14   20      9.51      0.00
    7   14   20     -0.11      0.00
    8   14   20     -2.10      0.00
    9   14   20     -0.01      0.00
   10   14   20    -10.11      0.00
    3   15   20      6.58      0.00
    4   15   20      7.49      0.00
    5   15   20      1.95      0.00
    6   15   20      5.43      0.00
    7   15   20     -0.96      0.00
    8   15   20    -13.68      0.00
    1   16   20      0.02      0.00
    0   16   20      1.53      0.00
    2   16   20      2.24      0.00
    3   16   20     -2.26      0.00
    4   16   20      2.45      0.00
    5   16   20      5.97      0.00
    0    1   21      5.96      0.00
    1    2   21      2.91      0.00
    2    3   21     -2.27      0.00
    1    3   21      8.85      0.00
    0    3   21     -0.88      0.00
    3    4   21      3.15      0.00
    2    4   21      2.70      0.00
    1    4   21     -0.09      0.00
    4    5   21     -4.39      0.00
    3    5   21      0.78      0.00
    2    5   21      9.83      0.00
    1    5   21      3.66      0.00
    0    5   21      0.77      0.00
    5    6   21      1.39      0.00
    4    6   21     -0.03      0.00
    3    6   21      5.49      0.00
    2    6   21     -4.31      0.00
    1    6   21      1.00      0.00
    6    7   21      0.85      0.00
    5    7   21     -1.34      0.00
    4    7   21      3.21      0.00
    3    7   21     -1.20      0.00
    2    7   21      3.11      0.00
    0    7   21     -5.56      0.00
    1    7   21     -4.90      0.00
    7    8   21      3.30      0.00
    6    8   21     -1.82      0.00
    5    8   21     -2.43      0.00
    4    8   21      0.85      0.00
    3    8   21      2.78      0.00
    2    8   21      1.21      0.00
    1    8   21      3.74      0.00
    7    9   21      7.20      0.00
    6    9   21     -1.34      0.00
    5    9   21      0.73      0.00
    4    9   21      4.60      0.00
    3    9   21      5.22      0.00
    2    9   21     -1.83      0.00
    1    9   21      1.46      0.00
    0    9   21      0.92      0.00
    9   10   21     -0.17      0.00
    8   10   21      1.38      0.00
    7   10   21     -0.95      0.00
    6   10   21     -6.22      0.00
    5   10   21     -3.84      0.00
    4   10   21      5.59      0.00
    3   10   21     -3.17      0.00
    2   10   21      3.74      0.00
    1   10   21      3.17      0.00
   10   11   21      1.26      0.00
    9   11   21      2.36      0.00
    8   11   21      1.92      0.00
    7   11   21      0.71      0.00
    6   11   21     -1.76      0.00
    4   11   21      2.33      0.00
    3   11   21     -4.69      0.00
    2   11   21     -1.18      0.00
    1   11   21     -4.39      0.00
    0   11   21      8.96      0.00
   11   12   21     10.91      0.00
   10   12   21      1.98      0.00
    9   12   21      1.46      0.00
    8   12   21      0.21      0.00
    2   12   21     -1.41      0.00
    3   12   21      2.46      0.00
    4   12   21     -6.03      0.00
    5   12   21      5.88      0.00
    6   12   21     -6.03      0.00
    7   12   21     -5.42      0.00
    0   13   21      2.54      0.00
    1   13   21      5.52      0.00
    2   13   21     -3.80      0.00
    3   13   21      5.33      0.00
    4   13   21      7.89      0.00
    5   13   21     -0.48      0.00
    6   13   21      3.34      0.00
    7   13   21      2.69      0.00
    8   13   21      0.83      0.00
    9   13   21      2.58      0.00
   10   13   21     -8.11      0.00
    1   14   21     -4.17      0.00
    2   14   21     -5.04      0.00
    3   14   21      8.16      0.00
    5   14   21      6.71      0.00
    6   14   21     -2.80      0.00
    7   14   21      4.62      0.00
    8   14   21      3.75      0.00
    9   14   21      4.17      0.00
   10   14   21     -0.80      0.00
    0   15   21      2.69      0.00
    1   15   21      3.81      0.00
    2   15   21      1.80      0.00
    3   15   21      3.95      0.00
    4   15   21      4.29      0.00
    5   15   21      2.92      0.00
    6   15   21     -4.09      0.00
    7   15   21      7.54      0.00
    1   16   21     -2.84      0.00
    2   16   21      1.81      0.00
    3   16   21      5.74      0.00
    4   16   21     -5.66      0.00
    1    1   22     14.13      0.00
    1    2   22     -4.19      0.00
    0    2   22     12.88      0.00
    2    2   22     -2.25      0.00
    2    3   22      1.37      0.00
    1    3   22     -3.41      0.00
    3    3   22      9.87      0.00
    3    4   22      2.29      0.00
    2    4   22     10.02      0.00
    1    4   22      6.19      0.00
    0    4   22      3.01      0.00
    4    4   22      3.13      0.00
    4    5   22     -6.94      0.00
    3    5   22      1.35      0.00
    2    5   22     -2.73      0.00
    1    5   22      2.87      0.00
    5    5   22    -11.32      0.00
    5    6   22     -3.56      0.00
    4    6   22      5.59      0.00
    3    6   22      2.95      0.00
    2    6   22      5.77      0.00
    1    6   22     -3.15      0.00
    0    6   22      3.03      0.00
    6    6   22      7.95      0.00
    6    7   22      4.77      0.00
    5    7   22     -6.53      0.00
    4    7   22     -1.41      0.00
    3    7   22      0.68      0.00
    2    7   22     -2.22      0.00
    1    7   22     -1.35      0.00
    7    7   22      2.36      0.00
    7    8   22      0.16      0.00
    6    8   22      1.82      0.00
    5    8   22     -0.38      0.00
    4    8   22      0.22      0.00
    3    8   22      2.01      0.00
    2    8   22     -2.18      0.00
    1    8   22      0.07      0.00
    0    8   22     -1.71      0.00
    8    9   22     -1.76      0.00
    6    9   22     -4.27      0.00
    5    9   22     -2.39      0.00
    4    9   22      6.50      0.00
    3    9   22      4.31      0.00
    2    9   22      1.19      0.00
    1    9   22      2.06      0.00
    9    9   22     -2.43      0.00
    9   10   22     -2.33      0.00
    8   10   22     -6.46      0.00
    7   10   22     -3.87      0.00
    6   10   22     -1.62      0.00
    5   10   22     -1.22      0.00
    4   10   22     -0.77      0.00
    3   10   22      0.18      0.00
    2   10   22     -4.69      0.00
    1   10   22     -1.02      0.00
    0   10   22     -0.12      0.00
   10   11   22      2.20      0.00
    8   11   22      1.56      0.00
    7   11   22     -1.93      0.00
    6   11   22      2.58      0.00
    5   11   22      2.60      0.00
    4   11   22     -1.61      0.00
    2   11   22     -3.36      0.00
    1   11   22      6.82      0.00
   11   11   22      2.12      0.00
   11   12   22      6.76      0.00
   10   12   22      6.61      0.00
    9   12   22      1.73      0.00
    8   12   22     -0.28      0.00
    7   12   22     -0.52      0.00
    6   12   22     -2.48      0.00
    0   12   22      0.86      0.00
    1   12   22      3.49      0.00
    2   12   22     -1.14      0.00
    3   12   22     -2.16      0.00
    4   12   22      0.51      0.00
    5   12   22      2.36      0.00
    1   13   22     -2.82      0.00
    2   13   22      2.93      0.00
    3   13   22      2.12      0.00
    4   13   22    -10.13      0.00
    5   13   22      2.67      0.00
    6   13   22     -5.03      0.00
    7   13   22      2.06      0.00
    8   13   22     -2.65      0.00
    9   13   22     -0.24      0.00
   10   13   22      5.27      0.00
    0   14   22      5.63      0.00
    1   14   22     -2.73      0.00
    3   14   22     -6.88      0.00
    4   14   22     -4.05      0.00
    5   14   22     10.39      0.00
    6   14   22      2.53      0.00
    7   14   22     -4.49      0.00
    8   14   22     -0.60      0.00
    9   14   22      6.92      0.00
    1   15   22     -6.29      0.00
    2   15   22     -1.02      0.00
    3   15   22      0.85      0.00
    4   15   22      3.08      0.00
    5   15   22     -5.60      0.00
    6   15   22     -1.10      0.00
    0    1   23      1.70      0.00
    1    2   23      5.99      0.00
    2    3   23     -5.68      0.00
    1    3   23      2.84      0.00
    0    3   23      4.04      0.00
    3    4   23     -3.45      0.00
    2    4   23      0.79      0.00
    1    4   23     -1.33      0.00
    3    5   23     -4.82      0.00
    2    5   23      3.58      0.00
    1    5   23     -0.32      0.00
    0    5   23      5.17      0.00
    5    6   23     -7.05      0.00
    4    6   23     -5.26      0.00
    3    6   23      1.61      0.00
    2    6   23     -0.77      0.00
    1    6   23     -3.24      0.00
    6    7   23     -1.37      0.00
    5    7   23     -5.21      0.00
    4    7   23      0.92      0.00
    3    7   23      4.55      0.00
    2    7   23     -3.88      0.00
    1    7   23     -2.84      0.00
    0    7   23     -6.46      0.00
    6    8   23     -0.16      0.00
    5    8   23      2.86      0.00
    4    8   23      4.96      0.00
    3    8   23     -2.57      0.00
    2    8   23     -2.83      0.00
    1    8   23     -4.06      0.00
    8    9   23     -1.65      0.00
    7    9   23     -2.58      0.00
    5    9   23     -1.97      0.00
    4    9   23     -0.26      0.00
    3    9   23      5.27      0.00
    2    9   23     -1.08      0.00
    1    9   23     -4.89      0.00
    0    9   23      4.45      0.00
    9   10   23     -1.26      0.00
    8   10   23     -1.40      0.00
    7   10   23     -2.86      0.00
    6   10   23     -1.37      0.00
    5   10   23      1.09      0.00
    3   10   23     -6.17      0.00
    2   10   23     -0.19      0.00
    1   10   23      1.30      0.00
   10   11   23      3.33      0.00
    9   11   23      2.75      0.00
    7   11   23      6.10      0.00
    6   11   23     -4.80      0.00
    5   11   23     -0.56      0.00
    4   11   23      2.73      0.00
    3   11   23     -0.64      0.00
    2   11   23     -4.57      0.00
    1   11   23     -0.18      0.00
    0   11   23      3.03      0.00
   11   12   23     -7.83      0.00
   10   12   23     -3.33      0.00
    9   12   23      2.05      0.00
    8   12   23     -4.15      0.00
    7   12   23      2.02      0.00
    6   12   23      4.09      0.00
    5   12   23     -0.08      0.00
    1   12   23     -2.37      0.00
    2   12   23     -0.66      0.00
    3   12   23      4.30      0.00
    4   12   23      0.22      0.00
    0   13   23      2.59      0.00
    1   13   23      4.33      0.00
    2   13   23     -4.87      0.00
    3   13   23     -1.61      0.00
    5   13   23     -6.56      0.00
    6   13   23     -2.16      0.00
    7   13   23      0.54      0.00
    8   13   23      1.98      0.00
    9   13   23      3.29      0.00
    1   14   23      1.06      0.00
    2   14   23     -1.14      0.00
    3   14   23     -4.40      0.00
    4   14   23     -3.05      0.00
    5   14   23     -2.12      0.00
    6   14   23     -2.69      0.00
    7   14   23     -0.92      0.00
    8   14   23     -3.58      0.00
    0   15   23      4.73      0.00
    1   15   23      0.82      0.00
    2   15   23     -0.49      0.00
    3   15   23      4.35      0.00
    4   15   23      4.06      0.00
    5   15   23      9.07      0.00
    1    1   24    -14.29      0.00
    1    2   24     -2.01      0.00
    2    2   24     -8.59      0.00
    2    3   24     -1.58      0.00
    1    3   24     -1.58      0.00
    3    3   24     -4.54      0.00
    2    4   24     -0.40      0.00
    1    4   24      0.21      0.00
    0    4   24     -0.94      0.00
    3    4   24      4.76      0.00
    4    4   24      2.64      0.00
    4    5   24     -0.68      0.00
    3    5   24     -3.15      0.00
    2    5   24      4.22      0.00
    5    5   24     -3.92      0.00
    5    6   24      4.37      0.00
    4    6   24     -2.09      0.00
    3    6   24     -1.97      0.00
    2    6   24     -0.87      0.00
    1    6   24      6.89      0.00
    0    6   24    -11.31      0.00
    6    6   24     -0.82      0.00
    6    7   24      4.20      0.00
    5    7   24     -3.59      0.00
    4    7   24      8.12      0.00
    3    7   24      1.12      0.00
    2    7   24     -3.99      0.00
    1    7   24     -1.92      0.00
    7    8   24      4.17      0.00
    5    8   24     -5.58      0.00
    4    8   24      0.79      0.00
    3    8   24     -5.89      0.00
    2    8   24      0.90      0.00
    1    8   24      6.17      0.00
    0    8   24     -2.81      0.00
    8    8   24      0.62      0.00
    8    9   24      2.56      0.00
    7    9   24     -2.28      0.00
    6    9   24     -1.56      0.00
    5    9   24     -6.28      0.00
    3    9   24     -1.81      0.00
    2    9   24      0.76      0.00
    1    9   24      2.05      0.00
    4    9   24     -1.19      0.00
    9    9   24      0.54      0.00
    9   10   24      0.73      0.00
    8   10   24     -0.12      0.00
    7   10   24     -0.51      0.00
    6   10   24     -2.83      0.00
    5   10   24      0.55      0.00
    4   10   24     -0.05      0.00
    3   10   24      0.42      0.00
    2   10   24     -0.37      0.00
   10   10   24     -1.06      0.00
   10   11   24     -0.77      0.00
    9   11   24     -8.30      0.00
    8   11   24      4.46      0.00
    6   11   24     -2.54      0.00
    5   11   24      0.02      0.00
    4   11   24     -3.74      0.00
    3   11   24      5.23      0.00
    2   11   24     -1.36      0.00
    1   11   24      1.62      0.00
   11   11   24     -2.70      0.00
   11   12   24      7.21      0.00
   10   12   24      5.01      0.00
    9   12   24      0.04      0.00
    8   12   24    -11.21      0.00
    7   12   24     -3.40      0.00
    6   12   24      0.16      0.00
    4   12   24     -2.87      0.00
    3   12   24      4.02      0.00
    2   12   24     -3.87      0.00
    1   12   24     -1.61      0.00
    0   12   24      8.58      0.00
    3   13   24      4.32      0.00
    4   13   24     -3.87      0.00
    5   13   24      2.24      0.00
    6   13   24     -5.11      0.00
    7   13   24     -0.59      0.00
    8   13   24     -2.58      0.00
    0   14   24     -5.47      0.00
    1   14   24      1.66      0.00
    2   14   24      3.60      0.00
    3   14   24     -5.62      0.00
    4   14   24     -1.23      0.00
    5   14   24     17.28      0.00
    6   14   24     -0.46      0.00
    7   14   24     10.79      0.00
    8   14   24     -8.50      0.00
    1   15   24      2.36      0.00
    2   15   24      1.24      0.00
    3   15   24     -4.57      0.00
    4   15   24     -2.16      0.00
    0    1   25      7.48      0.00
    1    2   25     -4.54      0.00
    2    3   25     -0.21      0.00
    0    3   25     -8.19      0.00
    3    4   25     -6.01      0.00
    2    4   25      1.50      0.00
    1    4   25     -2.34      0.00
    4    5   25     -1.64      0.00
    3    5   25     -7.06      0.00
    2    5   25      3.83      0.00
    1    5   25     -8.20      0.00
    0    5   25      4.07      0.00
    5    6   25      3.61      0.00
    4    6   25      0.99      0.00
    3    6   25      0.47      0.00
    2    6   25      2.50      0.00
    1    6   25     -2.34      0.00
    5    7   25     -1.89      0.00
    4    7   25     -4.54      0.00
    3    7   25     -2.78      0.00
    2    7   25     -0.56      0.00
    1    7   25     -0.20      0.00
    0    7   25     -0.98      0.00
    7    8   25     -5.34      0.00
    6    8   25      4.63      0.00
    5    8   25     -2.08      0.00
    4    8   25     -8.53      0.00
    3    8   25      1.12      0.00
    2    8   25      2.41      0.00
    1    8   25      4.05      0.00
    8    9   25     -1.39      0.00
    7    9   25     -0.47      0.00
    6    9   25      3.84      0.00
    5    9   25     -3.02      0.00
    4    9   25     -0.81      0.00
    3    9   25     -3.67      0.00
    9   10   25      0.43      0.00
    8   10   25     -1.70      0.00
    7   10   25     -1.82      0.00
    6   10   25      0.27      0.00
    5   10   25      1.41      0.00
    4   10   25     -0.43      0.00
    3   10   25     -1.94      0.00
    2   10   25      1.31      0.00
    1   10   25     -9.27      0.00
   10   11   25     -4.36      0.00
    9   11   25      2.57      0.00
    8   11   25      8.95      0.00
    7   11   25      4.60      0.00
    5   11   25     -3.11      0.00
    4   11   25      3.20      0.00
    3   11   25      0.42      0.00
    2   11   25     -0.86      0.00
    1   11   25      2.40      0.00
    0   11   25      9.84      0.00
   10   12   25     -1.16      0.00
    9   12   25      0.84      0.00
    8   12   25     -5.82      0.00
    7   12   25      1.53      0.00
    6   12   25     -0.97      0.00
    5   12   25      0.84      0.00
    4   12   25      4.01      0.00
    2   12   25     -2.47      0.00
    1   12   25      1.17      0.00
    1   13   25     -0.88      0.00
    2   13   25     -7.10      0.00
    3   13   25     -1.76      0.00
    4   13   25     -1.17      0.00
    5   13   25     -7.24      0.00
    6   13   25      3.02      0.00
    7   13   25      1.06      0.00
    1   14   25     -0.14      0.00
    2   14   25      9.61      0.00
    3   14   25      1.93      0.00
    4   14   25      0.39      0.00
    5   14   25      2.02      0.00
    6   14   25      8.51      0.00
    7   14   25     -2.00      0.00
    1    1   26     11.55      0.00
    1    2   26     -1.38      0.00
    0    2   26      2.78      0.00
    2    2   26      3.82      0.00
    2    3   26     -3.83      0.00
    1    3   26      3.16      0.00
    3    3   26      5.87      0.00
    3    4   26     -2.45      0.00
    2    4   26      3.15      0.00
    1    4   26     -3.78      0.00
    0    4   26     -6.03      0.00
    4    4   26      3.28      0.00
    4    5   26     -1.56      0.00
    3    5   26     -0.94      0.00
    2    5   26      2.02      0.00
    1    5   26      0.72      0.00
    5    5   26      1.22      0.00
    5    6   26     -3.47      0.00
    4    6   26      0.03      0.00
    3    6   26     -2.63      0.00
    2    6   26     -1.60      0.00
    1    6   26     -3.36      0.00
    0    6   26      6.08      0.00
    6    6   26      2.55      0.00
    6    7   26      1.18      0.00
    5    7   26      5.76      0.00
    3    7   26      3.12      0.00
    2    7   26      0.98      0.00
    1    7   26      8.07      0.00
    7    7   26      9.51      0.00
    7    8   26      4.13      0.00
    6    8   26     -4.40      0.00
    5    8   26     -1.47      0.00
    4    8   26     -1.79      0.00
    3    8   26      5.98      0.00
    0    8   26     14.99      0.00
    8    8   26     -1.53      0.00
    8    9   26      5.97      0.00
    7    9   26     -1.18      0.00
    6    9   26      0.21      0.00
    5    9   26      3.79      0.00
    4    9   26     -0.15      0.00
    3    9   26      1.80      0.00
    2    9   26     -1.54      0.00
    1    9   26      3.26      0.00
    9    9   26      0.77      0.00
    9   10   26      4.81      0.00
    8   10   26     -5.71      0.00
    7   10   26     -1.50      0.00
    5   10   26      0.26      0.00
    4   10   26      1.54      0.00
    3   10   26      1.38      0.00
    2   10   26     -3.24      0.00
    1   10   26      3.07      0.00
    0   10   26     -3.11      0.00
   10   10   26      4.57      0.00
    9   11   26      7.00      0.00
    8   11   26      4.25      0.00
    7   11   26      5.74      0.00
    6   11   26      0.75      0.00
    5   11   26      3.50      0.00
    3   11   26     -1.56      0.00
    2   11   26     -1.77      0.00
    1   11   26      1.64      0.00
    9   12   26     -4.37      0.00
    8   12   26     -2.88      0.00
    7   12   26     -2.34      0.00
    6   12   26     -3.27      0.00
    5   12   26      8.19      0.00
    4   12   26      3.76      0.00
    3   12   26      3.67      0.00
    2   12   26      6.34      0.00
    1   12   26     -0.14      0.00
    0   12   26      1.14      0.00
    1   13   26      4.41      0.00
    2   13   26      1.92      0.00
    3   13   26      0.50      0.00
    4   13   26     -0.08      0.00
    5   13   26     -3.88      0.00
    6   13   26    -11.52      0.00
    1   14   26      1.11      0.00
    2   14   26     -2.80      0.00
    3   14   26     -3.32      0.00
    4   14   26      4.14      0.00
    5   14   26      9.14      0.00
    0    1   27      4.41      0.00
    1    2   27      5.42      0.00
    2    3   27      5.77      0.00
    1    3   27     -2.14      0.00
    0    3   27     14.32      0.00
    3    4   27      6.51      0.00
    2    4   27      0.99      0.00
    1    4   27      1.15      0.00
    4    5   27      1.30      0.00
    3    5   27     -5.21      0.00
    2    5   27      1.51      0.00
    1    5   27      0.13      0.00
    0    5   27      2.52      0.00
    5    6   27      3.22      0.00
    3    6   27     -1.10      0.00
    2    6   27     -0.53      0.00
    1    6   27     -1.69      0.00
    6    7   27      0.62      0.00
    5    7   27     -6.37      0.00
    4    7   27      0.76      0.00
    3    7   27      0.79      0.00
    7    8   27      4.76      0.00
    6    8   27     -1.35      0.00
    5    8   27      2.46      0.00
    4    8   27     -3.90      0.00
    3    8   27     -0.98      0.00
    2    8   27      7.80      0.00
    1    8   27      5.81      0.00
    8    9   27     -3.04      0.00
    7    9   27      2.60      0.00
    6    9   27     -3.50      0.00
    5    9   27     -0.96      0.00
    4    9   27      0.00      0.00
    3    9   27      0.87      0.00
    2    9   27      4.56      0.00
    1    9   27     -2.05      0.00
    0    9   27      3.97      0.00
    9   10   27      5.98      0.00
    8   10   27     -0.19      0.00
    7   10   27      6.63      0.00
    6   10   27     -2.01      0.00
    5   10   27      5.77      0.00
    4   10   27     -2.57      0.00
    3   10   27      0.49      0.00
    2   10   27      3.53      0.00
    1   10   27     -3.44      0.00
    9   11   27      5.21      0.00
    8   11   27      5.00      0.00
    7   11   27      1.82      0.00
    6   11   27      4.35      0.00
    5   11   27     -0.51      0.00
    4   11   27      4.59      0.00
    3   11   27      4.19      0.00
    2   11   27      2.77      0.00
    8   12   27     -3.02      0.00
    7   12   27      1.92      0.00
    6   12   27     -5.98      0.00
    5   12   27    -11.84      0.00
    4   12   27      2.03      0.00
    3   12   27     -0.63      0.00
    2   12   27     -1.18      0.00
    1   12   27     -1.03      0.00
    1   13   27      0.05      0.00
    2   13   27     -1.59      0.00
    3   13   27     -4.04      0.00
    4   13   27      3.49      0.00
    5   13   27     -5.84      0.00
    2   14   27     -1.80      0.00
    3   14   27     -4.19      0.00
    1    2   28     -5.18      0.00
    0    2   28      1.40      0.00
    2    2   28     13.74      0.00
    2    3   28     -4.54      0.00
    1    3   28     -1.53      0.00
    3    3   28     -2.05      0.00
    3    4   28     -4.95      0.00
    2    4   28     -1.15      0.00
    1    4   28      1.10      0.00
    0    4   28      4.57      0.00
    4    5   28     -0.43      0.00
    2    5   28      2.21      0.00
    1    5   28     -0.25      0.00
    5    5   28      6.66      0.00
    5    6   28     -3.16      0.00
    4    6   28      3.41      0.00
    3    6   28      0.13      0.00
    2    6   28     -1.80      0.00
    1    6   28      3.01      0.00
    0    6   28     -0.06      0.00
    6    6   28     -2.60      0.00
    6    7   28      7.07      0.00
    5    7   28      1.13      0.00
    4    7   28      0.24      0.00
    3    7   28      1.63      0.00
    2    7   28      0.83      0.00
    1    7   28      0.90      0.00
    7    7   28     -3.85      0.00
    7    8   28      3.75      0.00
    6    8   28     -6.30      0.00
    5    8   28     -0.43      0.00
    4    8   28     -3.86      0.00
    3    8   28     -1.05      0.00
    2    8   28     -1.93      0.00
    1    8   28      1.94      0.00
    0    8   28      0.80      0.00
    8    8   28      0.85      0.00
    8    9   28      1.40      0.00
    7    9   28      7.39      0.00
    6    9   28     -2.07      0.00
    4    9   28     -6.39      0.00
    3    9   28      4.26      0.00
    2    9   28     -2.74      0.00
    1    9   28     -1.38      0.00
    9    9   28      0.86      0.00
    8   10   28     -8.16      0.00
    7   10   28     -2.28      0.00
    6   10   28      1.06      0.00
    5   10   28     -3.24      0.00
    4   10   28     -7.84      0.00
    3   10   28     -7.04      0.00
    1   10   28     -9.01      0.00
    0   10   28     -6.05      0.00
    7   11   28     -0.67      0.00
    6   11   28      0.17      0.00
    5   11   28      5.61      0.00
    4   11   28      2.57      0.00
    3   11   28     -1.63      0.00
    2   11   28     -2.98      0.00
    1   11   28     -5.17      0.00
    7   12   28      1.91      0.00
    6   12   28      1.32      0.00
    5   12   28    -11.73      0.00
    4   12   28      3.12      0.00
    3   12   28      2.16      0.00
    2   12   28      1.82      0.00
    1   12   28      3.06      0.00
    0   12   28      3.53      0.00
    2   13   28     -2.44      0.00
    3   13   28     -2.07      0.00
    1    2   29     -0.50      0.00
    1    3   29     -4.86      0.00
    0    3   29     -1.41      0.00
    3    4   29     -8.66      0.00
    2    4   29     -4.08      0.00
    1    4   29     -4.99      0.00
    4    5   29      2.38      0.00
    3    5   29     -0.03      0.00
    2    5   29     -8.65      0.00
    1    5   29     -3.96      0.00
    0    5   29      3.28      0.00
    5    6   29     -0.22      0.00
    4    6   29      3.56      0.00
    3    6   29      0.35      0.00
    2    6   29      4.54      0.00
    1    6   29     -0.31      0.00
    5    7   29     -8.05      0.00
    4    7   29     -2.33      0.00
    3    7   29     -4.27      0.00
    2    7   29      0.99      0.00
    1    7   29     -3.31      0.00
    0    7   29     -6.52      0.00
    7    8   29     -3.99      0.00
    6    8   29      0.37      0.00
    5    8   29     -2.45      0.00
    4    8   29     -2.86      0.00
    3    8   29      0.12      0.00
    2    8   29      0.56      0.00
    1    8   29      0.39      0.00
    8    9   29     -7.43      0.00
    7    9   29      0.12      0.00
    6    9   29     -4.02      0.00
    5    9   29      2.10      0.00
    4    9   29     -0.19      0.00
    3    9   29     -2.73      0.00
    1    9   29     -4.12      0.00
    0    9   29     -4.17      0.00
    7   10   29      7.48      0.00
    6   10   29     -2.30      0.00
    5   10   29      2.06      0.00
    4   10   29      2.67      0.00
    3   10   29     -1.63      0.00
    2   10   29      2.12      0.00
    1   10   29      1.87      0.00
    6   11   29      1.83      0.00
    5   11   29      8.83      0.00
    4   11   29      2.56      0.00
    3   11   29     -3.13      0.00
    2   11   29      3.45      0.00
    1   11   29      1.44      0.00
    0   11   29      4.93      0.00
    5   12   29    -10.01      0.00
    4   12   29      7.78      0.00
    3   12   29     -0.19      0.00
    2   12   29     -5.60      0.00
    1   12   29    -11.78      0.00
    1    2   30      1.74      0.00
    0    2   30     -0.53      0.00
    2    2   30      6.65      0.00
    2    3   30    -11.19      0.00
    1    3   30     -5.41      0.00
    3    3   30     -2.50      0.00
    3    4   30     -1.96      0.00
    2    4   30     -4.27      0.00
    1    4   30     -5.31      0.00
    0    4   30     -7.77      0.00
    4    4   30      7.21      0.00
    4    5   30      0.43      0.00
    3    5   30     -8.76      0.00
    2    5   30     -3.97      0.00
    1    5   30     -5.47      0.00
    5    5   30      7.25      0.00
    5    6   30      0.55      0.00
    4    6   30     -2.51      0.00
    3    6   30      5.55      0.00
    2    6   30     -0.72      0.00
    1    6   30     -2.20      0.00
    0    6   30      4.63      0.00
    6    6   30      2.30      0.00
    6    7   30      0.64      0.00
    5    7   30     -1.64      0.00
    3    7   30     -3.02      0.00
    2    7   30     -5.34      0.00
    1    7   30      0.20      0.00
    7    7   30      1.17      0.00
    7    8   30      2.14      0.00
    6    8   30      9.77      0.00
    5    8   30      1.33      0.00
    4    8   30      5.51      0.00
    3    8   30     -1.34      0.00
    6    9   30      3.25      0.00
    5    9   30      0.78      0.00
    4    9   30      1.36      0.00
    3    9   30      3.57      0.00
    2    9   30      7.40      0.00
    1    9   30      6.79      0.00
    6   10   30     -2.56      0.00
    5   10   30     -1.69      0.00
    4   10   30     -3.05      0.00
    3   10   30      0.84      0.00
    2   10   30      2.43      0.00
    1   10   30      1.36      0.00
    0   10   30      0.15      0.00
    5   11   30     -1.32      0.00
    4   11   30      5.12      0.00
    3   11   30     -4.90      0.00
    2   11   30      2.18      0.00
    1   11   30     -0.62      0.00
    3   12   30      2.75      0.00
    1    2   31      5.32      0.00
    2    3   31      3.24      0.00
    1    3   31     -5.66      0.00
    0    3   31      2.85      0.00
    3    4   31      0.95      0.00
    2    4   31     -1.88      0.00
    1    4   31      2.36      0.00
    4    5   31      0.44      0.00
    3    5   31     -2.66      0.00
    2    5   31     -1.28      0.00
    1    5   31     -1.45      0.00
    0    5   31      5.12      0.00
    5    6   31     -4.33      0.00
    4    6   31      6.60      0.00
    2    6   31      4.53      0.00
    1    6   31      1.68      0.00
    6    7   31     -0.14      0.00
    5    7   31      2.60      0.00
    4    7   31     -1.59      0.00
    3    7   31      0.04      0.00
    2    7   31      0.92      0.00
    1    7   31      5.08      0.00
    6    8   31     -3.17      0.00
    5    8   31      3.44      0.00
    4    8   31      5.94      0.00
    3    8   31      0.77      0.00
    2    8   31     -0.09      0.00
    1    8   31      2.74      0.00
    5    9   31      2.44      0.00
    4    9   31      3.87      0.00
    3    9   31     -2.77      0.00
    2    9   31     -1.52      0.00
    1    9   31      2.48      0.00
    0    9   31     -9.90      0.00
    4   10   31      5.09      0.00
    3   10   31      1.68      0.00
    2   10   31      0.95      0.00
    1   10   31     -0.83      0.00
    3   11   31     -7.91      0.00
    2   11   31      1.19      0.00
    2    3   32     -2.01      0.00
    1    3   32      5.55      0.00
    3    3   32      1.29      0.00
    2    4   32      7.85      0.00
    1    4   32      6.39      0.00
    0    4   32      2.13      0.00
    4    4   32      9.89      0.00
    4    5   32     -1.26      0.00
    3    5   32      3.46      0.00
    2    5   32      4.49      0.00
    5    5   32     -3.92      0.00
    5    6   32     -7.62      0.00
    4    6   32      2.99      0.00
    3    6   32     -2.30      0.00
    2    6   32     -4.69      0.00
    1    6   32      5.44      0.00
    0    6   32     -0.74      0.00
    6    6   32      8.82      0.00
    5    7   32     -3.41      0.00
    4    7   32      2.82      0.00
    3    7   32      4.42      0.00
    2    7   32     -0.69      0.00
    1    7   32     -7.14      0.00
    4    8   32     -5.28      0.00
    3    8   32     -1.44      0.00
    2    8   32      5.43      0.00
    1    8   32     -1.82      0.00
    0    8   32     -3.49      0.00
    3    9   32     -3.99      0.00
    2    9   32      1.71      0.00
    1    9   32     -3.47      0.00
    3   10   32     -5.06      0.00
    2   10   32      7.48      0.00
    2    3   33      0.51      0.00
    1    3   33      7.73      0.00
    0    3   33     -3.34      0.00
    3    4   33     -5.95      0.00
    2    4   33      0.30      0.00
    1    4   33     -1.86      0.00
    4    5   33     -0.08      0.00
    3    5   33     -5.34      0.00
    2    5   33     -2.77      0.00
    1    5   33     -5.61      0.00
    0    5   33     -4.28      0.00
    4    6   33      0.39      0.00
    3    6   33      2.37      0.00
    2    6   33     -1.43      0.00
    1    6   33      0.65      0.00
    3    7   33     -1.13      0.00
    2    7   33     -1.85      0.00
    1    7   33     -2.74      0.00
    0    7   33      6.51      0.00
    3    8   33     -0.95      0.00
    2    8   33     -4.31      0.00
    1    8   33     -3.02      0.00
    3    9   33     -3.83      0.00
    2    9   33     -6.62      0.00
    2    3   34     -2.69      0.00
    1    3   34    -10.38      0.00
    3    3   34     -2.24      0.00
    3    4   34      3.25      0.00
    2    4   34     -6.39      0.00
    1    4   34      3.32      0.00
    0    4   34     -9.42      0.00
    3    5   34      4.98      0.00
    2    5   34      2.05      0.00
    1    5   34     -2.41      0.00
    3    6   34     -5.73      0.00
    2    6   34     -7.24      0.00
    1    6   34      2.72      0.00
    0    6   34      2.27      0.00
    3    7   34      2.68      0.00
    2    7   34     -5.78      0.00
    1    7   34      2.14      0.00
    3    8   34     -4.53      0.00
    3    4   35     -2.22      0.00
    2    4   35     -1.18      0.00
    1    4   35     -0.99      0.00
    3    5   35      7.14      0.00
    2    5   35     11.17      0.00
    1    5   35      2.19      0.00
    0    5   35      6.27      0.00
    3    6   35      4.25      0.00
    2    6   35      0.11      0.00
    3    4   36      4.36      0.00
    2    4   36     -4.25      0.00
    1    1    0   -107.72      0.00
    2    2    0     29.06      0.00
    3    3    0     63.33      0.00
    3    4    0     21.44      0.00
    4    4    0    -11.46      0.00
    3    5    0    114.13      0.00
    4    5    0    -26.13      0.00
    5    5    0    -32.11      0.00
    4    6    0    -46.38      0.00
    5    6    0    -14.83      0.00
    6    6    0     33.78      0.00
    4    7    0     44.76      0.00
    5    7    0     -9.95      0.00
    6    7    0      5.38      0.00
    7    7    0     -2.48      0.00
    5    8    0    -13.13      0.00
    6    8    0     12.37      0.00
    7    8    0    -14.93      0.00
    8    8    0     26.67      0.00
    5    9    0     12.30      0.00
    6    9    0     31.08      0.00
    7    9    0    -13.44      0.00
    8    9    0    -20.56      0.00
    9    9    0     26.80      0.00
    6   10    0     29.46      0.00
    7   10    0      2.38      0.00
    8   10    0      1.43      0.00
    9   10    0     -6.16      0.00
   10   10    0     -8.44      0.00
    6   11    0      8.48      0.00
    7   11    0     12.38      0.00
    8   11    0    -21.33      0.00
    9   11    0     -4.49      0.00
   10   11    0     -7.90      0.00
   11   11    0      0.03      0.00
    6   12    0     11.60      0.00
    7   12    0    -43.89      0.00
    8   12    0     12.12      0.00
    9   12    0      2.64      0.00
   10   12    0     -0.31      0.00
   11   12    0      2.32      0.00
   12   12    0     24.53      0.00
    7   13    0     24.93      0.00
    8   13    0      0.94      0.00
    9   13    0     -7.74      0.00
   10   13    0    -14.40      0.00
   11   13    0     12.96      0.00
   12   13    0      4.57      0.00
   13   13    0     20.09      0.00
    4   14    0     26.00      0.00
    6   14    0      2.28      0.00
    7   14    0    -24.76      0.00
    8   14    0     -6.80      0.00
    9   14    0      9.95      0.00
   10   14    0      9.47      0.00
   11   14    0      6.93      0.00
   12   14    0     -1.57      0.00
   13   14    0     -0.89      0.00
   14   14    0      5.28      0.00
    6   15    0     -5.15      0.00
    7   15    0     20.65      0.00
    8   15    0     18.10      0.00
    9   15    0      5.68      0.00
   10   15    0     -5.16      0.00
   11   15    0     -3.21      0.00
   12   15    0      3.10      0.00
   13   15    0     -3.13      0.00
   14   15    0     -1.95      0.00
   15   15    0     -5.15      0.00
    6   16    0      9.75      0.00
    7   16    0    -17.21      0.00
    8   16    0     -0.60      0.00
    9   16    0     -8.72      0.00
   10   16    0     14.69      0.00
   11   16    0     -6.39      0.00
   12   16    0     -1.05      0.00
   13   16    0     -1.95      0.00
   14   16    0     -3.51      0.00
   15   16    0      8.80      0.00
   16   16    0     -0.83      0.00
    6   17    0      3.12      0.00
    7   17    0      4.98      0.00
    8   17    0     12.80      0.00
    9   17    0     -1.55      0.00
   10   17    0    -15.77      0.00
   11   17    0      3.48      0.00
   12   17    0     -1.41      0.00
   13   17    0      1.86      0.00
   14   17    0      1.75      0.00
   15   17    0      2.59      0.00
   16   17    0     -1.76      0.00
   17   17    0     -8.38      0.00
    6   18    0     10.40      0.00
    7   18    0    -11.01      0.00
    8   18    0    -10.66      0.00
    9   18    0     -4.19      0.00
   10   18    0     -2.33      0.00
   11   18    0      0.25      0.00
   12   18    0      5.03      0.00
   13   18    0     -4.20      0.00
   14   18    0      5.08      0.00
   15   18    0      1.84      0.00
   16   18    0      1.59      0.00
    1   19    0      9.48      0.00
    6   19    0     -7.75      0.00
    7   19    0      7.13      0.00
    8   19    0      8.24      0.00
    9   19    0      7.91      0.00
   10   19    0     -8.52      0.00
   11   19    0     -1.46      0.00
   12   19    0      3.11      0.00
   13   19    0      0.06      0.00
   14   19    0     -0.30      0.00
   15   19    0     -9.00      0.00
    0   20    0     10.21      0.00
    1   20    0     -7.79      0.00
    2   20    0     -7.37      0.00
    6   20    0      2.16      0.00
    7   20    0      5.80      0.00
    8   20    0    -19.30      0.00
    9   20    0     -4.64      0.00
   10   20    0      1.44      0.00
   11   20    0      9.06      0.00
   12   20    0      1.95      0.00
   13   20    0    -10.49      0.00
   14   20    0     -1.76      0.00
    1   21    0     -7.02      0.00
    2   21    0     -7.19      0.00
    3   21    0      5.74      0.00
    4   21    0     -3.73      0.00
    5   21    0     -2.61      0.00
    6   21    0      1.78      0.00
    7   21    0      1.55      0.00
    8   21    0      1.09      0.00
    9   21    0      7.36      0.00
   10   21    0     -4.58      0.00
   11   21    0     -4.92      0.00
   12   21    0      3.17      0.00
   13   21    0      2.26      0.00
    0    1    1    -80.87      0.00
    2    3    1     28.83      0.00
    3    4    1     17.38      0.00
    4    5    1    -23.95      0.00
    4    6    1      8.71      0.00
    5    6    1     -6.89      0.00
    5    7    1      8.48      0.00
    6    7    1    -10.22      0.00
    5    8    1     23.21      0.00
    6    8    1     -6.94      0.00
    7    8    1     -3.90      0.00
    6    9    1     20.67      0.00
    7    9    1    -22.08      0.00
    8    9    1     13.97      0.00
    6   10    1      9.93      0.00
    7   10    1     -8.22      0.00
    8   10    1     -5.69      0.00
    9   10    1     -2.40      0.00
    6   11    1      5.83      0.00
    7   11    1     -3.46      0.00
    8   11    1     10.43      0.00
    9   11    1     -7.34      0.00
   10   11    1     -4.68      0.00
    7   12    1     15.43      0.00
    8   12    1      2.63      0.00
    9   12    1     -8.99      0.00
   10   12    1     -0.20      0.00
   11   12    1      8.56      0.00
    6   13    1      7.03      0.00
    7   13    1     -4.70      0.00
    8   13    1    -13.97      0.00
    9   13    1     10.26      0.00
   10   13    1      4.24      0.00
   11   13    1      0.73      0.00
   12   13    1      8.75      0.00
    4   14    1    -34.23      0.00
    6   14    1    -20.45      0.00
    7   14    1    -12.48      0.00
    8   14    1     23.27      0.00
    9   14    1      4.17      0.00
   10   14    1     -8.74      0.00
   11   14    1     -0.73      0.00
   12   14    1     -2.17      0.00
   13   14    1     -7.94      0.00
    6   15    1     21.41      0.00
    7   15    1    -21.13      0.00
    8   15    1     12.72      0.00
    9   15    1      4.59      0.00
   10   15    1     -2.97      0.00
   11   15    1     -5.36      0.00
   12   15    1     -5.33      0.00
   13   15    1      4.16      0.00
   14   15    1      3.13      0.00
    7   16    1      7.26      0.00
    8   16    1      3.62      0.00
    9   16    1     -0.95      0.00
   10   16    1     -6.21      0.00
   11   16    1      2.43      0.00
   12   16    1     -2.72      0.00
   13   16    1     -4.47      0.00
   14   16    1      6.65      0.00
   15   16    1      0.06      0.00
    7   17    1     -8.65      0.00
    8   17    1    -12.15      0.00
    9   17    1     -9.42      0.00
   10   17    1      0.15      0.00
   11   17    1     -3.66      0.00
   12   17    1     -4.53      0.00
   13   17    1      0.60      0.00
   14   17    1     -1.00      0.00
   15   17    1      1.48      0.00
   16   17    1      1.32      0.00
    6   18    1      4.61      0.00
    7   18    1      2.91      0.00
    8   18    1      7.34      0.00
    9   18    1      0.52      0.00
   10   18    1      6.52      0.00
   11   18    1      2.59      0.00
   12   18    1     -2.57      0.00
   13   18    1     -1.06      0.00
   14   18    1      0.82      0.00
   15   18    1      5.09      0.00
   16   18    1     -3.09      0.00
    6   19    1      8.99      0.00
    7   19    1     -0.82      0.00
    8   19    1     -9.19      0.00
    9   19    1     -1.10      0.00
   10   19    1      3.56      0.00
   11   19    1      0.16      0.00
   12   19    1      2.68      0.00
   13   19    1      3.75      0.00
   14   19    1      0.90      0.00
   15   19    1     -1.43      0.00
    1   20    1     14.90      0.00
    6   20    1     -8.32      0.00
    7   20    1     -0.06      0.00
    8   20    1      1.94      0.00
    9   20    1      3.42      0.00
   10   20    1     -2.16      0.00
   11   20    1     -3.83      0.00
   12   20    1     -0.07      0.00
   13   20    1     -3.77      0.00
   14   20    1     -4.41      0.00
    0   21    1     -8.04      0.00
    1   21    1     -4.53      0.00
    2   21    1      2.89      0.00
    3   21    1     -7.84      0.00
    4   21    1      0.21      0.00
    5   21    1      3.11      0.00
    6   21    1     -4.75      0.00
    7   21    1     -0.48      0.00
    8   21    1      0.31      0.00
    9   21    1     -0.29      0.00
   10   21    1      2.23      0.00
   11   21    1      2.60      0.00
   12   21    1     -2.07      0.00
   13   21    1      1.29      0.00
    0    0    2    -38.36      0.00
    3    3    2    -24.50      0.00
    3    4    2    -39.19      0.00
    4    4    2    -97.03      0.00
    4    5    2     10.29      0.00
    5    5    2     34.60      0.00
    5    6    2     -7.62      0.00
    6    6    2     -4.82      0.00
    5    7    2    -17.42      0.00
    6    7    2      5.75      0.00
    7    7    2    -25.52      0.00
    2    8    2    -48.25      0.00
    6    8    2      8.28      0.00
    7    8    2      0.80      0.00
    8    8    2      0.50      0.00
    6    9    2      9.64      0.00
    7    9    2      0.89      0.00
    8    9    2     -9.65      0.00
    9    9    2     -4.05      0.00
    6   10    2     -4.26      0.00
    7   10    2     11.34      0.00
    8   10    2     -1.67      0.00
    9   10    2    -12.77      0.00
   10   10    2    -14.26      0.00
    7   11    2    -19.76      0.00
    8   11    2      4.97      0.00
    9   11    2     -2.86      0.00
   10   11    2      0.12      0.00
   11   11    2      6.68      0.00
    7   12    2     -4.31      0.00
    8   12    2      9.87      0.00
    9   12    2     18.48      0.00
   10   12    2     -2.13      0.00
   11   12    2      6.25      0.00
   12   12    2      5.27      0.00
    7   13    2      3.87      0.00
    8   13    2     13.46      0.00
    9   13    2    -11.87      0.00
   10   13    2    -11.63      0.00
   11   13    2     -5.75      0.00
   12   13    2      5.10      0.00
   13   13    2      6.57      0.00
    7   14    2    -22.37      0.00
    8   14    2     -3.95      0.00
    9   14    2     10.83      0.00
   10   14    2     -8.27      0.00
   11   14    2     -5.95      0.00
   12   14    2     -4.84      0.00
   13   14    2      4.81      0.00
   14   14    2      2.29      0.00
    7   15    2     10.38      0.00
    8   15    2     15.38      0.00
    9   15    2      0.21      0.00
   10   15    2     -1.51      0.00
   11   15    2     -2.94      0.00
   12   15    2      4.43      0.00
   13   15    2     -0.35      0.00
   14   15    2     -6.51      0.00
   15   15    2      1.41      0.00
    7   16    2    -18.91      0.00
    8   16    2     -7.34      0.00
    9   16    2      3.39      0.00
   10   16    2      1.86      0.00
   11   16    2     -0.07      0.00
   12   16    2      0.14      0.00
   13   16    2     -1.43      0.00
   14   16    2     -1.21      0.00
   15   16    2      1.46      0.00
   16   16    2      1.33      0.00
    7   17    2     -4.17      0.00
    8   17    2     -0.94      0.00
    9   17    2      4.70      0.00
   10   17    2      2.64      0.00
   11   17    2     -3.07      0.00
   12   17    2     -0.59      0.00
   13   17    2     -1.74      0.00
   14   17    2      1.87      0.00
   15   17    2      2.34      0.00
   16   17    2     -4.68      0.00
   17   17    2      0.78      0.00
    7   18    2      2.25      0.00
    8   18    2     -3.28      0.00
    9   18    2      3.57      0.00
   10   18    2      1.96      0.00
   11   18    2      1.31      0.00
   12   18    2      1.77      0.00
   13   18    2     -0.01      0.00
   14   18    2      4.93      0.00
   15   18    2      1.34      0.00
   16   18    2      3.98      0.00
    7   19    2      3.62      0.00
    8   19    2      8.12      0.00
    9   19    2      5.34      0.00
   10   19    2     -1.14      0.00
   11   19    2      0.49      0.00
   12   19    2      2.12      0.00
   13   19    2     -2.62      0.00
   14   19    2      3.28      0.00
   15   19    2     -2.02      0.00
    0   20    2     10.65      0.00
    6   20    2      1.65      0.00
    7   20    2     -4.39      0.00
    8   20    2     -4.99      0.00
    9   20    2      4.01      0.00
   10   20    2     -1.46      0.00
   11   20    2      2.19      0.00
   12   20    2     -1.05      0.00
   13   20    2      0.13      0.00
   14   20    2      1.53      0.00
    1   21    2      0.00      0.00
    2   21    2     -6.76      0.00
    3   21    2     -2.96      0.00
    4   21    2     -6.60      0.00
    5   21    2      0.98      0.00
    6   21    2      8.58      0.00
    7   21    2      3.91      0.00
    8   21    2      0.34      0.00
    9   21    2      5.89      0.00
   10   21    2     -1.49      0.00
   11   21    2     -2.98      0.00
   12   21    2      1.95      0.00
    5    6    3    -10.58      0.00
    6    7    3     -0.28      0.00
    2    8    3     38.52      0.00
    6    8    3      4.46      0.00
    7    8    3     -8.16      0.00
    6    9    3      5.79      0.00
    7    9    3      0.46      0.00
    8    9    3     -4.54      0.00
    6   10    3     17.47      0.00
    7   10    3    -16.76      0.00
    8   10    3      0.20      0.00
    9   10    3     -6.82      0.00
    7   11    3      5.91      0.00
    8   11    3     -8.85      0.00
    9   11    3      2.44      0.00
   10   11    3      0.25      0.00
    6   12    3    -13.92      0.00
    7   12    3    -20.48      0.00
    8   12    3      2.83      0.00
    9   12    3      2.25      0.00
   10   12    3    -16.06      0.00
   11   12    3     -7.56      0.00
    7   13    3      2.03      0.00
    8   13    3      6.30      0.00
    9   13    3      4.51      0.00
   10   13    3    -10.99      0.00
   11   13    3     13.17      0.00
   12   13    3      3.71      0.00
    7   14    3    -10.81      0.00
    8   14    3      0.05      0.00
    9   14    3      7.80      0.00
   10   14    3     -7.42      0.00
   11   14    3    -11.16      0.00
   12   14    3      0.91      0.00
   13   14    3     -5.93      0.00
    7   15    3    -23.62      0.00
    8   15    3    -21.09      0.00
    9   15    3      9.84      0.00
   10   15    3     -0.29      0.00
   11   15    3     -3.68      0.00
   12   15    3      8.65      0.00
   13   15    3     -5.69      0.00
   14   15    3      0.75      0.00
    7   16    3     11.30      0.00
    8   16    3     17.81      0.00
    9   16    3     -1.47      0.00
   10   16    3      5.31      0.00
   11   16    3      0.79      0.00
   12   16    3     -1.45      0.00
   13   16    3      1.41      0.00
   14   16    3      0.45      0.00
   15   16    3      1.12      0.00
    7   17    3      0.68      0.00
    8   17    3    -10.09      0.00
    9   17    3      1.29      0.00
   10   17    3     -1.72      0.00
   11   17    3      7.60      0.00
   12   17    3      0.35      0.00
   13   17    3      7.71      0.00
   14   17    3      0.57      0.00
   15   17    3      0.93      0.00
   16   17    3      0.72      0.00
    7   18    3      7.94      0.00
    8   18    3     -1.18      0.00
    9   18    3      5.06      0.00
   10   18    3      5.99      0.00
   11   18    3      3.25      0.00
   12   18    3      1.82      0.00
   13   18    3     -0.11      0.00
   14   18    3     -2.92      0.00
   15   18    3     -4.20      0.00
   16   18    3     -1.85      0.00
    7   19    3      1.28      0.00
    8   19    3      5.36      0.00
    9   19    3     -7.14      0.00
   10   19    3     -3.02      0.00
   11   19    3      3.39      0.00
   12   19    3     -1.49      0.00
   13   19    3     -2.39      0.00
   14   19    3     -3.29      0.00
   15   19    3      1.03      0.00
    6   20    3      2.54      0.00
    7   20    3     -5.18      0.00
    8   20    3     -0.71      0.00
    9   20    3      3.03      0.00
   10   20    3     -5.83      0.00
   11   20    3     -2.47      0.00
   12   20    3      0.10      0.00
   13   20    3     -0.09      0.00
   14   20    3      3.99      0.00
    0   21    3     -0.57      0.00
    1   21    3      5.69      0.00
    3   21    3     -3.71      0.00
    4   21    3     -4.24      0.00
    5   21    3      1.21      0.00
    6   21    3      4.73      0.00
    7   21    3     -4.28      0.00
    8   21    3     -4.98      0.00
    9   21    3     -0.46      0.00
   10   21    3      3.19      0.00
   11   21    3      0.65      0.00
   12   21    3      6.09      0.00
    5    5    4     33.68      0.00
    6    6    4     20.58      0.00
    4    7    4      1.84      0.00
    6    7    4    -17.62      0.00
    7    7    4     14.63      0.00
    0    8    4     53.91      0.00
    1    8    4      4.91      0.00
    6    8    4     -8.97      0.00
    7    8    4     -3.31      0.00
    8    8    4      2.31      0.00
    7    9    4    -11.93      0.00
    8    9    4     22.34      0.00
    9    9    4     -2.61      0.00
    6   10    4      7.66      0.00
    7   10    4     11.61      0.00
    8   10    4      1.24      0.00
    9   10    4    -10.77      0.00
   10   10    4    -10.31      0.00
    4   11    4      0.21      0.00
    7   11    4     -4.72      0.00
    8   11    4     -1.99      0.00
    9   11    4     12.62      0.00
   10   11    4     -4.90      0.00
   11   11    4     -6.94      0.00
    6   12    4      3.56      0.00
    7   12    4      5.02      0.00
    8   12    4     11.01      0.00
    9   12    4     -9.05      0.00
   10   12    4     -1.47      0.00
   11   12    4      6.67      0.00
   12   12    4    -10.12      0.00
    7   13    4     11.02      0.00
    8   13    4      9.03      0.00
    9   13    4      2.68      0.00
   10   13    4    -12.44      0.00
   11   13    4     -6.69      0.00
   12   13    4      2.12      0.00
   13   13    4     -5.59      0.00
    7   14    4    -36.59      0.00
    8   14    4      0.85      0.00
    9   14    4      0.54      0.00
   10   14    4      2.00      0.00
   11   14    4     -8.42      0.00
   12   14    4     -4.91      0.00
   13   14    4     10.07      0.00
   14   14    4      7.40      0.00
    7   15    4      0.26      0.00
    8   15    4      3.94      0.00
    9   15    4      7.76      0.00
   10   15    4      3.15      0.00
   11   15    4      6.29      0.00
   12   15    4      3.78      0.00
   13   15    4      0.71      0.00
   14   15    4     -3.93      0.00
   15   15    4     -4.64      0.00
    5   16    4    -15.48      0.00
    7   16    4      2.15      0.00
    8   16    4     -7.95      0.00
    9   16    4     -1.35      0.00
   10   16    4     -0.21      0.00
   11   16    4      5.13      0.00
   12   16    4     -2.64      0.00
   13   16    4     -1.52      0.00
   14   16    4     -1.61      0.00
   15   16    4      1.05      0.00
   16   16    4     -3.60      0.00
    7   17    4      3.29      0.00
    8   17    4     -3.69      0.00
    9   17    4     -6.61      0.00
   10   17    4      1.50      0.00
   11   17    4      0.03      0.00
   12   17    4     -2.51      0.00
   13   17    4     -1.02      0.00
   14   17    4      1.90      0.00
   15   17    4     -2.81      0.00
   16   17    4     -1.44      0.00
   17   17    4     -0.24      0.00
    7   18    4     17.58      0.00
    8   18    4     -3.39      0.00
    9   18    4     -7.87      0.00
   10   18    4      6.72      0.00
   11   18    4      4.71      0.00
   12   18    4     -3.34      0.00
   13   18    4     -0.47      0.00
   14   18    4      1.46      0.00
   15   18    4     -1.44      0.00
   16   18    4     -1.45      0.00
    7   19    4      7.36      0.00
    8   19    4      3.88      0.00
    9   19    4      1.40      0.00
   10   19    4      2.54      0.00
   11   19    4     -2.71      0.00
   12   19    4     -6.20      0.00
   13   19    4     -0.46      0.00
   14   19    4      2.06      0.00
   15   19    4     -0.48      0.00
    5   20    4     -2.81      0.00
    6   20    4    -10.23      0.00
    7   20    4     -5.39      0.00
    8   20    4     -0.68      0.00
    9   20    4     -2.89      0.00
   10   20    4     -5.23      0.00
   11   20    4     -4.47      0.00
   12   20    4      0.70      0.00
   13   20    4      0.02      0.00
   14   20    4      2.82      0.00
    2   21    4      3.61      0.00
    3   21    4     -0.16      0.00
    4   21    4     -1.18      0.00
    5   21    4     -4.41      0.00
    6   21    4      6.59      0.00
    7   21    4      2.08      0.00
    8   21    4     -4.32      0.00
    9   21    4     -3.51      0.00
   10   21    4      0.14      0.00
   11   21    4      3.40      0.00
   12   21    4     -0.25      0.00
    5    6    5     32.30      0.00
    6    7    5      3.58      0.00
    7    8    5     11.71      0.00
    7    9    5      4.36      0.00
    8    9    5    -16.64      0.00
    7   10    5     -2.58      0.00
    8   10    5      8.67      0.00
    9   10    5     19.01      0.00
    7   11    5      9.42      0.00
    8   11    5     11.86      0.00
    9   11    5      6.50      0.00
   10   11    5      1.47      0.00
    5   12    5      8.57      0.00
    7   12    5     -1.56      0.00
    8   12    5    -16.64      0.00
    9   12    5     12.47      0.00
   10   12    5      5.16      0.00
   11   12    5      0.67      0.00
    6   13    5     -7.71      0.00
    7   13    5    -13.11      0.00
    8   13    5      3.31      0.00
    9   13    5      8.65      0.00
   10   13    5      0.86      0.00
   11   13    5      7.01      0.00
   12   13    5      4.05      0.00
    3   14    5     -5.66      0.00
    8   14    5    -15.19      0.00
    9   14    5     -0.46      0.00
   10   14    5      0.38      0.00
   11   14    5     -1.44      0.00
   12   14    5      8.05      0.00
   13   14    5      3.29      0.00
    7   15    5    -25.25      0.00
    8   15    5    -10.29      0.00
    9   15    5      5.58      0.00
   10   15    5      3.49      0.00
   11   15    5      3.34      0.00
   12   15    5      5.88      0.00
   13   15    5    -10.09      0.00
   14   15    5     -1.00      0.00
    8   16    5     -8.99      0.00
    9   16    5     -1.38      0.00
   10   16    5     -3.08      0.00
   11   16    5     -0.21      0.00
   12   16    5     -4.57      0.00
   13   16    5     -0.17      0.00
   14   16    5     -2.06      0.00
   15   16    5     -2.63      0.00
    8   17    5     -7.29      0.00
    9   17    5    -10.97      0.00
   10   17    5     -4.38      0.00
   11   17    5     -1.11      0.00
   12   17    5     -0.10      0.00
   13   17    5     -2.29      0.00
   14   17    5      2.38      0.00
   15   17    5      0.09      0.00
   16   17    5     -1.85      0.00
    5   18    5     -8.00      0.00
    7   18    5     -3.35      0.00
    8   18    5      2.20      0.00
    9   18    5      5.03      0.00
   10   18    5     -5.93      0.00
   11   18    5      3.19      0.00
   12   18    5     -0.87      0.00
   13   18    5      0.06      0.00
   14   18    5     -6.71      0.00
   15   18    5      0.98      0.00
   16   18    5     -4.50      0.00
    7   19    5     13.38      0.00
    8   19    5     -0.16      0.00
    9   19    5     -6.53      0.00
   10   19    5     -3.06      0.00
   11   19    5     -2.22      0.00
   12   19    5      2.48      0.00
   13   19    5     -6.43      0.00
   14   19    5     -3.16      0.00
   15   19    5      5.43      0.00
    5   20    5     -1.94      0.00
    6   20    5     -2.45      0.00
    7   20    5     -4.83      0.00
    8   20    5      0.91      0.00
    9   20    5      0.59      0.00
   10   20    5      4.36      0.00
   11   20    5     -4.39      0.00
   12   20    5      2.91      0.00
   13   20    5      0.09      0.00
   14   20    5      2.96      0.00
    0   21    5      6.53      0.00
    2   21    5     -2.38      0.00
    3   21    5      2.41      0.00
    4   21    5     -0.04      0.00
    5   21    5     -5.55      0.00
    6   21    5      0.99      0.00
    7   21    5     -0.72      0.00
    8   21    5      6.83      0.00
    9   21    5      5.57      0.00
   10   21    5     -5.95      0.00
   11   21    5      2.25      0.00
   12   21    5      3.91      0.00
    3    7    6    -16.54      0.00
    7    7    6    -24.36      0.00
    7    8    6      8.39      0.00
    8    8    6     28.62      0.00
    7    9    6     19.53      0.00
    8    9    6    -11.35      0.00
    9    9    6     13.41      0.00
    8   10    6     -0.19      0.00
    9   10    6      2.94      0.00
   10   10    6     -0.32      0.00
    3   11    6     10.23      0.00
    7   11    6    -13.35      0.00
    8   11    6      4.55      0.00
    9   11    6     14.20      0.00
   10   11    6     11.65      0.00
   11   11    6     -5.79      0.00
    5   12    6      1.75      0.00
    8   12    6    -11.25      0.00
    9   12    6     10.87      0.00
   10   12    6      8.16      0.00
   11   12    6     -7.26      0.00
   12   12    6     -3.44      0.00
    8   13    6     -2.09      0.00
    9   13    6      6.33      0.00
   10   13    6     -8.20      0.00
   11   13    6      3.14      0.00
   12   13    6     -0.68      0.00
   13   13    6     -9.97      0.00
    8   14    6    -21.85      0.00
    9   14    6     -8.27      0.00
   10   14    6      6.52      0.00
   11   14    6      0.70      0.00
   12   14    6      1.35      0.00
   13   14    6     -1.89      0.00
   14   14    6      7.31      0.00
    7   15    6    -19.77      0.00
    8   15    6     -1.91      0.00
    9   15    6      9.95      0.00
   10   15    6     -9.06      0.00
   11   15    6      7.76      0.00
   12   15    6     -3.17      0.00
   13   15    6     -3.03      0.00
   14   15    6     -3.24      0.00
   15   15    6      3.34      0.00
    4   16    6     -5.87      0.00
    8   16    6     17.02      0.00
    9   16    6      6.46      0.00
   10   16    6     -9.38      0.00
   11   16    6     -0.52      0.00
   12   16    6     -3.85      0.00
   13   16    6      0.70      0.00
   14   16    6      1.88      0.00
   15   16    6      4.04      0.00
   16   16    6      1.95      0.00
    8   17    6      1.49      0.00
    9   17    6      1.86      0.00
   10   17    6      2.36      0.00
   11   17    6      4.17      0.00
   12   17    6      6.60      0.00
   13   17    6     -5.01      0.00
   14   17    6      1.87      0.00
   15   17    6      8.16      0.00
   16   17    6      1.94      0.00
   17   17    6     -2.25      0.00
    8   18    6      2.46      0.00
    9   18    6    -12.44      0.00
   10   18    6      2.17      0.00
   11   18    6      5.25      0.00
   12   18    6      1.97      0.00
   13   18    6     -4.33      0.00
   14   18    6     -0.16      0.00
   15   18    6      0.33      0.00
   16   18    6     -2.53      0.00
    7   19    6     -8.47      0.00
    8   19    6     -1.35      0.00
    9   19    6      8.00      0.00
   10   19    6      5.67      0.00
   11   19    6     -4.76      0.00
   12   19    6     -6.29      0.00
   13   19    6     -2.88      0.00
   14   19    6     -0.01      0.00
   15   19    6      0.81      0.00
    5   20    6     -8.63      0.00
    6   20    6      0.03      0.00
    7   20    6      1.50      0.00
    8   20    6     -0.96      0.00
    9   20    6      7.11      0.00
   10   20    6     -7.67      0.00
   11   20    6     -1.37      0.00
   12   20    6      2.25      0.00
   13   20    6     -1.04      0.00
   14   20    6      0.77      0.00
    1   21    6     -0.15      0.00
    2   21    6      8.49      0.00
    3   21    6     -5.79      0.00
    4   21    6     -2.04      0.00
    5   21    6      8.27      0.00
    6   21    6      6.19      0.00
    7   21    6     -0.17      0.00
    8   21    6     -6.23      0.00
    9   21    6     -3.84      0.00
   10   21    6     -0.18      0.00
   11   21    6      2.04      0.00
   12   21    6     -0.88      0.00
    8    9    7      5.13      0.00
    8   10    7     -7.51      0.00
    9   10    7     -2.99      0.00
    8   11    7    -17.28      0.00
    9   11    7     -1.51      0.00
   10   11    7      1.33      0.00
    8   12    7     18.47      0.00
    9   12    7     -5.18      0.00
   10   12    7      4.80      0.00
   11   12    7      5.68      0.00
    0   13    7    -15.55      0.00
    1   13    7     -4.78      0.00
    8   13    7    -25.34      0.00
    9   13    7     -9.62      0.00
   10   13    7      7.98      0.00
   11   13    7     -3.12      0.00
   12   13    7     -7.34      0.00
    1   14    7    -31.48      0.00
    8   14    7     10.71      0.00
    9   14    7      4.53      0.00
   10   14    7     -7.00      0.00
   11   14    7      1.68      0.00
   12   14    7      5.61      0.00
   13   14    7      3.98      0.00
    8   15    7      0.85      0.00
    9   15    7     -4.21      0.00
   10   15    7     -1.30      0.00
   11   15    7      4.65      0.00
   12   15    7      0.53      0.00
   13   15    7     -2.82      0.00
   14   15    7      3.03      0.00
    4   16    7    -17.27      0.00
    8   16    7      9.23      0.00
    9   16    7      4.84      0.00
   10   16    7      2.81      0.00
   11   16    7      0.77      0.00
   12   16    7      5.55      0.00
   13   16    7      5.54      0.00
   14   16    7      1.75      0.00
   15   16    7     -4.24      0.00
    8   17    7      9.45      0.00
    9   17    7     -3.39      0.00
   10   17    7     -5.10      0.00
   11   17    7      1.08      0.00
   12   17    7     -4.09      0.00
   13   17    7      2.34      0.00
   14   17    7      1.67      0.00
   15   17    7      1.16      0.00
   16   17    7     -0.25      0.00
    4   18    7     26.68      0.00
    8   18    7     -3.61      0.00
    9   18    7     -0.67      0.00
   10   18    7      3.25      0.00
   11   18    7     -6.66      0.00
   12   18    7      0.40      0.00
   13   18    7      3.10      0.00
   14   18    7      4.27      0.00
   15   18    7     -2.63      0.00
   16   18    7     -6.83      0.00
    7   19    7      4.49      0.00
    8   19    7      0.53      0.00
    9   19    7     -0.98      0.00
   10   19    7      1.83      0.00
   11   19    7     -0.44      0.00
   12   19    7      4.15      0.00
   13   19    7      3.91      0.00
   14   19    7     -0.04      0.00
   15   19    7      2.42      0.00
    5   20    7     -6.56      0.00
    6   20    7     -6.42      0.00
    7   20    7      5.96      0.00
    8   20    7     -4.56      0.00
    9   20    7     -3.13      0.00
   10   20    7      4.75      0.00
   11   20    7      0.43      0.00
   12   20    7     -0.21      0.00
   13   20    7     -0.75      0.00
    0   21    7      5.40      0.00
    1   21    7      1.83      0.00
    2   21    7     -9.98      0.00
    3   21    7     -3.09      0.00
    4   21    7     -1.60      0.00
    5   21    7     -6.03      0.00
    6   21    7     -0.05      0.00
    7   21    7      3.60      0.00
    8   21    7      5.14      0.00
    9   21    7     -2.34      0.00
   10   21    7      1.28      0.00
   11   21    7     -1.86      0.00
   12   21    7      2.02      0.00
    0    4    8   -141.06      0.00
    5    5    8     17.69      0.00
    1    7    8     14.55      0.00
    8    8    8    -13.78      0.00
    8    9    8     -5.41      0.00
    9    9    8    -16.93      0.00
    8   10    8    -10.10      0.00
    9   10    8     10.48      0.00
   10   10    8      2.41      0.00
    1   11    8     10.02      0.00
    6   11    8     -4.59      0.00
    8   11    8     -2.51      0.00
    9   11    8    -10.31      0.00
   10   11    8      3.39      0.00
   11   11    8      1.93      0.00
    4   12    8      2.44      0.00
    5   12    8      9.52      0.00
    7   12    8     -0.66      0.00
    8   12    8    -15.35      0.00
    9   12    8      4.86      0.00
   10   12    8     -0.28      0.00
   11   12    8     -1.46      0.00
   12   12    8     -8.27      0.00
    8   13    8    -20.29      0.00
    9   13    8      7.18      0.00
   10   13    8     -2.27      0.00
   11   13    8     -8.96      0.00
   12   13    8     15.99      0.00
   13   13    8     -4.96      0.00
    8   14    8     -6.58      0.00
    9   14    8      6.60      0.00
   10   14    8      3.10      0.00
   11   14    8      3.27      0.00
   12   14    8      0.17      0.00
   13   14    8     -1.73      0.00
   14   14    8     -2.19      0.00
    8   15    8    -11.47      0.00
    9   15    8     -1.47      0.00
   10   15    8      0.19      0.00
   11   15    8      3.58      0.00
   12   15    8      7.58      0.00
   13   15    8      2.39      0.00
   14   15    8     -5.93      0.00
   15   15    8     -9.31      0.00
    3   16    8      8.14      0.00
    8   16    8      3.88      0.00
    9   16    8      2.18      0.00
   10   16    8     -2.17      0.00
   11   16    8     -0.78      0.00
   12   16    8      0.11      0.00
   13   16    8     -4.04      0.00
   14   16    8      0.22      0.00
   15   16    8      1.53      0.00
   16   16    8     -0.62      0.00
    7   17    8     -7.85      0.00
    8   17    8      6.54      0.00
    9   17    8     -7.74      0.00
   10   17    8      5.85      0.00
   11   17    8      1.16      0.00
   12   17    8      0.03      0.00
   13   17    8      5.38      0.00
   14   17    8     -3.88      0.00
   15   17    8      2.31      0.00
   16   17    8     -0.04      0.00
   17   17    8     -1.04      0.00
    8   18    8     -0.80      0.00
    9   18    8     -7.27      0.00
   10   18    8     -7.69      0.00
   11   18    8      6.86      0.00
   12   18    8      4.73      0.00
   13   18    8     -6.49      0.00
   14   18    8     -0.20      0.00
   15   18    8      0.52      0.00
   16   18    8      1.84      0.00
    6   19    8     -3.72      0.00
    7   19    8     -3.98      0.00
    8   19    8     -6.09      0.00
    9   19    8      4.18      0.00
   10   19    8      3.14      0.00
   11   19    8      1.18      0.00
   12   19    8     -1.35      0.00
   13   19    8     -0.18      0.00
   14   19    8      2.68      0.00
   15   19    8     -1.66      0.00
    4   20    8    -16.34      0.00
    5   20    8      0.53      0.00
    6   20    8     -2.31      0.00
    7   20    8     -0.26      0.00
    8   20    8      6.62      0.00
    9   20    8      3.20      0.00
   10   20    8      0.81      0.00
   11   20    8     -0.24      0.00
   12   20    8      1.58      0.00
   13   20    8      3.86      0.00
    1   21    8      0.15      0.00
    2   21    8     -5.00      0.00
    3   21    8      1.10      0.00
    4   21    8      4.34      0.00
    5   21    8      8.93      0.00
    6   21    8      1.64      0.00
    7   21    8     -3.66      0.00
    8   21    8      0.30      0.00
    9   21    8      2.90      0.00
   10   21    8     -2.44      0.00
   11   21    8      2.67      0.00
   12   21    8     -3.74      0.00
    3    6    9    -40.69      0.00
    4   10    9    -20.12      0.00
    9   10    9      3.96      0.00
    6   11    9     -1.72      0.00
    8   11    9    -17.08      0.00
    9   11    9      4.03      0.00
   10   11    9     -5.96      0.00
    4   12    9    -24.84      0.00
    9   12    9     11.81      0.00
   10   12    9     -0.42      0.00
   11   12    9     -3.27      0.00
    9   13    9     -7.20      0.00
   10   13    9     -4.98      0.00
   11   13    9      4.87      0.00
   12   13    9     -1.25      0.00
    8   14    9    -19.23      0.00
    9   14    9      8.57      0.00
   10   14    9      0.96      0.00
   11   14    9     -3.40      0.00
   12   14    9     11.36      0.00
   13   14    9     -5.37      0.00
    6   15    9     -6.15      0.00
    9   15    9     -1.02      0.00
   10   15    9     -3.16      0.00
   11   15    9     -5.54      0.00
   12   15    9      1.24      0.00
   13   15    9     -3.76      0.00
   14   15    9     -0.10      0.00
    2   16    9      8.12      0.00
    9   16    9      0.29      0.00
   10   16    9     -0.30      0.00
   11   16    9     -0.19      0.00
   12   16    9     -4.59      0.00
   13   16    9      3.52      0.00
   14   16    9      0.76      0.00
   15   16    9     -4.55      0.00
    8   17    9     -4.99      0.00
    9   17    9     -3.03      0.00
   10   17    9     -3.63      0.00
   11   17    9      8.19      0.00
   12   17    9     -1.47      0.00
   13   17    9     -4.86      0.00
   14   17    9      0.54      0.00
   15   17    9      1.15      0.00
   16   17    9      3.08      0.00
    3   18    9    -14.43      0.00
    8   18    9     -8.71      0.00
    9   18    9      1.34      0.00
   10   18    9     -0.73      0.00
   11   18    9     -1.04      0.00
   12   18    9     -4.84      0.00
   13   18    9     -5.91      0.00
   14   18    9      6.02      0.00
   15   18    9      3.77      0.00
   16   18    9     -8.24      0.00
    6   19    9      0.89      0.00
    7   19    9     -1.53      0.00
    8   19    9      8.31      0.00
    9   19    9      1.13      0.00
   10   19    9     -5.33      0.00
   11   19    9     -5.15      0.00
   12   19    9     10.48      0.00
   13   19    9      2.96      0.00
   14   19    9     -2.19      0.00
    4   20    9      1.44      0.00
    5   20    9     -1.56      0.00
    6   20    9      3.47      0.00
    7   20    9     -2.31      0.00
    8   20    9     -0.20      0.00
    9   20    9     -1.96      0.00
   10   20    9      3.03      0.00
   11   20    9      1.34      0.00
   12   20    9     -2.10      0.00
   13   20    9     -4.73      0.00
    0   21    9     -9.38      0.00
    1   21    9      3.36      0.00
    2   21    9      3.90      0.00
    3   21    9     -3.02      0.00
    4   21    9     -2.06      0.00
    5   21    9      1.48      0.00
    6   21    9      1.47      0.00
    7   21    9     -1.64      0.00
    8   21    9     -1.90      0.00
    9   21    9      3.19      0.00
   10   21    9     -1.75      0.00
   11   21    9     -1.49      0.00
    0    0   10     42.40      0.00
    1    6   10      0.00      0.00
    9    9   10     -3.21      0.00
    9   10   10      1.62      0.00
   10   10   10     13.82      0.00
    5   11   10      6.60      0.00
    9   11   10      3.91      0.00
   10   11   10     -8.29      0.00
   11   11   10     -0.81      0.00
    0   12   10    -15.29      0.00
    1   12   10     12.53      0.00
    2   12   10    -10.60      0.00
    3   12   10     -6.35      0.00
    6   12   10     17.61      0.00
    9   12   10      6.48      0.00
   10   12   10      6.97      0.00
   11   12   10     -6.36      0.00
   12   12   10     -4.75      0.00
    9   13   10     -3.54      0.00
   10   13   10     11.81      0.00
   11   13   10     -9.90      0.00
   12   13   10      3.11      0.00
   13   13   10      6.17      0.00
    9   14   10     11.50      0.00
   10   14   10      7.72      0.00
   11   14   10     -7.67      0.00
   12   14   10     -4.62      0.00
   13   14   10     -6.55      0.00
   14   14   10      5.00      0.00
    9   15   10    -10.03      0.00
   10   15   10     -1.76      0.00
   11   15   10      7.94      0.00
   12   15   10     -1.54      0.00
   13   15   10      4.72      0.00
   14   15   10     -5.58      0.00
   15   15   10    -14.33      0.00
    0   16   10      6.15      0.00
    9   16   10     -6.87      0.00
   10   16   10     -4.67      0.00
   11   16   10      1.36      0.00
   12   16   10     -1.73      0.00
   13   16   10     -3.26      0.00
   14   16   10     -2.62      0.00
   15   16   10     -0.70      0.00
   16   16   10      0.08      0.00
    6   17   10     -7.79      0.00
    9   17   10      5.73      0.00
   10   17   10      2.17      0.00
   11   17   10     -3.10      0.00
   12   17   10      0.96      0.00
   13   17   10      0.22      0.00
   14   17   10      3.68      0.00
   15   17   10     -2.29      0.00
   16   17   10     -6.61      0.00
   17   17   10     -1.31      0.00
    0   18   10     15.07      0.00
    1   18   10     21.88      0.00
    8   18   10      2.34      0.00
    9   18   10     -5.64      0.00
   10   18   10      2.32      0.00
   11   18   10     -3.79      0.00
   12   18   10      2.64      0.00
   13   18   10      1.09      0.00
   14   18   10     -5.04      0.00
   15   18   10      0.17      0.00
    5   19   10     -4.48      0.00
    6   19   10      5.79      0.00
    7   19   10      5.19      0.00
    8   19   10      1.96      0.00
    9   19   10     -2.34      0.00
   10   19   10      0.72      0.00
   11   19   10      4.62      0.00
   12   19   10     -1.86      0.00
   13   19   10     -5.12      0.00
   14   19   10      0.48      0.00
    0   20   10     -3.07      0.00
    1   20   10      6.76      0.00
    2   20   10      2.71      0.00
    3   20   10      4.50      0.00
    4   20   10     -8.57      0.00
    5   20   10      2.94      0.00
    6   20   10     -5.08      0.00
    7   20   10      4.68      0.00
    8   20   10      0.82      0.00
    9   20   10      2.52      0.00
   10   20   10     -7.55      0.00
   11   20   10      0.64      0.00
   12   20   10      1.27      0.00
   13   20   10      7.21      0.00
    1   21   10     -1.17      0.00
    2   21   10     -5.77      0.00
    3   21   10      5.02      0.00
    4   21   10     -0.52      0.00
    5   21   10      0.60      0.00
    6   21   10     -6.65      0.00
    7   21   10     -1.75      0.00
    8   21   10      1.44      0.00
    9   21   10      0.23      0.00
   10   21   10      0.76      0.00
   11   21   10      1.25      0.00
    2   10   11     -2.46      0.00
    9   10   11     -8.31      0.00
    5   11   11      3.62      0.00
    9   11   11      8.59      0.00
   10   11   11     23.76      0.00
    1   12   11     -1.50      0.00
    9   12   11     11.34      0.00
   10   12   11    -29.77      0.00
   11   12   11    -15.27      0.00
    2   13   11     -6.59      0.00
    9   13   11      8.53      0.00
   10   13   11      8.17      0.00
   11   13   11     -4.16      0.00
   12   13   11      3.79      0.00
    7   14   11     10.69      0.00
    9   14   11    -16.85      0.00
   10   14   11    -19.54      0.00
   11   14   11      1.00      0.00
   12   14   11      3.71      0.00
   13   14   11      2.14      0.00
    5   15   11     -9.20      0.00
    9   15   11     11.41      0.00
   10   15   11     -6.95      0.00
   11   15   11      2.67      0.00
   12   15   11      5.31      0.00
   13   15   11     -5.45      0.00
   14   15   11      0.95      0.00
    8   16   11     10.45      0.00
    9   16   11     14.04      0.00
   10   16   11      2.29      0.00
   11   16   11     -8.34      0.00
   12   16   11     -0.46      0.00
   13   16   11      6.11      0.00
   14   16   11      0.52      0.00
   15   16   11      3.04      0.00
    9   17   11      0.90      0.00
   10   17   11     -0.54      0.00
   11   17   11      6.95      0.00
   12   17   11     -3.51      0.00
   13   17   11     -3.80      0.00
   14   17   11     -1.49      0.00
   15   17   11      5.81      0.00
   16   17   11      2.20      0.00
    7   18   11      5.70      0.00
    8   18   11     -7.73      0.00
    9   18   11     -2.08      0.00
   10   18   11      3.32      0.00
   11   18   11     -3.97      0.00
   12   18   11     -5.75      0.00
   13   18   11     -3.44      0.00
   14   18   11      3.76      0.00
   15   18   11     -0.52      0.00
    4   19   11      6.80      0.00
    5   19   11      3.15      0.00
    6   19   11     -2.34      0.00
    7   19   11      1.96      0.00
    8   19   11      4.58      0.00
    9   19   11     -4.09      0.00
   10   19   11     -2.78      0.00
   11   19   11     -0.68      0.00
   12   19   11      5.26      0.00
   13   19   11     -2.20      0.00
   14   19   11      0.27      0.00
    1   20   11      0.03      0.00
    2   20   11     -2.27      0.00
    3   20   11     -6.37      0.00
    4   20   11     -0.24      0.00
    5   20   11     -6.16      0.00
    6   20   11     -3.50      0.00
    7   20   11     -1.45      0.00
    8   20   11      3.75      0.00
    9   20   11     -2.98      0.00
   10   20   11     -1.79      0.00
   11   20   11      0.48      0.00
   12   20   11     -3.71      0.00
   13   20   11     -2.50      0.00
    0   21   11      3.38      0.00
    1   21   11     -3.75      0.00
    2   21   11      6.04      0.00
    3   21   11      2.04      0.00
    4   21   11     -1.78      0.00
    5   21   11      7.75      0.00
    6   21   11      6.65      0.00
    7   21   11     -1.80      0.00
    8   21   11     -6.52      0.00
    9   21   11      1.43      0.00
   10   21   11     -0.05      0.00
   11   21   11     -2.44      0.00
    9    9   12     -1.64      0.00
    9   10   12     -5.63      0.00
   10   10   12    -23.79      0.00
    4   11   12     -4.60      0.00
   10   11   12     -4.02      0.00
   11   11   12     -4.82      0.00
    0   12   12    -16.00      0.00
    9   12   12     -8.40      0.00
   10   12   12      7.37      0.00
   11   12   12     10.73      0.00
   12   12   12     22.48      0.00
    9   13   12     -1.51      0.00
   10   13   12    -15.05      0.00
   11   13   12      6.59      0.00
   12   13   12      2.91      0.00
   13   13   12      0.23      0.00
    9   14   12     -9.82      0.00
   10   14   12     -1.50      0.00
   11   14   12     -2.56      0.00
   12   14   12     -9.03      0.00
   13   14   12      5.05      0.00
   14   14   12      9.11      0.00
    4   15   12      0.11      0.00
    9   15   12      4.18      0.00
   10   15   12      4.64      0.00
   11   15   12     -3.46      0.00
   12   15   12      5.93      0.00
   13   15   12      4.64      0.00
   14   15   12      6.77      0.00
   15   15   12      1.40      0.00
    9   16   12     -9.45      0.00
   10   16   12      9.30      0.00
   11   16   12      3.86      0.00
   12   16   12     -8.10      0.00
   13   16   12      1.25      0.00
   14   16   12      2.84      0.00
   15   16   12      1.25      0.00
   16   16   12     -1.53      0.00
    5   17   12     11.28      0.00
    9   17   12     -1.30      0.00
   10   17   12      1.08      0.00
   11   17   12     -0.10      0.00
   12   17   12     -2.50      0.00
   13   17   12     -3.59      0.00
   14   17   12      0.12      0.00
   15   17   12      3.83      0.00
   16   17   12     -2.02      0.00
    7   18   12     -7.92      0.00
    8   18   12      1.49      0.00
    9   18   12     10.70      0.00
   10   18   12     -4.71      0.00
   11   18   12      3.62      0.00
   12   18   12      4.07      0.00
   13   18   12      1.79      0.00
   14   18   12      3.07      0.00
   15   18   12     -0.17      0.00
    3   19   12      1.49      0.00
    4   19   12      1.87      0.00
    5   19   12      3.63      0.00
    6   19   12     -4.05      0.00
    7   19   12     -2.41      0.00
    8   19   12      0.67      0.00
    9   19   12      4.51      0.00
   10   19   12      2.50      0.00
   11   19   12     -1.72      0.00
   12   19   12     -3.91      0.00
   13   19   12     -1.97      0.00
   14   19   12     -0.80      0.00
    0   20   12      5.38      0.00
    1   20   12      2.23      0.00
    2   20   12      5.98      0.00
    3   20   12     -2.94      0.00
    4   20   12     -2.80      0.00
    5   20   12      5.06      0.00
    6   20   12      8.97      0.00
    7   20   12     -3.82      0.00
    8   20   12     -2.06      0.00
    9   20   12     -2.76      0.00
   10   20   12     -2.00      0.00
   11   20   12      1.37      0.00
   12   20   12     -3.00      0.00
    1   21   12     -4.82      0.00
    2   21   12     -8.26      0.00
    3   21   12      3.12      0.00
    4   21   12     -1.29      0.00
    5   21   12      2.27      0.00
    6   21   12      1.74      0.00
    7   21   12     -1.09      0.00
    8   21   12     -2.88      0.00
    9   21   12      0.72      0.00
   10   21   12      2.31      0.00
   11   21   12      2.44      0.00
    0   11   13     29.26      0.00
    1   11   13     14.33      0.00
    2   11   13    -12.02      0.00
    3   11   13    -10.96      0.00
    6   11   13      6.88      0.00
   10   11   13    -15.46      0.00
   10   12   13     -7.28      0.00
   11   12   13     25.13      0.00
    8   13   13     -0.55      0.00
   10   13   13      3.96      0.00
   11   13   13      0.30      0.00
   12   13   13     -2.55      0.00
    6   14   13     -4.06      0.00
   10   14   13    -15.85      0.00
   11   14   13    -14.57      0.00
   12   14   13     13.71      0.00
   13   14   13      2.89      0.00
    2   15   13     12.07      0.00
    3   15   13      7.64      0.00
    9   15   13     -6.52      0.00
   10   15   13     15.67      0.00
   11   15   13     -8.06      0.00
   12   15   13     -1.96      0.00
   13   15   13      5.86      0.00
   14   15   13     -7.60      0.00
    7   16   13    -12.71      0.00
    9   16   13      8.24      0.00
   10   16   13      0.37      0.00
   11   16   13      0.01      0.00
   12   16   13     -2.35      0.00
   13   16   13      1.13      0.00
   14   16   13      3.68      0.00
   15   16   13      2.50      0.00
    4   17   13     -1.74      0.00
    8   17   13     -6.46      0.00
    9   17   13      0.57      0.00
   10   17   13      0.41      0.00
   11   17   13      0.94      0.00
   12   17   13      6.70      0.00
   13   17   13     -2.22      0.00
   14   17   13      1.17      0.00
   15   17   13     -0.11      0.00
   16   17   13     -4.11      0.00
    6   18   13      3.79      0.00
    7   18   13      1.11      0.00
    8   18   13     -8.54      0.00
    9   18   13      7.03      0.00
   10   18   13      0.17      0.00
   11   18   13      2.79      0.00
   12   18   13     -2.31      0.00
   13   18   13     -0.73      0.00
   14   18   13     -2.79      0.00
   15   18   13     -1.64      0.00
    0   19   13     15.98      0.00
    1   19   13      7.74      0.00
    2   19   13      5.38      0.00
    3   19   13      1.47      0.00
    4   19   13      3.02      0.00
    5   19   13     -0.57      0.00
    6   19   13      4.56      0.00
    7   19   13      5.96      0.00
    8   19   13     -1.83      0.00
    9   19   13     -4.56      0.00
   10   19   13     -0.43      0.00
   11   19   13      4.29      0.00
   12   19   13      5.67      0.00
   13   19   13     -0.75      0.00
    1   20   13     -1.47      0.00
    2   20   13      0.92      0.00
    3   20   13     -7.98      0.00
    4   20   13     -3.28      0.00
    5   20   13     -7.56      0.00
    6   20   13     -2.24      0.00
    7   20   13     -0.65      0.00
    8   20   13     -3.78      0.00
    9   20   13      0.02      0.00
   10   20   13      5.23      0.00
   11   20   13      5.61      0.00
   12   20   13      5.32      0.00
    0   21   13     -1.17      0.00
    1   21   13      0.41      0.00
    2   21   13      6.47      0.00
    3   21   13     -1.00      0.00
    4   21   13      2.89      0.00
    5   21   13     -1.23      0.00
    6   21   13     -1.16      0.00
    7   21   13     -1.84      0.00
    8   21   13      5.10      0.00
    9   21   13     -3.43      0.00
   10   21   13      1.95      0.00
    2    2   14    -25.98      0.00
    7   10   14     -0.68      0.00
   10   10   14     -0.23      0.00
   10   11   14     -2.92      0.00
   11   11   14      1.01      0.00
    2   12   14      2.53      0.00
    9   12   14     -2.94      0.00
   10   12   14      1.09      0.00
   11   12   14      4.08      0.00
   12   12   14     -6.32      0.00
   10   13   14    -12.19      0.00
   11   13   14     -1.43      0.00
   12   13   14      1.57      0.00
   13   13   14      6.35      0.00
    5   14   14     -7.40      0.00
   10   14   14     -0.66      0.00
   11   14   14      2.72      0.00
   12   14   14     -7.78      0.00
   13   14   14      1.06      0.00
   14   14   14     -3.21      0.00
    1   15   14      7.50      0.00
   10   15   14      0.36      0.00
   11   15   14     -4.54      0.00
   12   15   14     -3.26      0.00
   13   15   14     -0.15      0.00
   14   15   14     -1.25      0.00
   15   15   14      0.74      0.00
    6   16   14      0.57      0.00
   10   16   14      8.79      0.00
   11   16   14     -0.81      0.00
   12   16   14     -0.10      0.00
   13   16   14     -0.60      0.00
   14   16   14      3.27      0.00
   15   16   14      2.22      0.00
   16   16   14      1.46      0.00
    2   17   14     12.20      0.00
    8   17   14     -8.57      0.00
    9   17   14     -2.96      0.00
   10   17   14     -2.95      0.00
   11   17   14     -4.01      0.00
   12   17   14     -1.04      0.00
   13   17   14      1.04      0.00
   14   17   14      3.03      0.00
   15   17   14     -0.90      0.00
   16   17   14     -1.15      0.00
    5   18   14      0.92      0.00
    6   18   14     -6.62      0.00
    7   18   14      2.90      0.00
    8   18   14      8.42      0.00
    9   18   14     -5.19      0.00
   10   18   14     -1.54      0.00
   11   18   14      4.05      0.00
   12   18   14      1.90      0.00
   13   18   14     -1.22      0.00
   14   18   14      1.08      0.00
    1   19   14     -3.84      0.00
    2   19   14      4.05      0.00
    3   19   14     -1.64      0.00
    4   19   14     -2.20      0.00
    5   19   14      1.89      0.00
    6   19   14     -6.19      0.00
    7   19   14      5.41      0.00
    8   19   14      7.89      0.00
    9   19   14     -5.01      0.00
   10   19   14     -3.10      0.00
   11   19   14      5.44      0.00
   12   19   14     -7.57      0.00
   13   19   14     -0.38      0.00
    0   20   14      9.79      0.00
    1   20   14      1.52      0.00
    2   20   14     -3.55      0.00
    3   20   14     -4.63      0.00
    4   20   14     -4.53      0.00
    5   20   14     -2.68      0.00
    6   20   14      5.16      0.00
    7   20   14     -4.32      0.00
    8   20   14     -4.27      0.00
    9   20   14      0.68      0.00
   10   20   14     -2.42      0.00
   11   20   14      1.39      0.00
   12   20   14     -1.93      0.00
    1   21   14     -1.36      0.00
    2   21   14      3.34      0.00
    3   21   14      0.07      0.00
    4   21   14      6.89      0.00
    5   21   14      0.76      0.00
    6   21   14      1.68      0.00
    7   21   14     -1.22      0.00
    8   21   14      1.22      0.00
    9   21   14     -1.04      0.00
   10   21   14      1.10      0.00
   10   12   15    -33.05      0.00
   11   12   15     -6.04      0.00
   10   13   15      3.05      0.00
   11   13   15     10.82      0.00
   12   13   15     -5.38      0.00
    4   14   15    -11.67      0.00
   10   14   15    -18.05      0.00
   11   14   15      6.35      0.00
   12   14   15     -7.05      0.00
   13   14   15      3.29      0.00
   10   15   15     -6.45      0.00
   11   15   15      6.19      0.00
   12   15   15      3.50      0.00
   13   15   15     -6.51      0.00
   14   15   15     -3.95      0.00
   10   16   15      6.55      0.00
   11   16   15     -7.78      0.00
   12   16   15     -2.14      0.00
   13   16   15     -0.64      0.00
   14   16   15     -4.29      0.00
   15   16   15      0.64      0.00
    7   17   15      1.90      0.00
    8   17   15      4.41      0.00
    9   17   15     -2.68      0.00
   10   17   15     -4.28      0.00
   11   17   15     -2.68      0.00
   12   17   15     -1.36      0.00
   13   17   15     -0.42      0.00
   14   17   15     -0.88      0.00
   15   17   15     -3.20      0.00
    4   18   15     14.44      0.00
    5   18   15      0.53      0.00
    6   18   15      5.53      0.00
    7   18   15     -4.49      0.00
    8   18   15     12.03      0.00
    9   18   15      4.36      0.00
   10   18   15      0.82      0.00
   11   18   15     -3.72      0.00
   12   18   15      0.93      0.00
   13   18   15     -0.91      0.00
   14   18   15      4.25      0.00
    0   19   15      4.31      0.00
    1   19   15      4.23      0.00
    2   19   15      0.99      0.00
    3   19   15      9.05      0.00
    4   19   15      5.07      0.00
    5   19   15     -2.89      0.00
    6   19   15     -6.04      0.00
    7   19   15      2.00      0.00
    8   19   15     -2.34      0.00
    9   19   15      1.91      0.00
   10   19   15     -4.01      0.00
   11   19   15     -0.88      0.00
   12   19   15     -2.94      0.00
   13   19   15      2.70      0.00
    1   20   15     -4.08      0.00
    2   20   15     -0.45      0.00
    3   20   15     -1.46      0.00
    4   20   15     -0.37      0.00
    5   20   15     -6.35      0.00
    6   20   15     -4.35      0.00
    7   20   15      0.33      0.00
    8   20   15     -0.40      0.00
    9   20   15      0.90      0.00
   10   20   15     -3.33      0.00
   11   20   15      0.04      0.00
    0   21   15     -3.80      0.00
    1   21   15     -2.29      0.00
    2   21   15     -4.60      0.00
    3   21   15     -3.77      0.00
    4   21   15      2.32      0.00
    5   21   15     -0.42      0.00
    6   21   15      0.51      0.00
    7   21   15     -0.91      0.00
    8   21   15      4.39      0.00
    9   21   15      0.51      0.00
    7    9   16     -6.43      0.00
   10   10   16     17.96      0.00
    3   11   16     -6.67      0.00
    9   11   16      6.26      0.00
   11   11   16      0.42      0.00
   10   12   16     -6.36      0.00
   11   12   16     -4.42      0.00
   12   12   16    -13.07      0.00
    6   13   16     -0.52      0.00
   10   13   16     17.61      0.00
   11   13   16      0.05      0.00
   12   13   16      5.28      0.00
   13   13   16      6.13      0.00
    3   14   16     14.40      0.00
    9   14   16     13.89      0.00
   10   14   16     -2.25      0.00
   11   14   16     -4.88      0.00
   12   14   16     10.29      0.00
   13   14   16      2.31      0.00
   14   14   16     -5.45      0.00
    7   15   16      8.10      0.00
   10   15   16     -7.13      0.00
   11   15   16      3.38      0.00
   12   15   16      1.93      0.00
   13   15   16     -0.81      0.00
   14   15   16     -6.18      0.00
   15   15   16     -5.33      0.00
    4   16   16      7.24      0.00
    9   16   16     12.54      0.00
   10   16   16     -7.15      0.00
   11   16   16      0.88      0.00
   12   16   16      1.39      0.00
   13   16   16     -1.42      0.00
   14   16   16     -1.84      0.00
   15   16   16      4.94      0.00
   16   16   16      0.94      0.00
    7   17   16    -14.03      0.00
    8   17   16    -14.44      0.00
    9   17   16      1.58      0.00
   10   17   16     -4.20      0.00
   11   17   16     -0.78      0.00
   12   17   16      3.80      0.00
   13   17   16     -4.28      0.00
   14   17   16      5.53      0.00
   15   17   16      1.24      0.00
    0   18   16     -5.47      0.00
    1   18   16     -3.16      0.00
    2   18   16     13.65      0.00
    3   18   16      5.13      0.00
    4   18   16      7.63      0.00
    5   18   16      2.90      0.00
    6   18   16    -11.10      0.00
    7   18   16     -0.87      0.00
    8   18   16     -1.37      0.00
    9   18   16      5.94      0.00
   10   18   16      0.18      0.00
   11   18   16     -4.02      0.00
   12   18   16      5.29      0.00
   13   18   16      0.35      0.00
   14   18   16     -4.33      0.00
    1   19   16      5.32      0.00
    2   19   16     -2.26      0.00
    3   19   16      2.51      0.00
    4   19   16     -2.55      0.00
    5   19   16      4.91      0.00
    6   19   16      1.88      0.00
    7   19   16      0.40      0.00
    8   19   16      0.15      0.00
    9   19   16     -3.20      0.00
   10   19   16      2.34      0.00
   11   19   16     -0.53      0.00
   12   19   16      0.12      0.00
    0   20   16     -0.91      0.00
    1   20   16     -4.15      0.00
    2   20   16     -1.17      0.00
    3   20   16     -6.15      0.00
    4   20   16     -1.81      0.00
    5   20   16      1.21      0.00
    6   20   16      5.07      0.00
    7   20   16      1.11      0.00
    8   20   16     -0.74      0.00
    9   20   16      0.49      0.00
   10   20   16      1.30      0.00
   11   20   16      1.82      0.00
    1   21   16      1.68      0.00
    2   21   16      0.97      0.00
    3   21   16      2.42      0.00
    4   21   16      5.13      0.00
    5   21   16      4.46      0.00
    6   21   16      6.23      0.00
    7   21   16      0.37      0.00
    8   21   16     -2.08      0.00
    9   21   16     -0.24      0.00
    0    7   17      2.93      0.00
    7   12   17    -11.41      0.00
   11   12   17      2.61      0.00
    5   13   17     -4.38      0.00
   11   13   17     16.09      0.00
   12   13   17      3.29      0.00
   11   14   17      1.12      0.00
   12   14   17     11.96      0.00
   13   14   17      8.00      0.00
   10   15   17      4.37      0.00
   11   15   17     -0.73      0.00
   12   15   17     -5.83      0.00
   13   15   17     -0.19      0.00
   14   15   17      0.67      0.00
    3   16   17      2.40      0.00
    9   16   17      7.19      0.00
   10   16   17      6.90      0.00
   11   16   17      0.50      0.00
   12   16   17     -2.14      0.00
   13   16   17     -0.97      0.00
   14   16   17      3.91      0.00
   15   16   17     -1.13      0.00
    6   17   17     12.31      0.00
    7   17   17     -5.27      0.00
    8   17   17     -0.12      0.00
    9   17   17     -6.97      0.00
   10   17   17     -4.39      0.00
   11   17   17      0.67      0.00
   12   17   17      5.37      0.00
   13   17   17      1.42      0.00
   14   17   17     -1.64      0.00
   15   17   17      1.59      0.00
    1   18   17      1.61      0.00
    2   18   17      7.17      0.00
    3   18   17     -4.81      0.00
    4   18   17     -2.50      0.00
    5   18   17     -5.58      0.00
    6   18   17     -2.56      0.00
    7   18   17     -1.86      0.00
    8   18   17     -0.94      0.00
    9   18   17     -1.88      0.00
   10   18   17     -5.10      0.00
   11   18   17      2.03      0.00
   12   18   17     -2.83      0.00
   13   18   17      0.33      0.00
    0   19   17     18.39      0.00
    1   19   17      1.04      0.00
    2   19   17      1.07      0.00
    3   19   17     -9.87      0.00
    4   19   17     -6.18      0.00
    5   19   17     -1.24      0.00
    6   19   17     -5.81      0.00
    7   19   17     -1.77      0.00
    8   19   17      3.60      0.00
    9   19   17      7.22      0.00
   10   19   17      0.30      0.00
   11   19   17     -1.73      0.00
   12   19   17      1.10      0.00
    1   20   17      1.05      0.00
    2   20   17     -1.29      0.00
    3   20   17     -2.73      0.00
    4   20   17     -1.89      0.00
    5   20   17     -1.98      0.00
    6   20   17     -1.95      0.00
    7   20   17     -0.44      0.00
    8   20   17      5.34      0.00
    9   20   17      0.94      0.00
   10   20   17     -2.24      0.00
    0   21   17      0.90      0.00
    1   21   17      0.91      0.00
    2   21   17     -3.14      0.00
    3   21   17      0.89      0.00
    4   21   17      2.58      0.00
    5   21   17      0.60      0.00
    6   21   17      2.41      0.00
    7   21   17     -1.79      0.00
    8   21   17     -3.57      0.00
    1    6   18     -3.13      0.00
    9   10   18      0.65      0.00
   11   11   18     21.30      0.00
    6   12   18     -3.66      0.00
   11   12   18    -13.26      0.00
   12   12   18    -14.64      0.00
    3   13   18      1.15      0.00
    9   13   18      1.49      0.00
   11   13   18      4.10      0.00
   12   13   18     -1.93      0.00
   13   13   18      2.62      0.00
   11   14   18      1.24      0.00
   12   14   18      8.49      0.00
   13   14   18     -5.97      0.00
   14   14   18     -5.56      0.00
    5   15   18     -8.28      0.00
   10   15   18      5.24      0.00
   11   15   18     -2.98      0.00
   12   15   18      2.46      0.00
   13   15   18     -2.93      0.00
   14   15   18     -3.95      0.00
   15   15   18     -0.16      0.00
    0   16   18     -1.07      0.00
    8   16   18     -4.47      0.00
    9   16   18     -4.80      0.00
   10   16   18     -4.21      0.00
   11   16   18     -2.12      0.00
   12   16   18     -1.37      0.00
   13   16   18     -6.17      0.00
   14   16   18      3.77      0.00
   15   16   18      0.76      0.00
    4   17   18     12.74      0.00
    5   17   18      2.27      0.00
    6   17   18    -16.81      0.00
    7   17   18      5.81      0.00
    8   17   18      1.06      0.00
    9   17   18     -3.15      0.00
   10   17   18     -5.64      0.00
   11   17   18      4.09      0.00
   12   17   18     -6.51      0.00
   13   17   18      3.51      0.00
   14   17   18      1.32      0.00
    0   18   18     -3.42      0.00
    1   18   18      4.18      0.00
    2   18   18      0.22      0.00
    3   18   18     14.17      0.00
    4   18   18      0.41      0.00
    5   18   18     -8.04      0.00
    6   18   18      3.60      0.00
    7   18   18      4.50      0.00
    8   18   18      2.46      0.00
    9   18   18      4.18      0.00
   10   18   18     -0.65      0.00
   11   18   18      4.33      0.00
   12   18   18      4.03      0.00
   13   18   18      2.02      0.00
    1   19   18     -0.12      0.00
    2   19   18     -2.83      0.00
    3   19   18     -1.50      0.00
    4   19   18     -2.61      0.00
    5   19   18      5.02      0.00
    6   19   18     -5.61      0.00
    7   19   18     -7.18      0.00
    8   19   18      1.38      0.00
    9   19   18      3.38      0.00
   10   19   18     -0.50      0.00
   11   19   18      1.91      0.00
   12   19   18      4.15      0.00
    0   20   18     -4.66      0.00
    1   20   18     -1.17      0.00
    2   20   18     -5.74      0.00
    3   20   18      2.21      0.00
    4   20   18     -0.95      0.00
    5   20   18     -3.33      0.00
    6   20   18      3.74      0.00
    7   20   18      3.92      0.00
    8   20   18     -2.95      0.00
    9   20   18     -3.40      0.00
   10   20   18      3.34      0.00
    1   21   18     -1.32      0.00
    2   21   18      0.43      0.00
    3   21   18      3.43      0.00
    4   21   18      1.04      0.00
    5   21   18     -3.01      0.00
    6   21   18      3.06      0.00
    7   21   18      1.93      0.00
    8   21   18     -3.26      0.00
    3    4   19     43.87      0.00
    0    5   19     27.21      0.00
    1    5   19     27.22      0.00
    7   11   19      5.57      0.00
    5   12   19     -0.81      0.00
   11   12   19     -3.99      0.00
    0   13   19     -4.36      0.00
    1   13   19     13.65      0.00
   11   13   19    -16.84      0.00
   12   13   19    -12.26      0.00
   11   14   19     -1.26      0.00
   12   14   19      2.65      0.00
   13   14   19      4.16      0.00
    4   15   19    -11.49      0.00
   10   15   19     13.58      0.00
   11   15   19      2.90      0.00
   12   15   19     -3.53      0.00
   13   15   19     -9.41      0.00
   14   15   19      2.77      0.00
    7   16   19      1.77      0.00
    8   16   19      5.54      0.00
    9   16   19     -7.71      0.00
   10   16   19      1.60      0.00
   11   16   19      3.10      0.00
   12   16   19      3.52      0.00
   13   16   19     -6.50      0.00
   14   16   19     -2.15      0.00
   15   16   19      0.77      0.00
    2   17   19      7.44      0.00
    3   17   19      1.42      0.00
    4   17   19     -3.15      0.00
    5   17   19      3.01      0.00
    6   17   19      1.32      0.00
    7   17   19     -2.20      0.00
    8   17   19      0.76      0.00
    9   17   19      2.97      0.00
   10   17   19     -7.34      0.00
   11   17   19      3.49      0.00
   12   17   19      6.04      0.00
   13   17   19      3.00      0.00
   14   17   19      0.99      0.00
    1   18   19     -0.38      0.00
    2   18   19      6.34      0.00
    3   18   19     -1.95      0.00
    4   18   19     -1.19      0.00
    5   18   19      3.30      0.00
    6   18   19      1.83      0.00
    7   18   19     -3.15      0.00
    8   18   19      1.67      0.00
    9   18   19      6.29      0.00
   10   18   19     -9.92      0.00
   11   18   19     -2.36      0.00
   12   18   19      3.35      0.00
   13   18   19     -2.40      0.00
    0   19   19     -0.79      0.00
    1   19   19     -1.60      0.00
    2   19   19     -0.72      0.00
    3   19   19      1.01      0.00
    4   19   19     -0.17      0.00
    5   19   19     -2.73      0.00
    6   19   19     -0.56      0.00
    7   19   19     -3.98      0.00
    8   19   19     -1.42      0.00
    9   19   19      2.63      0.00
   10   19   19      0.00      0.00
   11   19   19     -0.57      0.00
    1   20   19     -1.35      0.00
    2   20   19     -2.54      0.00
    3   20   19     -3.75      0.00
    4   20   19     -0.66      0.00
    5   20   19      2.31      0.00
    6   20   19      1.70      0.00
    7   20   19     -2.89      0.00
    8   20   19     -2.91      0.00
    9   20   19      9.02      0.00
    0   21   19     -2.63      0.00
    1   21   19     -3.13      0.00
    2   21   19      0.83      0.00
    3   21   19      0.98      0.00
    4   21   19      8.14      0.00
    5   21   19     -0.55      0.00
    6   21   19      0.09      0.00
    7   21   19      1.63      0.00
    2    3   20      6.92      0.00
    6   11   20      9.22      0.00
    9   12   20      3.59      0.00
   12   12   20      7.67      0.00
   11   13   20      1.52      0.00
   12   13   20     -5.01      0.00
   13   13   20     -3.56      0.00
   11   14   20    -15.95      0.00
   12   14   20     -4.39      0.00
   13   14   20      8.72      0.00
   14   14   20     -3.53      0.00
    1   15   20      0.93      0.00
    2   15   20     17.50      0.00
    9   15   20     -9.90      0.00
   10   15   20    -10.95      0.00
   11   15   20      6.44      0.00
   12   15   20      1.39      0.00
   13   15   20     -5.70      0.00
   14   15   20      3.64      0.00
   15   15   20      0.31      0.00
    6   16   20     -5.04      0.00
    7   16   20      0.67      0.00
    8   16   20     -5.57      0.00
    9   16   20      9.42      0.00
   10   16   20      5.95      0.00
   11   16   20     -2.77      0.00
   12   16   20      1.06      0.00
   13   16   20      2.17      0.00
   14   16   20      4.15      0.00
   15   16   20     -1.35      0.00
    1   17   20     -3.65      0.00
    2   17   20     -4.08      0.00
    3   17   20      3.17      0.00
    4   17   20     -5.93      0.00
    5   17   20     -0.87      0.00
    6   17   20     -1.37      0.00
    7   17   20     -1.97      0.00
    8   17   20      4.67      0.00
    9   17   20      4.74      0.00
   10   17   20      0.48      0.00
   11   17   20     -0.26      0.00
   12   17   20      2.31      0.00
   13   17   20     -3.38      0.00
    0   18   20     -2.08      0.00
    1   18   20      3.90      0.00
    2   18   20      2.61      0.00
    3   18   20      2.96      0.00
    4   18   20     -4.80      0.00
    5   18   20     -6.92      0.00
    6   18   20      4.74      0.00
    7   18   20     -1.57      0.00
    8   18   20     -2.02      0.00
    9   18   20     -3.90      0.00
   10   18   20      0.36      0.00
   11   18   20     -1.42      0.00
   12   18   20     -4.94      0.00
    1   19   20      5.26      0.00
    2   19   20     -5.08      0.00
    3   19   20      2.44      0.00
    4   19   20     -1.58      0.00
    5   19   20     -0.94      0.00
    6   19   20      4.97      0.00
    7   19   20     -0.88      0.00
    8   19   20      3.20      0.00
    9   19   20      3.12      0.00
   10   19   20     -2.69      0.00
    0   20   20     -5.30      0.00
    1   20   20      0.56      0.00
    2   20   20     -4.74      0.00
    3   20   20     -2.97      0.00
    4   20   20     -0.26      0.00
    5   20   20      7.13      0.00
    6   20   20      3.23      0.00
    7   20   20      2.51      0.00
    8   20   20      0.12      0.00
    9   20   20     -1.39      0.00
    1   21   20     -1.57      0.00
    2   21   20      4.64      0.00
    3   21   20      2.87      0.00
    4   21   20      1.50      0.00
    5   21   20      0.38      0.00
    6   21   20     -3.12      0.00
    8    9   21     19.44      0.00
    5   11   21     -2.71      0.00
    1   12   21     -1.27      0.00
   11   13   21     -1.73      0.00
   12   13   21     10.22      0.00
    4   14   21      4.04      0.00
   11   14   21     -2.37      0.00
   12   14   21      5.23      0.00
   13   14   21     -2.96      0.00
    8   15   21     -7.25      0.00
    9   15   21      0.93      0.00
   10   15   21      5.63      0.00
   11   15   21      2.19      0.00
   12   15   21      0.60      0.00
   13   15   21     -1.04      0.00
   14   15   21     -3.63      0.00
    5   16   21     -6.47      0.00
    6   16   21    -11.88      0.00
    7   16   21     -4.72      0.00
    8   16   21     -6.74      0.00
    9   16   21     -3.83      0.00
   10   16   21     -3.80      0.00
   11   16   21     -0.35      0.00
   12   16   21     -1.86      0.00
   13   16   21      0.94      0.00
   14   16   21      1.93      0.00
    0   17   21      1.97      0.00
    1   17   21     -2.04      0.00
    2   17   21     -1.83      0.00
    3   17   21      2.77      0.00
    4   17   21      4.79      0.00
    5   17   21      3.73      0.00
    6   17   21     -0.97      0.00
    7   17   21     10.13      0.00
    8   17   21     -2.19      0.00
    9   17   21      1.53      0.00
   10   17   21      3.15      0.00
   11   17   21     -0.24      0.00
   12   17   21      3.94      0.00
   13   17   21      2.52      0.00
    1   18   21     -1.48      0.00
    2   18   21     -5.97      0.00
    3   18   21     -7.52      0.00
    4   18   21     -0.14      0.00
    5   18   21      0.61      0.00
    6   18   21      0.40      0.00
    7   18   21      4.22      0.00
    8   18   21      2.79      0.00
    9   18   21      1.40      0.00
   10   18   21      1.28      0.00
   11   18   21     -1.20      0.00
   12   18   21      0.09      0.00
    0   19   21     -3.25      0.00
    1   19   21     -1.63      0.00
    2   19   21      1.16      0.00
    3   19   21     -6.33      0.00
    4   19   21      1.30      0.00
    5   19   21      4.39      0.00
    6   19   21      4.69      0.00
    7   19   21     -1.05      0.00
    8   19   21     -3.38      0.00
    9   19   21      1.05      0.00
   10   19   21     -4.08      0.00
    1   20   21      0.91      0.00
    2   20   21     -0.36      0.00
    3   20   21     -0.15      0.00
    4   20   21      4.85      0.00
    5   20   21     -2.74      0.00
    6   20   21      2.80      0.00
    7   20   21      0.21      0.00
    8   20   21      1.98      0.00
    0   21   21      0.89      0.00
    1   21   21      2.25      0.00
    2   21   21      4.46      0.00
    3   21   21      5.92      0.00
    4   21   21     -0.01      0.00
    5   21   21     -1.35      0.00
    0    0   22     -2.66      0.00
    8    8   22     -8.92      0.00
    7    9   22     -0.31      0.00
   10   10   22      1.61      0.00
    3   11   22     -5.33      0.00
    9   11   22     -0.71      0.00
   12   12   22     -9.90      0.00
   11   13   22     11.32      0.00
   12   13   22     -7.74      0.00
   13   13   22     -1.36      0.00
    2   14   22     -0.90      0.00
   10   14   22     -2.81      0.00
   11   14   22     -2.16      0.00
   12   14   22     -0.96      0.00
   13   14   22      4.00      0.00
   14   14   22      0.17      0.00
    7   15   22      8.58      0.00
    8   15   22      4.04      0.00
    9   15   22      2.85      0.00
   10   15   22     -3.67      0.00
   11   15   22     -8.45      0.00
   12   15   22      5.79      0.00
   13   15   22     -2.38      0.00
   14   15   22      0.49      0.00
   15   15   22      6.18      0.00
    0   16   22      0.42      0.00
    1   16   22      6.94      0.00
    2   16   22      4.83      0.00
    3   16   22     -3.58      0.00
    4   16   22     -0.59      0.00
    5   16   22     -4.73      0.00
    6   16   22      0.81      0.00
    7   16   22      0.74      0.00
    8   16   22    -10.11      0.00
    9   16   22     -1.25      0.00
   10   16   22      5.01      0.00
   11   16   22     -0.13      0.00
   12   16   22      0.63      0.00
   13   16   22      6.04      0.00
   14   16   22      3.78      0.00
    1   17   22      8.62      0.00
    2   17   22     -1.54      0.00
    3   17   22    -10.32      0.00
    4   17   22      3.88      0.00
    5   17   22     -0.31      0.00
    6   17   22      1.28      0.00
    7   17   22     -0.72      0.00
    8   17   22     -2.30      0.00
    9   17   22      2.84      0.00
   10   17   22      6.76      0.00
   11   17   22      0.84      0.00
   12   17   22     -2.47      0.00
    0   18   22      2.43      0.00
    1   18   22     -3.64      0.00
    2   18   22      3.01      0.00
    3   18   22      0.12      0.00
    4   18   22     -2.22      0.00
    5   18   22      1.42      0.00
    6   18   22     -2.72      0.00
    7   18   22      4.26      0.00
    8   18   22      4.91      0.00
    9   18   22     -3.25      0.00
   10   18   22     -4.33      0.00
   11   18   22      1.02      0.00
    1   19   22      0.56      0.00
    2   19   22      4.91      0.00
    3   19   22      2.16      0.00
    4   19   22     -3.35      0.00
    5   19   22      0.03      0.00
    6   19   22      0.92      0.00
    7   19   22     -0.13      0.00
    8   19   22     -0.18      0.00
    9   19   22     -5.54      0.00
    0   20   22      0.27      0.00
    1   20   22     -2.00      0.00
    2   20   22     -0.99      0.00
    3   20   22     -2.02      0.00
    4   20   22     -3.49      0.00
    5   20   22     -1.68      0.00
    6   20   22     -0.92      0.00
    7   20   22     -7.22      0.00
    1   21   22     -0.45      0.00
    2   21   22     -0.86      0.00
    3   21   22      4.49      0.00
    4    5   23      0.11      0.00
    7    8   23     -2.06      0.00
    6    9   23      8.22      0.00
    4   10   23      7.81      0.00
    8   11   23      0.41      0.00
    4   13   23     -9.55      0.00
   10   13   23     -4.27      0.00
   11   13   23      4.71      0.00
   12   13   23      1.33      0.00
    9   14   23     13.26      0.00
   10   14   23     -9.18      0.00
   11   14   23      4.35      0.00
   12   14   23      2.27      0.00
   13   14   23     -0.29      0.00
    6   15   23      5.27      0.00
    7   15   23      2.05      0.00
    8   15   23     -5.70      0.00
    9   15   23     -4.67      0.00
   10   15   23     -0.27      0.00
   11   15   23     -2.31      0.00
   12   15   23      3.46      0.00
   13   15   23     -3.47      0.00
   14   15   23     -0.80      0.00
    1   16   23      1.13      0.00
    2   16   23      2.23      0.00
    3   16   23      1.86      0.00
    4   16   23     -6.31      0.00
    5   16   23     -0.87      0.00
    6   16   23     -3.38      0.00
    7   16   23     -3.00      0.00
    8   16   23     -4.01      0.00
    9   16   23      0.37      0.00
   10   16   23      4.20      0.00
   11   16   23     -2.62      0.00
   12   16   23     -1.13      0.00
   13   16   23     -0.33      0.00
    0   17   23      2.05      0.00
    1   17   23     -6.36      0.00
    2   17   23      4.61      0.00
    3   17   23      0.96      0.00
    4   17   23     -3.25      0.00
    5   17   23      6.13      0.00
    6   17   23      5.44      0.00
    7   17   23      2.99      0.00
    8   17   23      3.81      0.00
    9   17   23      3.14      0.00
   10   17   23     -0.56      0.00
   11   17   23      2.23      0.00
   12   17   23     -0.42      0.00
    1   18   23     -1.26      0.00
    2   18   23      2.16      0.00
    3   18   23      1.30      0.00
    4   18   23     -8.87      0.00
    5   18   23      3.95      0.00
    6   18   23     -0.19      0.00
    7   18   23     -4.32      0.00
    8   18   23     -5.86      0.00
    9   18   23      1.32      0.00
   10   18   23      0.01      0.00
    0   19   23     -1.82      0.00
    1   19   23      4.22      0.00
    2   19   23     -2.19      0.00
    3   19   23      3.65      0.00
    4   19   23      3.49      0.00
    5   19   23      1.28      0.00
    6   19   23      3.22      0.00
    7   19   23     -3.43      0.00
    8   19   23     -1.65      0.00
    1   20   23      0.68      0.00
    2   20   23      2.33      0.00
    3   20   23     -0.96      0.00
    4   20   23      2.19      0.00
    5   20   23     -4.14      0.00
    6   20   23      3.48      0.00
    0    0   24    -25.11      0.00
    0    2   24    -21.91      0.00
    1    5   24     -2.30      0.00
    7    7   24     10.41      0.00
    6    8   24     -3.08      0.00
    0   10   24    -14.81      0.00
    1   10   24     -7.60      0.00
    7   11   24      6.47      0.00
    5   12   24      5.13      0.00
   12   12   24    -10.70      0.00
    1   13   24     -2.82      0.00
    2   13   24     -0.63      0.00
    9   13   24      7.09      0.00
   10   13   24    -13.46      0.00
   11   13   24     -6.02      0.00
   12   13   24     -4.78      0.00
   13   13   24      1.43      0.00
    9   14   24     -5.94      0.00
   10   14   24     -1.25      0.00
   11   14   24     -1.72      0.00
   12   14   24      0.86      0.00
   13   14   24     -0.75      0.00
   14   14   24     -6.59      0.00
    5   15   24     -7.93      0.00
    6   15   24     -6.89      0.00
    7   15   24      1.10      0.00
    8   15   24      1.08      0.00
    9   15   24      1.17      0.00
   10   15   24      9.41      0.00
   11   15   24     -4.30      0.00
   12   15   24     -7.67      0.00
   13   15   24      1.14      0.00
   14   15   24     -4.71      0.00
    0   16   24      9.49      0.00
    1   16   24    -11.10      0.00
    2   16   24      2.73      0.00
    3   16   24     -0.36      0.00
    4   16   24      3.80      0.00
    5   16   24     -9.58      0.00
    6   16   24     -1.38      0.00
    7   16   24     -1.08      0.00
    8   16   24      1.13      0.00
    9   16   24     -7.98      0.00
   10   16   24      2.84      0.00
   11   16   24      2.07      0.00
   12   16   24      1.14      0.00
    1   17   24    -12.05      0.00
    2   17   24     -0.74      0.00
    3   17   24     -0.57      0.00
    4   17   24      0.23      0.00
    5   17   24     -3.48      0.00
    6   17   24      1.08      0.00
    7   17   24      3.40      0.00
    8   17   24     -0.65      0.00
    9   17   24      3.06      0.00
   10   17   24     -0.35      0.00
   11   17   24      0.76      0.00
    0   18   24     -6.67      0.00
    1   18   24      3.68      0.00
    2   18   24     -1.71      0.00
    3   18   24     -1.72      0.00
    4   18   24      3.36      0.00
    5   18   24     -5.03      0.00
    6   18   24     -1.96      0.00
    7   18   24      0.30      0.00
    8   18   24      2.01      0.00
    9   18   24      2.08      0.00
   10   18   24     -0.96      0.00
    1   19   24      0.40      0.00
    2   19   24      2.54      0.00
    3   19   24     -0.81      0.00
    4   19   24      0.64      0.00
    5   19   24      2.86      0.00
    6   19   24     -1.21      0.00
    7   19   24      4.44      0.00
    0   20   24      1.59      0.00
    1   20   24     -3.02      0.00
    2   20   24     -2.76      0.00
    3   20   24      0.46      0.00
    4   20   24      1.19      0.00
    1    3   25     16.86      0.00
    6    7   25      1.61      0.00
    0    9   25     -6.30      0.00
    1    9   25     -4.69      0.00
    2    9   25      7.82      0.00
    6   11   25     -6.76      0.00
    3   12   25     -0.33      0.00
   11   12   25     -3.04      0.00
    0   13   25    -14.14      0.00
    8   13   25     -6.38      0.00
    9   13   25      7.46      0.00
   10   13   25      2.57      0.00
   11   13   25     -5.00      0.00
   12   13   25      1.32      0.00
    8   14   25     -1.86      0.00
    9   14   25      2.21      0.00
   10   14   25      8.70      0.00
   11   14   25     -0.14      0.00
   12   14   25     -3.19      0.00
   13   14   25      3.36      0.00
    0   15   25      0.43      0.00
    1   15   25      2.42      0.00
    2   15   25     -2.21      0.00
    3   15   25      6.04      0.00
    4   15   25     -5.30      0.00
    5   15   25     -1.18      0.00
    6   15   25      6.88      0.00
    7   15   25     -1.34      0.00
    8   15   25     -0.45      0.00
    9   15   25      4.03      0.00
   10   15   25     -2.83      0.00
   11   15   25      3.20      0.00
   12   15   25     -2.70      0.00
   13   15   25      1.76      0.00
    1   16   25     -3.16      0.00
    2   16   25     -7.51      0.00
    3   16   25      4.49      0.00
    4   16   25     -0.45      0.00
    5   16   25     -5.01      0.00
    6   16   25     -2.55      0.00
    7   16   25     -3.59      0.00
    8   16   25      5.26      0.00
    9   16   25     -3.81      0.00
   10   16   25     -1.32      0.00
   11   16   25     -0.76      0.00
   12   16   25     -0.97      0.00
    0   17   25     -5.46      0.00
    1   17   25      0.44      0.00
    2   17   25     -1.32      0.00
    3   17   25      1.21      0.00
    4   17   25      1.81      0.00
    5   17   25     -1.40      0.00
    6   17   25      4.30      0.00
    7   17   25     -0.27      0.00
    8   17   25     -0.87      0.00
    9   17   25     -2.51      0.00
   10   17   25      0.06      0.00
    1   18   25     -0.27      0.00
    2   18   25      1.19      0.00
    3   18   25     -0.48      0.00
    4   18   25      3.55      0.00
    5   18   25     -0.58      0.00
    6   18   25     -2.32      0.00
    7   18   25      0.80      0.00
    8   18   25     -2.11      0.00
    9   18   25      0.59      0.00
    0   19   25      5.50      0.00
    1   19   25     -4.57      0.00
    2   19   25     -1.99      0.00
    3   19   25      3.47      0.00
    4   19   25     -3.32      0.00
    5   19   25      0.01      0.00
    6   19   25     -2.75      0.00
    1   20   25      2.79      0.00
    2   20   25     -2.46      0.00
    0    0   26     15.02      0.00
    4    7   26     13.05      0.00
    1    8   26     -2.13      0.00
    2    8   26     -4.60      0.00
    6   10   26      2.71      0.00
    4   11   26      7.10      0.00
   10   11   26    -13.63      0.00
   11   11   26     -8.80      0.00
   10   12   26      2.83      0.00
   11   12   26      0.34      0.00
   12   12   26      6.22      0.00
    7   13   26      1.05      0.00
    8   13   26      1.38      0.00
    9   13   26      7.25      0.00
   10   13   26      1.65      0.00
   11   13   26      0.56      0.00
   12   13   26      0.51      0.00
   13   13   26      9.33      0.00
    0   14   26      6.24      0.00
    6   14   26     -1.19      0.00
    7   14   26      1.01      0.00
    8   14   26     -2.30      0.00
    9   14   26     -1.76      0.00
   10   14   26      5.00      0.00
   11   14   26      5.33      0.00
   12   14   26     -2.49      0.00
   13   14   26     -0.05      0.00
    1   15   26      5.68      0.00
    2   15   26      6.09      0.00
    3   15   26     -0.34      0.00
    4   15   26     -4.96      0.00
    5   15   26      2.15      0.00
    6   15   26     -2.11      0.00
    7   15   26     -0.03      0.00
    8   15   26      2.25      0.00
    9   15   26     -1.69      0.00
   10   15   26      4.05      0.00
   11   15   26     -3.04      0.00
   12   15   26     -1.89      0.00
    0   16   26     -0.99      0.00
    1   16   26     -1.50      0.00
    2   16   26     -0.03      0.00
    3   16   26     -0.87      0.00
    4   16   26      8.00      0.00
    5   16   26      2.81      0.00
    6   16   26      2.19      0.00
    7   16   26      4.00      0.00
    8   16   26     -3.41      0.00
    9   16   26     -4.82      0.00
   10   16   26     -0.79      0.00
   11   16   26      4.89      0.00
    1   17   26     -1.94      0.00
    2   17   26      4.54      0.00
    3   17   26     -1.49      0.00
    4   17   26      2.21      0.00
    5   17   26     -8.41      0.00
    6   17   26      5.58      0.00
    7   17   26      2.44      0.00
    8   17   26      1.24      0.00
    9   17   26      0.06      0.00
   10   17   26     -0.35      0.00
    0   18   26     -3.50      0.00
    1   18   26     -0.48      0.00
    2   18   26      7.43      0.00
    3   18   26     -2.75      0.00
    4   18   26      0.38      0.00
    5   18   26      5.74      0.00
    6   18   26     -4.04      0.00
    7   18   26      2.08      0.00
    8   18   26     -3.53      0.00
    1   19   26     -0.41      0.00
    2   19   26      3.13      0.00
    3   19   26     -2.12      0.00
    4   19   26     -1.49      0.00
    5   19   26      3.11      0.00
    4    6   27     20.84      0.00
    0    7   27    -18.04      0.00
    1    7   27      2.55      0.00
    2    7   27      4.60      0.00
    0   11   27      9.05      0.00
    1   11   27     -2.25      0.00
   10   11   27      2.27      0.00
    9   12   27     -2.67      0.00
   10   12   27      0.47      0.00
   11   12   27     -3.67      0.00
    0   13   27     -1.13      0.00
    6   13   27      3.59      0.00
    7   13   27      7.67      0.00
    8   13   27     -3.24      0.00
    9   13   27     -6.16      0.00
   10   13   27      2.68      0.00
   11   13   27      5.03      0.00
   12   13   27      1.48      0.00
    1   14   27      7.24      0.00
    4   14   27     -2.48      0.00
    5   14   27      1.04      0.00
    6   14   27      7.49      0.00
    7   14   27     -6.56      0.00
    8   14   27      0.72      0.00
    9   14   27      3.39      0.00
   10   14   27      0.47      0.00
   11   14   27     -5.28      0.00
   12   14   27      0.24      0.00
   13   14   27      2.33      0.00
    0   15   27      1.17      0.00
    1   15   27     -5.18      0.00
    2   15   27     -1.90      0.00
    3   15   27     -4.98      0.00
    4   15   27     -2.28      0.00
    5   15   27     -1.79      0.00
    6   15   27     -1.53      0.00
    7   15   27     -9.11      0.00
    8   15   27      6.53      0.00
    9   15   27     -1.68      0.00
   10   15   27      1.06      0.00
   11   15   27     -1.94      0.00
   12   15   27      4.36      0.00
    1   16   27      2.09      0.00
    2   16   27      1.44      0.00
    3   16   27      0.83      0.00
    4   16   27     -0.53      0.00
    5   16   27      5.69      0.00
    6   16   27      0.89      0.00
    7   16   27      1.77      0.00
    8   16   27      2.39      0.00
    9   16   27      3.70      0.00
   10   16   27     -0.72      0.00
    0   17   27      4.68      0.00
    1   17   27      3.08      0.00
    2   17   27     -2.64      0.00
    3   17   27      1.81      0.00
    4   17   27      0.81      0.00
    5   17   27      0.78      0.00
    6   17   27      0.92      0.00
    7   17   27     -4.14      0.00
    8   17   27      2.28      0.00
    9   17   27     -2.24      0.00
    1   18   27      1.46      0.00
    2   18   27      3.07      0.00
    3   18   27      3.53      0.00
    4   18   27     -2.90      0.00
    5   18   27      0.62      0.00
    6   18   27      2.15      0.00
    7   18   27      0.94      0.00
    0   19   27      2.16      0.00
    1   19   27     -2.37      0.00
    2   19   27      1.45      0.00
    3   19   27      0.63      0.00
    0    0   28    -13.91      0.00
    1    1   28    -11.83      0.00
    4    4   28     -8.05      0.00
    3    5   28     -4.63      0.00
    5    9   28     -9.90      0.00
    2   10   28     -7.03      0.00
    9   10   28      4.14      0.00
   10   10   28     -4.19      0.00
    8   11   28     -0.28      0.00
    9   11   28      8.64      0.00
   10   11   28     -0.78      0.00
   11   11   28     -8.02      0.00
    8   12   28     -2.35      0.00
    9   12   28     -3.72      0.00
   10   12   28     -0.74      0.00
   11   12   28     -3.00      0.00
   12   12   28      3.58      0.00
    1   13   28     -3.70      0.00
    4   13   28      4.57      0.00
    5   13   28      0.22      0.00
    6   13   28     -0.87      0.00
    7   13   28     -1.98      0.00
    8   13   28      1.15      0.00
    9   13   28     -2.75      0.00
   10   13   28     -1.61      0.00
   11   13   28      2.07      0.00
   12   13   28     -3.87      0.00
   13   13   28     -0.32      0.00
    0   14   28     -5.20      0.00
    1   14   28     -2.40      0.00
    2   14   28     -3.44      0.00
    3   14   28      1.13      0.00
    4   14   28      3.61      0.00
    5   14   28     -4.54      0.00
    6   14   28      1.18      0.00
    7   14   28      1.70      0.00
    8   14   28     -3.99      0.00
    9   14   28     -0.69      0.00
   10   14   28     -0.99      0.00
   11   14   28     -2.07      0.00
   12   14   28     -2.38      0.00
    1   15   28      4.71      0.00
    2   15   28      0.38      0.00
    3   15   28     -2.94      0.00
    4   15   28     -3.78      0.00
    5   15   28     -1.44      0.00
    6   15   28     -6.46      0.00
    7   15   28     -0.18      0.00
    8   15   28     -0.42      0.00
    9   15   28      5.72      0.00
   10   15   28      4.54      0.00
   11   15   28     -5.17      0.00
    0   16   28     -6.93      0.00
    1   16   28     -2.69      0.00
    2   16   28     -1.79      0.00
    3   16   28     -3.06      0.00
    4   16   28      0.65      0.00
    5   16   28      4.83      0.00
    6   16   28      0.38      0.00
    7   16   28     -1.48      0.00
    8   16   28      2.58      0.00
    9   16   28     -1.06      0.00
   10   16   28     -3.15      0.00
    1   17   28      0.57      0.00
    2   17   28      1.50      0.00
    3   17   28      0.11      0.00
    4   17   28     -1.98      0.00
    5   17   28     -5.93      0.00
    6   17   28      0.76      0.00
    7   17   28      1.07      0.00
    8   17   28     -3.51      0.00
    0   18   28      7.33      0.00
    1   18   28      0.95      0.00
    2   18   28     -0.70      0.00
    3   18   28     -1.81      0.00
    4   18   28     -1.17      0.00
    5   18   28     -0.50      0.00
    0    1   29    -16.14      0.00
    2    3   29     -1.79      0.00
    6    7   29     -2.29      0.00
    2    9   29     -3.62      0.00
    8   10   29      1.34      0.00
    9   10   29     -4.50      0.00
    7   11   29      7.39      0.00
    8   11   29     -3.55      0.00
    9   11   29     -6.51      0.00
   10   11   29      0.03      0.00
    6   12   29      0.11      0.00
    7   12   29     -5.38      0.00
    8   12   29      2.33      0.00
    9   12   29     -3.56      0.00
   10   12   29     -7.05      0.00
   11   12   29     -3.20      0.00
    0   13   29     -0.33      0.00
    1   13   29      6.19      0.00
    2   13   29      6.93      0.00
    3   13   29      3.47      0.00
    4   13   29     14.17      0.00
    5   13   29      4.04      0.00
    6   13   29     -3.20      0.00
    7   13   29      5.14      0.00
    8   13   29      0.42      0.00
    9   13   29     -3.45      0.00
   10   13   29      3.34      0.00
   11   13   29      3.73      0.00
   12   13   29     -0.49      0.00
    1   14   29      5.61      0.00
    2   14   29      2.66      0.00
    3   14   29     -3.51      0.00
    4   14   29      4.48      0.00
    5   14   29      1.16      0.00
    6   14   29     -3.26      0.00
    7   14   29      1.09      0.00
    8   14   29      3.40      0.00
    9   14   29      0.40      0.00
   10   14   29     -2.00      0.00
   11   14   29     -3.75      0.00
    0   15   29      2.27      0.00
    1   15   29      2.03      0.00
    2   15   29     -3.58      0.00
    3   15   29     -0.10      0.00
    4   15   29      1.08      0.00
    5   15   29      3.90      0.00
    6   15   29     -4.38      0.00
    7   15   29      0.54      0.00
    8   15   29     -0.63      0.00
    9   15   29     -1.84      0.00
   10   15   29      0.24      0.00
    1   16   29     -1.63      0.00
    2   16   29     -0.72      0.00
    3   16   29     -1.80      0.00
    4   16   29     -2.35      0.00
    5   16   29      3.46      0.00
    6   16   29      5.27      0.00
    7   16   29     -2.36      0.00
    8   16   29      4.47      0.00
    9   16   29      0.12      0.00
    0   17   29     -3.18      0.00
    1   17   29     -2.00      0.00
    2   17   29      0.38      0.00
    3   17   29     -0.96      0.00
    4   17   29      2.92      0.00
    5   17   29     -0.50      0.00
    6   17   29     -2.64      0.00
    7   17   29      1.14      0.00
    1   18   29     -1.73      0.00
    2   18   29      2.24      0.00
    3   18   29     -0.63      0.00
    0    0   30     28.07      0.00
    1    1   30    -21.99      0.00
    4    7   30      0.02      0.00
    0    8   30      8.49      0.00
    1    8   30      4.54      0.00
    2    8   30     -9.98      0.00
    8    8   30     -4.51      0.00
    7    9   30     -1.19      0.00
    8    9   30     -4.14      0.00
    9    9   30      2.57      0.00
    7   10   30      0.15      0.00
    8   10   30     -4.69      0.00
    9   10   30      1.03      0.00
   10   10   30      4.45      0.00
    6   11   30      1.20      0.00
    7   11   30      2.24      0.00
    8   11   30     -0.26      0.00
    9   11   30      5.47      0.00
   10   11   30      3.41      0.00
   11   11   30      1.81      0.00
    0   12   30      7.57      0.00
    1   12   30     -2.47      0.00
    2   12   30      2.97      0.00
    4   12   30     -5.56      0.00
    5   12   30     -4.26      0.00
    6   12   30     -0.52      0.00
    7   12   30     -0.52      0.00
    8   12   30     -0.04      0.00
    9   12   30     -1.71      0.00
   10   12   30     -1.79      0.00
   11   12   30      4.83      0.00
   12   12   30      2.82      0.00
    1   13   30      0.06      0.00
    2   13   30      1.70      0.00
    3   13   30     -3.19      0.00
    4   13   30     -0.66      0.00
    5   13   30      1.82      0.00
    6   13   30      2.27      0.00
    7   13   30     -0.87      0.00
    8   13   30      5.83      0.00
    9   13   30      0.68      0.00
   10   13   30      2.86      0.00
   11   13   30      0.09      0.00
   12   13   30      3.76      0.00
    0   14   30     -3.10      0.00
    1   14   30     -3.05      0.00
    2   14   30     -1.50      0.00
    3   14   30      0.82      0.00
    4   14   30     -1.56      0.00
    5   14   30     -8.30      0.00
    6   14   30      1.01      0.00
    7   14   30      0.10      0.00
    8   14   30      0.72      0.00
    9   14   30     -0.19      0.00
   10   14   30     -4.09      0.00
   11   14   30      2.87      0.00
    1   15   30      3.18      0.00
    2   15   30     -1.71      0.00
    3   15   30     -0.40      0.00
    4   15   30      0.74      0.00
    5   15   30     -3.05      0.00
    6   15   30     -2.26      0.00
    7   15   30      2.34      0.00
    8   15   30     -3.31      0.00
    9   15   30      4.73      0.00
    0   16   30     -2.61      0.00
    1   16   30     -0.36      0.00
    2   16   30     -5.22      0.00
    3   16   30      3.52      0.00
    4   16   30      5.85      0.00
    5   16   30      7.37      0.00
    6   16   30     -1.93      0.00
    7   16   30     -2.06      0.00
    1   17   30      2.94      0.00
    2   17   30      4.48      0.00
    3   17   30     -1.75      0.00
    4   17   30     -3.33      0.00
    5   17   30      1.00      0.00
    0    1   31     -0.54      0.00
    3    6   31      4.05      0.00
    0    7   31     11.14      0.00
    7    8   31      2.15      0.00
    6    9   31     -2.57      0.00
    7    9   31     -7.46      0.00
    8    9   31      3.35      0.00
    5   10   31     -3.38      0.00
    6   10   31     -5.52      0.00
    7   10   31     -2.35      0.00
    8   10   31     -0.33      0.00
    9   10   31      1.42      0.00
    0   11   31      1.83      0.00
    1   11   31      2.43      0.00
    4   11   31     -2.50      0.00
    5   11   31    -13.30      0.00
    6   11   31      6.68      0.00
    7   11   31      6.91      0.00
    8   11   31     -2.89      0.00
    9   11   31      1.97      0.00
   10   11   31      3.23      0.00
    1   12   31     -4.49      0.00
    2   12   31      0.02      0.00
    3   12   31     -2.89      0.00
    4   12   31     -3.50      0.00
    5   12   31      2.20      0.00
    6   12   31     -0.70      0.00
    7   12   31      1.06      0.00
    8   12   31     -0.15      0.00
    9   12   31      3.80      0.00
   10   12   31      5.33      0.00
   11   12   31     -0.33      0.00
    0   13   31      5.17      0.00
    1   13   31      2.30      0.00
    2   13   31      8.92      0.00
    3   13   31      4.47      0.00
    4   13   31     -3.58      0.00
    5   13   31      3.79      0.00
    6   13   31      4.92      0.00
    7   13   31     -0.04      0.00
    8   13   31     -1.64      0.00
    9   13   31     -0.74      0.00
   10   13   31     -2.87      0.00
   11   13   31     -1.97      0.00
    1   14   31      0.07      0.00
    2   14   31     -6.25      0.00
    3   14   31     -4.15      0.00
    4   14   31     -5.56      0.00
    5   14   31     -5.21      0.00
    6   14   31      1.13      0.00
    7   14   31      1.99      0.00
    8   14   31     -6.64      0.00
    9   14   31     -1.26      0.00
   10   14   31     -0.51      0.00
    0   15   31      0.41      0.00
    1   15   31      0.09      0.00
    2   15   31      0.41      0.00
    3   15   31      0.41      0.00
    4   15   31     -1.74      0.00
    5   15   31     -4.07      0.00
    6   15   31      0.47      0.00
    7   15   31      3.19      0.00
    8   15   31     -2.33      0.00
    1   16   31     -2.69      0.00
    2   16   31      1.59      0.00
    3   16   31      1.91      0.00
    4   16   31     -0.50      0.00
    5   16   31      0.50      0.00
    6   16   31     -1.99      0.00
    0   17   31     -0.53      0.00
    1   17   31      1.09      0.00
    2   17   31      0.78      0.00
    3   17   31      0.00      0.00
    0    0   32     10.53      0.00
    1    1   32      6.43      0.00
    0    2   32     19.32      0.00
    1    2   32      9.57      0.00
    2    2   32     20.59      0.00
    3    4   32     10.80      0.00
    1    5   32     11.81      0.00
    6    7   32    -11.21      0.00
    7    7   32     -1.06      0.00
    5    8   32      1.70      0.00
    6    8   32     -1.87      0.00
    7    8   32      0.21      0.00
    8    8   32      8.16      0.00
    4    9   32     -8.27      0.00
    5    9   32     -1.41      0.00
    6    9   32      8.84      0.00
    7    9   32     -2.42      0.00
    8    9   32     -4.74      0.00
    9    9   32      0.72      0.00
    0   10   32     -2.56      0.00
    1   10   32      1.86      0.00
    4   10   32      6.71      0.00
    5   10   32      3.36      0.00
    6   10   32      1.32      0.00
    7   10   32     -1.38      0.00
    8   10   32      1.78      0.00
    9   10   32      0.52      0.00
   10   10   32      2.76      0.00
    1   11   32     -0.76      0.00
    2   11   32      0.90      0.00
    3   11   32      2.03      0.00
    4   11   32     -0.55      0.00
    5   11   32      4.54      0.00
    6   11   32      1.93      0.00
    7   11   32     -1.15      0.00
    8   11   32     -2.39      0.00
    9   11   32      2.36      0.00
   10   11   32     -1.81      0.00
   11   11   32      2.18      0.00
    0   12   32    -10.62      0.00
    1   12   32     -4.80      0.00
    2   12   32      2.46      0.00
    3   12   32     -1.35      0.00
    4   12   32     -4.59      0.00
    5   12   32     -1.30      0.00
    6   12   32     -1.38      0.00
    7   12   32     -2.53      0.00
    8   12   32     -5.92      0.00
    9   12   32     -3.05      0.00
   10   12   32     -3.43      0.00
   11   12   32     -1.34      0.00
    1   13   32     -2.48      0.00
    2   13   32     -2.07      0.00
    3   13   32      0.50      0.00
    4   13   32      1.76      0.00
    5   13   32      3.37      0.00
    6   13   32      0.27      0.00
    7   13   32      4.94      0.00
    8   13   32     -2.63      0.00
    9   13   32     -0.37      0.00
   10   13   32     -0.75      0.00
    0   14   32      3.37      0.00
    1   14   32     -2.80      0.00
    2   14   32     -4.05      0.00
    3   14   32      5.48      0.00
    4   14   32      7.32      0.00
    5   14   32      0.04      0.00
    6   14   32     -4.24      0.00
    7   14   32      0.26      0.00
    8   14   32      3.11      0.00
    9   14   32     -4.56      0.00
    1   15   32     -2.26      0.00
    2   15   32     -1.74      0.00
    3   15   32      2.33      0.00
    4   15   32      0.72      0.00
    5   15   32     -1.69      0.00
    6   15   32      0.04      0.00
    7   15   32     -0.81      0.00
    0   16   32     -1.15      0.00
    1   16   32      0.63      0.00
    2   16   32     -5.04      0.00
    3   16   32      0.01      0.00
    4   16   32      3.13      0.00
    0    1   33     10.77      0.00
    1    2   33    -17.74      0.00
    5    6   33      4.82      0.00
    4    7   33     -2.68      0.00
    5    7   33     -0.89      0.00
    6    7   33      0.69      0.00
    4    8   33     -3.45      0.00
    5    8   33      6.12      0.00
    6    8   33      1.16      0.00
    7    8   33     -5.80      0.00
    0    9   33     11.80      0.00
    1    9   33      4.88      0.00
    4    9   33      9.33      0.00
    5    9   33     -0.83      0.00
    6    9   33      1.28      0.00
    7    9   33      4.98      0.00
    8    9   33      2.68      0.00
    1   10   33      5.08      0.00
    2   10   33      4.22      0.00
    3   10   33     -2.66      0.00
    4   10   33      7.37      0.00
    5   10   33     -4.22      0.00
    6   10   33     -0.91      0.00
    7   10   33     -0.85      0.00
    8   10   33     -1.70      0.00
    9   10   33     -3.07      0.00
    0   11   33     -3.12      0.00
    1   11   33      0.67      0.00
    2   11   33     -1.79      0.00
    3   11   33     -2.90      0.00
    4   11   33     -5.98      0.00
    5   11   33     -1.20      0.00
    6   11   33     -1.81      0.00
    7   11   33     -0.08      0.00
    8   11   33      2.33      0.00
    9   11   33     -0.86      0.00
   10   11   33     -3.83      0.00
    1   12   33      0.64      0.00
    2   12   33      6.16      0.00
    3   12   33      5.47      0.00
    4   12   33      4.76      0.00
    5   12   33      2.80      0.00
    6   12   33      3.79      0.00
    7   12   33     -0.26      0.00
    8   12   33     -1.39      0.00
    9   12   33      2.99      0.00
   10   12   33      2.40      0.00
    0   13   33      2.65      0.00
    1   13   33     -0.23      0.00
    2   13   33      5.11      0.00
    3   13   33      2.70      0.00
    4   13   33     -5.76      0.00
    5   13   33      0.65      0.00
    6   13   33      1.72      0.00
    7   13   33     -1.18      0.00
    8   13   33     -2.14      0.00
    9   13   33      0.12      0.00
    1   14   33     -4.28      0.00
    2   14   33     -7.68      0.00
    3   14   33      2.95      0.00
    4   14   33     -5.42      0.00
    5   14   33     -1.09      0.00
    6   14   33     -2.29      0.00
    7   14   33      0.08      0.00
    0   15   33     -2.96      0.00
    1   15   33     -0.65      0.00
    2   15   33      2.95      0.00
    3   15   33      3.14      0.00
    4   15   33      0.12      0.00
    5   15   33     -0.50      0.00
    1   16   33      2.62      0.00
    0    0   34     -9.96      0.00
    1    1   34     -4.52      0.00
    0    2   34     -6.97      0.00
    1    2   34     -2.07      0.00
    2    2   34    -11.71      0.00
    4    4   34      7.74      0.00
    4    5   34      2.11      0.00
    5    5   34    -12.82      0.00
    4    6   34     -3.95      0.00
    5    6   34      2.99      0.00
    6    6   34     -1.02      0.00
    4    7   34      9.36      0.00
    5    7   34      0.97      0.00
    6    7   34      1.02      0.00
    7    7   34     -7.18      0.00
    0    8   34     -0.81      0.00
    1    8   34     -2.14      0.00
    2    8   34      7.08      0.00
    4    8   34     -0.43      0.00
    5    8   34     -0.22      0.00
    6    8   34     -0.07      0.00
    7    8   34      1.61      0.00
    8    8   34      4.60      0.00
    1    9   34     -2.85      0.00
    2    9   34      2.92      0.00
    3    9   34     -4.65      0.00
    4    9   34      2.65      0.00
    5    9   34     -1.61      0.00
    6    9   34      0.18      0.00
    7    9   34      5.87      0.00
    8    9   34     -6.44      0.00
    9    9   34     -9.56      0.00
    0   10   34      1.29      0.00
    1   10   34     -1.97      0.00
    2   10   34      4.45      0.00
    3   10   34     -2.51      0.00
    4   10   34     -0.63      0.00
    5   10   34      4.58      0.00
    6   10   34     -0.72      0.00
    7   10   34     -0.41      0.00
    8   10   34     -2.82      0.00
    9   10   34      0.22      0.00
   10   10   34     -1.67      0.00
    1   11   34     -4.39      0.00
    2   11   34     -3.53      0.00
    3   11   34     -0.06      0.00
    4   11   34     -6.09      0.00
    5   11   34      0.72      0.00
    6   11   34     -1.19      0.00
    7   11   34      1.50      0.00
    8   11   34     -0.25      0.00
    9   11   34      1.72      0.00
   10   11   34      2.53      0.00
    0   12   34     -1.63      0.00
    1   12   34      5.00      0.00
    2   12   34      3.67      0.00
    3   12   34      1.07      0.00
    4   12   34     -3.89      0.00
    5   12   34      0.09      0.00
    6   12   34      0.06      0.00
    7   12   34      1.88      0.00
    8   12   34     -0.27      0.00
    9   12   34      4.24      0.00
    1   13   34      5.09      0.00
    2   13   34      4.12      0.00
    3   13   34      0.59      0.00
    4   13   34      0.96      0.00
    5   13   34     -1.13      0.00
    6   13   34      3.28      0.00
    7   13   34      2.21      0.00
    8   13   34      3.80      0.00
    0   14   34      4.53      0.00
    1   14   34     -2.06      0.00
    2   14   34     -0.62      0.00
    3   14   34      1.64      0.00
    4   14   34     -1.37      0.00
    5   14   34      0.83      0.00
    6   14   34      2.03      0.00
    1   15   34     -0.22      0.00
    2   15   34      0.25      0.00
    3   15   34      2.92      0.00
    0    1   35     -7.84      0.00
    1    2   35      8.26      0.00
    0    3   35      2.51      0.00
    1    3   35     -0.71      0.00
    2    3   35      0.08      0.00
    4    5   35      2.34      0.00
    1    6   35      3.09      0.00
    4    6   35     -6.98      0.00
    5    6   35     -5.88      0.00
    0    7   35     -4.92      0.00
    1    7   35     -0.37      0.00
    2    7   35     -2.99      0.00
    3    7   35     -1.38      0.00
    4    7   35     -0.58      0.00
    5    7   35     -6.86      0.00
    6    7   35     -3.31      0.00
    1    8   35     -7.72      0.00
    2    8   35      4.32      0.00
    3    8   35      0.99      0.00
    4    8   35      5.79      0.00
    5    8   35      1.47      0.00
    6    8   35     -2.04      0.00
    7    8   35      0.71      0.00
    0    9   35     -0.68      0.00
    1    9   35      0.40      0.00
    2    9   35     -0.44      0.00
    3    9   35      2.65      0.00
    4    9   35     -1.29      0.00
    5    9   35      3.70      0.00
    6    9   35     -0.39      0.00
    7    9   35      2.75      0.00
    8    9   35      4.15      0.00
    1   10   35      7.12      0.00
    2   10   35      4.26      0.00
    3   10   35      1.72      0.00
    4   10   35     -3.07      0.00
    5   10   35      1.50      0.00
    6   10   35      1.23      0.00
    7   10   35     -1.06      0.00
    8   10   35     -4.07      0.00
    9   10   35     -2.08      0.00
    0   11   35      3.52      0.00
    1   11   35     -2.10      0.00
    2   11   35     -2.53      0.00
    3   11   35     -0.83      0.00
    4   11   35     -0.20      0.00
    5   11   35     -1.72      0.00
    6   11   35     -1.04      0.00
    7   11   35     -1.63      0.00
    8   11   35      2.23      0.00
    9   11   35      2.17      0.00
    1   12   35     -1.32      0.00
    2   12   35     -3.40      0.00
    3   12   35     -0.71      0.00
    4   12   35      1.07      0.00
    5   12   35      5.33      0.00
    6   12   35      2.86      0.00
    7   12   35     -3.07      0.00
    8   12   35     -2.20      0.00
    0   13   35     -1.03      0.00
    1   13   35      0.68      0.00
    2   13   35      0.06      0.00
    3   13   35     -0.75      0.00
    4   13   35     -4.01      0.00
    5   13   35     -2.07      0.00
    6   13   35     -0.06      0.00
    1   14   35      0.69      0.00
    2   14   35      0.90      0.00
    3   14   35      1.88      0.00
    4   14   35     -1.68      0.00
    0    0   36     14.42      0.00
    1    1   36      6.66      0.00
    0    2   36     -1.00      0.00
    1    2   36     -1.52      0.00
    2    2   36      3.32      0.00
    1    3   36      5.98      0.00
    2    3   36      6.15      0.00
    3    3   36      1.19      0.00
    0    4   36      0.91      0.00
    1    4   36      1.33      0.00
    4    4   36     -5.93      0.00
    1    5   36     -3.01      0.00
    2    5   36      2.35      0.00
    3    5   36      4.56      0.00
    4    5   36      2.44      0.00
    5    5   36     -7.68      0.00
    0    6   36      5.21      0.00
    1    6   36     -3.82      0.00
    2    6   36     -2.58      0.00
    3    6   36     -2.44      0.00
    4    6   36      3.53      0.00
    5    6   36     -3.11      0.00
    6    6   36     -1.80      0.00
    1    7   36     -0.23      0.00
    2    7   36     -0.14      0.00
    3    7   36     -0.94      0.00
    4    7   36     -1.57      0.00
    5    7   36      3.96      0.00
    6    7   36      0.65      0.00
    7    7   36      2.09      0.00
    0    8   36      3.49      0.00
    1    8   36      0.97      0.00
    2    8   36     -7.54      0.00
    3    8   36     -5.58      0.00
    4    8   36     -1.47      0.00
    5    8   36      0.62      0.00
    6    8   36      2.42      0.00
    7    8   36      0.28      0.00
    8    8   36      1.33      0.00
    1    9   36      1.28      0.00
    2    9   36      2.58      0.00
    3    9   36     -0.21      0.00
    4    9   36      7.68      0.00
    5    9   36      1.09      0.00
    6    9   36     -1.02      0.00
    7    9   36      1.06      0.00
    8    9   36     -1.71      0.00
    9    9   36     -0.15      0.00
    0   10   36      4.01      0.00
    1   10   36      0.19      0.00
    2   10   36      2.41      0.00
    3   10   36      1.28      0.00
    4   10   36      1.72      0.00
    5   10   36     -0.27      0.00
    6   10   36     -6.62      0.00
    7   10   36      0.10      0.00
    8   10   36     -1.40      0.00
    9   10   36      1.11      0.00
    1   11   36     -4.35      0.00
    2   11   36     -3.52      0.00
    3   11   36     -0.94      0.00
    4   11   36     -4.84      0.00
    5   11   36     -3.63      0.00
    6   11   36     -3.65      0.00
    7   11   36      1.60      0.00
    8   11   36      0.13      0.00
    0   12   36      0.85      0.00
    1   12   36      1.49      0.00
    2   12   36     -4.30      0.00
    3   12   36     -0.66      0.00
    4   12   36      2.17      0.00
    5   12   36      2.66      0.00
    6   12   36     -0.33      0.00
    1   13   36     -2.39      0.00
    2   13   36      2.65      0.00
    3   13   36      0.18      0.00
    4   13   36      0.99      0.00
    0    0    0      0.00      0.00
# SQUEEZE RESULTS (Version = 150616)
# Note: Data are Listed for all Voids in the P1 Unit Cell
# i.e. Centre of Gravity, Solvent Accessible Volume,
# Recovered number of Electrons in the Void and
# Details about the Squeezed Material
loop_
  _platon_squeeze_void_nr
  _platon_squeeze_void_average_x
  _platon_squeeze_void_average_y
  _platon_squeeze_void_average_z
  _platon_squeeze_void_volume
  _platon_squeeze_void_count_electrons
  _platon_squeeze_void_content
   1 -0.010  0.401 -0.003      8446      2506 ' '
# Missing Reflections Below sin(th)/lambda = 0.25
loop_
  _platon_missing_refln_index_h
  _platon_missing_refln_index_k
  _platon_missing_refln_index_l
  _platon_missing_refln_theta
    1    1    0     1.476
    2    2    0     2.953
    3    3    0     4.432
    3    4    0     5.226
    4    4    0     5.915
    3    5    0     6.097
    4    5    0     6.698
    5    5    0     7.401
    4    6    0     7.548
    5    6    0     8.179
    6    6    0     8.892
    4    7    0     8.445
    5    7    0     9.015
    6    7    0     9.668
    5    8    0     9.895
    0    1    1     1.201
    2    3    1     3.813
    3    4    1     5.260
    4    5    1     6.725
    4    6    1     7.572
    5    6    1     8.201
    5    7    1     9.035
    6    7    1     9.687
    5    8    1     9.914
    0    0    2     1.188
    3    3    2     4.590
    3    4    2     5.360
    4    4    2     6.034
    4    5    2     6.804
    5    5    2     7.496
    5    6    2     8.266
    6    6    2     8.972
    5    7    2     9.095
    6    7    2     9.742
    2    8    2     8.722
    5    6    3     8.374
    6    7    3     9.834
    2    8    3     8.824
    5    5    4     7.777
    6    6    4     9.209
    4    7    4     8.778
    0    8    4     8.715
    1    8    4     8.778
    5    6    5     8.709
    3    7    6     8.745
    0    4    8     6.339
    5    5    8     8.813
    1    7    8     8.813
    3    6    9     8.844
    0    0   10     5.951
    1    6   10     8.728
    2    2   14     8.860
_platon_squeeze_void_probe_radius                  1.20
_platon_squeeze_details
)
TITL 35_5kbarx in P4/mnc
CELL   18.9092   18.9092   33.2222     90.00     90.00     90.00
SPGR P4/mnc
# Solvent Accessible Volume =      8442
# Note: Atoms in Void as Cxxx and Qxxx all others
C101 1.000 1.003 0.188 !       3.64 eA-3
Q102 0.689 0.597 0.407 !       2.21 eA-3
Q103 0.020 0.859-0.001 !       2.00 eA-3
C104 0.081 0.238 0.076 !       1.63 eA-3
C105 0.500 0.508 0.273 !       1.54 eA-3
Q106 0.597 0.422 0.502 !       1.46 eA-3
C107 0.191 0.521 0.802 !       1.44 eA-3
C108 0.409 0.630 0.743 !       1.41 eA-3
C109 0.380 0.704 0.735 !       1.37 eA-3
C110 0.920 0.474 0.894 !       1.37 eA-3
Q111 0.960 0.050 0.189 !       1.35 eA-3
Q112 0.236 0.906 0.955 !       1.33 eA-3
C113 0.254 0.720 0.442 !       1.33 eA-3
C114 0.294 0.909 0.868 !       1.33 eA-3
Q115 0.589 0.813 0.506 !       1.31 eA-3
Q116 0.324 0.422 0.347 !       1.30 eA-3
C117 0.765 0.467 0.198 !       1.30 eA-3
C118 0.980 0.622 0.070 !       1.30 eA-3
Q119 0.811 0.563 0.499 !       1.29 eA-3
C120 0.281 0.278 0.163 !       1.27 eA-3
C121 0.023 0.375-0.003 !       1.27 eA-3
Q122 0.180 0.516 0.496 !       1.24 eA-3
C123 0.285 0.812 0.336 !       1.23 eA-3
C124 0.136 0.719 0.580 !       1.23 eA-3
C125 0.142 0.286 0.239 !       1.21 eA-3
C126 0.532 0.094 0.004 !       1.21 eA-3
C127 0.763 0.723 0.147 !       1.20 eA-3
C128 0.175 0.328 0.248 !       1.20 eA-3
Q129 0.975 0.026 0.929 !       1.19 eA-3
Q130 0.740 0.637 0.534 !       1.19 eA-3
Q131 0.704 0.063 0.017 !       1.17 eA-3
C132 0.111 0.084 0.267 !       1.17 eA-3
C133 0.029 0.328 0.499 !       1.16 eA-3
C134 0.895 0.746 0.155 !       1.14 eA-3
C135 0.913 0.451 0.440 !       1.13 eA-3
C136 0.817 0.344 0.476 !       1.11 eA-3
Q137 0.192 0.457 0.438 !       1.11 eA-3
C138 0.796 0.126 0.151 !       1.11 eA-3
C139 0.467 0.028 0.102 !       1.10 eA-3
Q140 0.769 0.594 0.502 !       1.10 eA-3
C141 0.606 0.533 0.235 !       1.09 eA-3
C142 0.994 0.344 0.047 !       1.09 eA-3
Q143 0.965 0.859 0.760 !       1.08 eA-3
Q144 0.200 0.375 0.499 !       1.08 eA-3
C145 0.125 0.251 0.123 !       1.07 eA-3
Q146 0.856 0.922 0.001 !       1.06 eA-3
C147 0.676 0.885 0.459 !       1.06 eA-3
C148 0.667 0.204 0.223 !       1.05 eA-3
C149 0.184 0.247 0.166 !       1.04 eA-3
C150 0.278 0.479 0.195 !       1.03 eA-3
C151 0.356 0.838 0.631 !       1.03 eA-3
C152 0.644 0.162 0.369 !       1.03 eA-3
Q153 0.324 0.377 0.701 !       1.03 eA-3
C154 0.638 0.239 0.689 !       1.03 eA-3
C155 0.069 0.527 0.425 !       1.02 eA-3
C156 0.405 0.718 0.283 !       1.01 eA-3
C157 0.412 0.745 0.742 !       1.01 eA-3
C158 0.893 0.641 0.382 !       0.99 eA-3
C159 0.628 0.875 0.024 !       0.99 eA-3
C160 0.140 0.328 0.498 !       0.99 eA-3
C161 0.139 0.391 0.884 !       0.99 eA-3
C162 0.392 0.380 0.222 !       0.99 eA-3
Q163 0.161 0.919 0.115 !       0.98 eA-3
C164 0.908 0.331 0.420 !       0.97 eA-3
C165 0.339 0.420 0.267 !       0.96 eA-3
C166 0.330 0.311 0.181 !       0.96 eA-3
C167 0.015 0.684 0.368 !       0.95 eA-3
C168 0.972 0.355 0.421 !       0.95 eA-3
C169 0.255 0.718 0.143 !       0.95 eA-3
C170 0.049 0.435 0.927 !       0.95 eA-3
C171 0.675 0.173 0.206 !       0.94 eA-3
C172 0.033 0.266 0.679 !       0.94 eA-3
C173 0.097 0.422 0.501 !       0.93 eA-3
C174 0.843 0.641 0.237 !       0.93 eA-3
C175 0.971 0.656 0.634 !       0.93 eA-3
C176 0.903 0.469 0.497 !       0.93 eA-3
C177 0.198 0.501 0.084 !       0.93 eA-3
C178 0.842 0.532 0.866 !       0.93 eA-3
C179 0.883 0.844 0.229 !       0.93 eA-3
C180 0.215 0.873 0.304 !       0.92 eA-3
Q181 0.939 0.577 0.378 !       0.92 eA-3
C182 0.233 0.375-0.004 !       0.92 eA-3
C183 0.846 0.669 0.345 !       0.92 eA-3
C184 0.168 0.018 0.390 !       0.91 eA-3
C185 0.014 0.754 0.673 !       0.90 eA-3
C186 0.015 0.550 0.031 !       0.89 eA-3
Q187 0.935 0.704 0.910 !       0.89 eA-3
C188 0.221 0.839 0.668 !       0.89 eA-3
C189 0.437 0.934 0.406 !       0.88 eA-3
C190 0.104 0.579 0.067 !       0.88 eA-3
Q191 0.193 0.749 0.038 !       0.87 eA-3
C192 0.874 0.514 0.119 !       0.87 eA-3
C193 0.671 0.251 0.420 !       0.87 eA-3
C194 0.221 0.487 0.116 !       0.86 eA-3
C195 0.032 0.871 0.270 !       0.86 eA-3
Q196 0.654 0.970 0.276 !       0.86 eA-3
C197 0.226 0.744 0.450 !       0.86 eA-3
C198 0.255 0.908 0.452 !       0.86 eA-3
C199 0.796 0.078 0.281 !       0.86 eA-3
)
;
_shelx_shelxl_version_number     2014/7
_olex2_submission_special_instructions 'No special instructions were received'
_oxdiff_exptl_absorpt_empirical_details
;
Empirical correction (ABSPACK) includes:
- Absorption correction using spherical harmonics
- Frame scaling
;
_oxdiff_exptl_absorpt_empirical_full_max 5.931
_oxdiff_exptl_absorpt_empirical_full_min 0.515
loop_
_space_group_symop_operation_xyz
'x, y, z'
'-x, -y, z'
'-y, x, z'
'y, -x, z'
'-x+1/2, y+1/2, -z+1/2'
'x+1/2, -y+1/2, -z+1/2'
'y+1/2, x+1/2, -z+1/2'
'-y+1/2, -x+1/2, -z+1/2'
'-x, -y, -z'
'x, y, -z'
'y, -x, -z'
'-y, x, -z'
'x-1/2, -y-1/2, z-1/2'
'-x-1/2, y-1/2, z-1/2'
'-y-1/2, -x-1/2, z-1/2'
'y-1/2, x-1/2, z-1/2'
loop_
_atom_site_label
_atom_site_type_symbol
_atom_site_fract_x
_atom_site_fract_y
_atom_site_fract_z
_atom_site_U_iso_or_equiv
_atom_site_adp_type
_atom_site_occupancy
_atom_site_site_symmetry_order
_atom_site_calc_flag
_atom_site_refinement_flags_posn
_atom_site_refinement_flags_adp
_atom_site_refinement_flags_occupancy
_atom_site_disorder_assembly
_atom_site_disorder_group
Zr1 Zr 0.12340(9) 0.04732(9) 0.0000 0.0517(7) Uani 1 2 d S TU P . .
Zr2 Zr 0.0000 0.0000 0.07352(5) 0.0468(8) Uani 1 4 d S TU P . .
O5 O -0.0330(4) 0.0919(3) 0.10745(15) 0.0899(19) Uani 1 1 d . U . . .
O3 O 0.1743(4) 0.0654(4) -0.06036(18) 0.112(2) Uani 1 1 d . U . . .
O4 O 0.0382(3) 0.0863(4) 0.03571(17) 0.102(2) Uani 1 1 d . U . . .
O1 O 0.1662(5) 0.1523(5) 0.0000 0.116(3) Uani 1 2 d S TU P . .
O2 O 0.2253(5) -0.0087(6) 0.0000 0.113(3) Uani 1 2 d S TU P . .
C11 C -0.0254(6) 0.4173(5) 0.2212(2) 0.116(3) Uani 1 1 d D U . . .
C3 C -0.0498(6) 0.1907(7) 0.1686(3) 0.143(3) Uani 1 1 d . U . . .
H3 H -0.0350 0.1451 0.1749 0.172 Uiso 1 1 calc R . . . .
C12 C -0.0291(5) 0.4709(5) 0.2500 0.105(4) Uani 1 2 d DS TU P . .
C1 C -0.0602(5) 0.1525(6) 0.0977(3) 0.106(3) Uani 1 1 d D U . . .
C4 C -0.0569(7) 0.2409(6) 0.1997(3) 0.145(3) Uani 1 1 d . U . . .
H4 H -0.0480 0.2289 0.2264 0.174 Uiso 1 1 calc R . . . .
C8 C -0.0792(5) 0.3667(5) 0.2214(2) 0.112(3) Uani 1 1 d D U . . .
C13 C 0.0343(5) 0.4142(6) 0.1910(3) 0.135(4) Uani 1 1 d D U . . .
H13A H 0.0190 0.4345 0.1660 0.203 Uiso 1 1 calc GR . . . .
H13B H 0.0478 0.3658 0.1868 0.203 Uiso 1 1 calc GR . . . .
H13C H 0.0741 0.4403 0.2011 0.203 Uiso 1 1 calc GR . . . .
C2 C -0.0643(4) 0.2073(6) 0.1296(3) 0.128(3) Uani 1 1 d D U . . .
C5 C -0.0788(6) 0.3131(6) 0.1884(3) 0.124(3) Uani 1 1 d D U . . .
C7 C -0.0838(6) 0.2738(7) 0.1202(3) 0.141(3) Uani 1 1 d . U . . .
H7 H -0.0922 0.2849 0.0934 0.169 Uiso 1 1 calc R . . . .
C9 C -0.1327(5) 0.3673(5) 0.2500 0.117(4) Uani 1 2 d DS TU P . .
C6 C -0.0917(6) 0.3259(6) 0.1487(3) 0.138(3) Uani 1 1 d . U . . .
H6 H -0.1061 0.3708 0.1408 0.165 Uiso 1 1 calc R . . . .
C10 C -0.1889(5) 0.3111(5) 0.2500 0.138(5) Uani 1 2 d DS TU P . .
H10A H -0.1803 0.2787 0.2283 0.207 Uiso 0.5 1 calc R . . A -1
H10B H -0.1878 0.2861 0.2751 0.207 Uiso 0.5 1 calc R . . A -1
H10C H -0.2344 0.3327 0.2466 0.207 Uiso 0.5 1 calc R . . A -1
loop_
_atom_site_aniso_label
_atom_site_aniso_U_11
_atom_site_aniso_U_22
_atom_site_aniso_U_33
_atom_site_aniso_U_23
_atom_site_aniso_U_13
_atom_site_aniso_U_12
Zr1 0.0556(12) 0.0654(13) 0.0340(10) 0.000 0.000 -0.0050(12)
Zr2 0.0565(12) 0.0565(12) 0.0273(12) 0.000 0.000 0.000
O5 0.119(5) 0.087(4) 0.064(3) -0.008(3) 0.000(3) 0.003(5)
O3 0.110(5) 0.142(6) 0.083(4) 0.000(4) 0.008(4) -0.022(6)
O4 0.093(4) 0.126(5) 0.088(4) 0.033(4) 0.013(3) 0.010(5)
O1 0.139(8) 0.123(6) 0.087(5) 0.000 0.000 -0.030(6)
O2 0.091(6) 0.158(8) 0.090(6) 0.000 0.000 0.019(6)
C11 0.133(6) 0.129(5) 0.086(5) -0.022(4) 0.018(4) -0.012(5)
C3 0.218(8) 0.121(6) 0.091(5) -0.018(4) -0.013(5) 0.031(6)
C12 0.122(5) 0.122(5) 0.073(6) -0.013(4) 0.013(4) -0.011(7)
C1 0.145(7) 0.096(5) 0.076(5) -0.012(4) -0.006(4) 0.014(5)
C4 0.206(8) 0.124(6) 0.104(5) -0.020(4) -0.007(5) 0.020(6)
C8 0.132(5) 0.119(5) 0.085(4) -0.021(4) 0.016(4) -0.011(5)
C13 0.144(7) 0.154(8) 0.107(6) -0.030(6) 0.029(5) -0.015(7)
C2 0.188(7) 0.111(5) 0.086(4) -0.018(4) -0.010(5) 0.025(5)
C5 0.163(6) 0.120(5) 0.089(4) -0.016(4) 0.002(4) 0.004(5)
C7 0.203(8) 0.122(6) 0.098(5) -0.018(4) -0.013(5) 0.029(6)
C9 0.130(5) 0.130(5) 0.091(6) -0.016(4) 0.016(4) -0.018(7)
C6 0.193(7) 0.117(6) 0.102(5) -0.017(4) -0.010(5) 0.022(6)
C10 0.150(7) 0.150(7) 0.113(8) -0.018(6) 0.018(6) -0.031(9)
loop_
_atom_type_symbol
_atom_type_description
_atom_type_scat_dispersion_real
_atom_type_scat_dispersion_imag
_atom_type_scat_source
C C 0.0030 0.0010 'International Tables Vol C Tables 4.2.6.8 and 6.1.1.4'
H H 0.0000 0.0000 'International Tables Vol C Tables 4.2.6.8 and 6.1.1.4'
O O 0.0110 0.0060 'International Tables Vol C Tables 4.2.6.8 and 6.1.1.4'
Zr Zr -11.6050 0.5510 'International Tables Vol C Tables 4.2.6.8 and 6.1.1.4'
loop_
_geom_angle_atom_site_label_1
_geom_angle_atom_site_label_2
_geom_angle_atom_site_label_3
_geom_angle
_geom_angle_site_symmetry_1
_geom_angle_site_symmetry_3
Zr1 Zr1 Zr1 90.0 3 11
Zr2 Zr1 Zr1 59.621(16) 9 3
Zr2 Zr1 Zr1 59.621(16) 9 11
Zr2 Zr1 Zr1 59.621(16) . 11
Zr2 Zr1 Zr1 59.621(16) . 3
Zr2 Zr1 Zr2 88.68(5) 9 .
O3 Zr1 Zr1 109.20(19) 10 3
O3 Zr1 Zr1 108.21(19) 10 11
O3 Zr1 Zr1 108.21(19) . 11
O3 Zr1 Zr1 109.20(19) . 3
O3 Zr1 Zr2 72.63(18) . 9
O3 Zr1 Zr2 72.63(18) 10 .
O3 Zr1 Zr2 161.30(18) 10 9
O3 Zr1 Zr2 161.31(18) . .
O3 Zr1 O3 126.0(4) . 10
O4 Zr1 Zr1 90.5(2) . 11
O4 Zr1 Zr1 33.82(16) 10 3
O4 Zr1 Zr1 90.5(2) 11 3
O4 Zr1 Zr1 33.95(16) 4 11
O4 Zr1 Zr1 90.5(2) 10 11
O4 Zr1 Zr1 33.95(16) 11 11
O4 Zr1 Zr1 33.81(16) . 3
O4 Zr1 Zr1 90.5(2) 4 3
O4 Zr1 Zr2 36.40(17) . .
O4 Zr1 Zr2 36.40(17) 10 9
O4 Zr1 Zr2 88.45(19) 10 .
O4 Zr1 Zr2 36.33(18) 11 9
O4 Zr1 Zr2 36.33(18) 4 .
O4 Zr1 Zr2 88.57(19) 11 .
O4 Zr1 Zr2 88.45(19) . 9
O4 Zr1 Zr2 88.57(19) 4 9
O4 Zr1 O3 77.0(2) . 10
O4 Zr1 O3 77.0(2) 10 .
O4 Zr1 O3 139.0(3) 4 .
O4 Zr1 O3 140.0(2) . .
O4 Zr1 O3 76.0(2) 11 .
O4 Zr1 O3 139.0(3) 11 10
O4 Zr1 O3 140.0(2) 10 10
O4 Zr1 O3 76.0(2) 4 10
O4 Zr1 O4 72.7(3) 11 10
O4 Zr1 O4 108.9(4) 4 10
O4 Zr1 O4 108.9(4) 11 .
O4 Zr1 O4 72.7(3) 4 .
O4 Zr1 O4 67.9(3) 11 4
O4 Zr1 O4 67.6(3) . 10
O4 Zr1 O1 146.03(16) 11 .
O4 Zr1 O1 88.0(3) 10 .
O4 Zr1 O1 146.03(16) 4 .
O4 Zr1 O1 88.0(3) . .
O4 Zr1 O2 85.6(3) 4 .
O4 Zr1 O2 85.6(3) 11 .
O4 Zr1 O2 145.96(16) 10 .
O4 Zr1 O2 145.96(16) . .
O1 Zr1 Zr1 178.1(3) . 11
O1 Zr1 Zr1 88.1(3) . 3
O1 Zr1 Zr2 119.28(17) . 9
O1 Zr1 Zr2 119.28(17) . .
O1 Zr1 O3 72.4(2) . 10
O1 Zr1 O3 72.4(2) . .
O1 Zr1 O2 96.6(4) . .
O2 Zr1 Zr1 175.2(3) . 3
O2 Zr1 Zr1 85.2(3) . 11
O2 Zr1 Zr2 117.50(17) . .
O2 Zr1 Zr2 117.50(17) . 9
O2 Zr1 O3 72.4(2) . .
O2 Zr1 O3 72.4(2) . 10
Zr1 Zr2 Zr1 60.76(3) 9 11
Zr1 Zr2 Zr1 60.76(3) 9 3
Zr1 Zr2 Zr1 60.76(3) 11 .
Zr1 Zr2 Zr1 60.76(3) 3 .
Zr1 Zr2 Zr1 91.31(5) 11 3
Zr1 Zr2 Zr1 91.32(5) 9 .
O5 Zr2 Zr1 167.04(17) 2 3
O5 Zr2 Zr1 110.57(16) 3 3
O5 Zr2 Zr1 110.57(16) 2 9
O5 Zr2 Zr1 112.17(17) 4 3
O5 Zr2 Zr1 75.77(15) 3 9
O5 Zr2 Zr1 112.17(17) . 9
O5 Zr2 Zr1 112.17(17) 2 .
O5 Zr2 Zr1 167.04(17) 3 .
O5 Zr2 Zr1 112.17(17) 3 11
O5 Zr2 Zr1 167.04(17) 4 9
O5 Zr2 Zr1 110.57(16) . .
O5 Zr2 Zr1 75.77(15) 4 .
O5 Zr2 Zr1 167.04(17) . 11
O5 Zr2 Zr1 75.77(15) . 3
O5 Zr2 Zr1 110.57(16) 4 11
O5 Zr2 Zr1 75.77(15) 2 11
O5 Zr2 O5 74.23(14) 3 2
O5 Zr2 O5 74.23(14) . 4
O5 Zr2 O5 117.2(3) . 2
O5 Zr2 O5 74.23(14) . 3
O5 Zr2 O5 117.2(3) 4 3
O5 Zr2 O5 74.23(14) 4 2
O5 Zr2 O4 141.4(3) 4 2
O5 Zr2 O4 141.4(3) 3 .
O5 Zr2 O4 78.2(2) . .
O5 Zr2 O4 78.2(2) 2 2
O5 Zr2 O4 141.4(3) 2 3
O5 Zr2 O4 141.4(3) . 4
O5 Zr2 O4 78.2(2) 4 4
O5 Zr2 O4 79.5(2) 4 .
O5 Zr2 O4 78.2(2) 3 3
O5 Zr2 O4 143.6(3) 3 4
O5 Zr2 O4 79.5(2) 2 4
O5 Zr2 O4 143.6(3) . 2
O5 Zr2 O4 79.5(2) . 3
O5 Zr2 O4 79.5(2) 3 2
O5 Zr2 O4 143.6(3) 4 3
O5 Zr2 O4 143.6(3) 2 .
O4 Zr2 Zr1 35.44(17) 2 9
O4 Zr2 Zr1 90.59(19) 4 3
O4 Zr2 Zr1 90.71(18) 4 9
O4 Zr2 Zr1 90.59(19) 2 .
O4 Zr2 Zr1 35.23(17) . 3
O4 Zr2 Zr1 35.23(17) 2 11
O4 Zr2 Zr1 35.44(17) . .
O4 Zr2 Zr1 35.23(17) 3 9
O4 Zr2 Zr1 90.71(18) . 11
O4 Zr2 Zr1 35.23(17) 4 .
O4 Zr2 Zr1 90.59(19) 3 11
O4 Zr2 Zr1 35.44(17) 4 11
O4 Zr2 Zr1 90.59(19) . 9
O4 Zr2 Zr1 35.44(17) 3 3
O4 Zr2 Zr1 90.71(18) 3 .
O4 Zr2 Zr1 90.71(18) 2 3
O4 Zr2 O4 109.7(4) 2 .
O4 Zr2 O4 70.66(19) 4 .
O4 Zr2 O4 70.66(19) 3 .
O4 Zr2 O4 109.7(4) 3 4
O4 Zr2 O4 70.66(19) 2 3
O4 Zr2 O4 70.66(19) 2 4
C1 O5 Zr2 134.0(5) . .
C1 O3 Zr1 134.3(6) 11 .
Zr1 O4 Zr1 112.2(3) 3 .
Zr1 O4 Zr2 108.4(3) 3 .
Zr1 O4 Zr2 108.2(3) . .
C12 C11 C8 117.3(9) . .
C12 C11 C13 121.4(9) . .
C8 C11 C13 121.3(7) . .
C4 C3 H3 119.2 . .
C2 C3 H3 119.2 . .
C2 C3 C4 121.5(11) . .
C11 C12 C11 122.8(12) . 7_455
C11 C12 C12 118.6(6) . 2_565
C11 C12 C12 118.6(6) 7_455 2_565
O5 C1 O3 122.9(8) . 12
O5 C1 C2 117.4(9) . .
O3 C1 C2 116.9(10) 12 .
C3 C4 H4 121.2 . .
C3 C4 C5 117.6(10) . .
C5 C4 H4 121.2 . .
C11 C8 C5 117.3(7) . .
C9 C8 C11 121.8(9) . .
C9 C8 C5 120.9(8) . .
C11 C13 H13A 109.5 . .
C11 C13 H13B 109.5 . .
C11 C13 H13C 109.5 . .
H13A C13 H13B 109.5 . .
H13A C13 H13C 109.5 . .
H13B C13 H13C 109.5 . .
C3 C2 C1 120.5(11) . .
C7 C2 C3 119.4(10) . .
C7 C2 C1 120.1(10) . .
C4 C5 C8 116.3(9) . .
C6 C5 C4 117.5(9) . .
C6 C5 C8 126.1(11) . .
C2 C7 H7 118.7 . .
C2 C7 C6 122.6(11) . .
C6 C7 H7 118.7 . .
C8 C9 C8 118.8(12) 7_455 .
C8 C9 C10 120.6(6) . .
C8 C9 C10 120.6(6) 7_455 .
C5 C6 C7 121.3(12) . .
C5 C6 H6 119.4 . .
C7 C6 H6 119.4 . .
C9 C10 H10A 109.5 . .
C9 C10 H10B 109.5 . .
C9 C10 H10C 109.5 . .
H10A C10 H10B 109.5 . .
H10A C10 H10C 109.5 . .
H10B C10 H10C 109.5 . .
loop_
_geom_bond_atom_site_label_1
_geom_bond_atom_site_label_2
_geom_bond_distance
_geom_bond_site_symmetry_2
Zr1 Zr1 3.534(2) 11
Zr1 Zr1 3.534(2) 3
Zr1 Zr2 3.4943(17) 9
Zr1 Zr2 3.4943(17) .
Zr1 O3 2.250(6) 10
Zr1 O3 2.250(6) .
Zr1 O4 2.132(6) 10
Zr1 O4 2.125(6) 4
Zr1 O4 2.125(6) 11
Zr1 O4 2.132(6) .
Zr1 O1 2.144(10) .
Zr1 O2 2.199(9) .
Zr2 Zr1 3.4943(17) 3
Zr2 Zr1 3.4943(17) 11
Zr2 Zr1 3.4943(17) 9
Zr2 O5 2.163(6) 2
Zr2 O5 2.163(6) 3
Zr2 O5 2.163(6) 4
Zr2 O5 2.163(6) .
Zr2 O4 2.182(6) .
Zr2 O4 2.182(6) 3
Zr2 O4 2.182(6) 2
Zr2 O4 2.182(6) 4
O5 C1 1.298(11) .
O3 C1 1.311(10) 11
O4 Zr1 2.125(6) 3
C11 C12 1.395(8) .
C11 C8 1.397(8) .
C11 C13 1.512(8) .
C3 H3 0.9300 .
C3 C4 1.408(14) .
C3 C2 1.363(14) .
C12 C11 1.395(8) 7_455
C12 C12 1.56(3) 2_565
C1 O3 1.311(10) 12
C1 C2 1.483(8) .
C4 H4 0.9300 .
C4 C5 1.476(15) .
C8 C5 1.494(8) .
C8 C9 1.388(8) .
C13 H13A 0.9600 .
C13 H13B 0.9600 .
C13 H13C 0.9600 .
C2 C7 1.345(14) .
C5 C6 1.361(12) .
C7 H7 0.9300 .
C7 C6 1.376(13) .
C9 C8 1.388(8) 7_455
C9 C10 1.503(9) .
C6 H6 0.9300 .
C10 H10A 0.9600 .
C10 H10B 0.9600 .
C10 H10C 0.9600 .
loop_
_geom_torsion_atom_site_label_1
_geom_torsion_atom_site_label_2
_geom_torsion_atom_site_label_3
_geom_torsion_atom_site_label_4
_geom_torsion
_geom_torsion_site_symmetry_1
_geom_torsion_site_symmetry_4
Zr2 O5 C1 O3 -9.3(14) . 12
Zr2 O5 C1 C2 -169.6(4) . .
O5 C1 C2 C3 -9.5(8) . .
O5 C1 C2 C7 171.9(10) . .
O3 C1 C2 C3 -171.1(9) 12 .
O3 C1 C2 C7 10.3(8) 12 .
C11 C8 C5 C4 106.6(13) . .
C11 C8 C5 C6 -68.3(17) . .
C11 C8 C9 C8 1.5(8) . 7_455
C11 C8 C9 C10 -178.5(8) . .
C3 C4 C5 C8 -174.5(10) . .
C3 C4 C5 C6 0.9(18) . .
C3 C2 C7 C6 -1.7(15) . .
C12 C11 C8 C5 174.8(9) . .
C12 C11 C8 C9 -2.8(15) . .
C1 C2 C7 C6 176.9(9) . .
C4 C3 C2 C1 -176.7(8) . .
C4 C3 C2 C7 1.9(14) . .
C4 C5 C6 C7 -0.8(19) . .
C8 C11 C12 C11 1.4(7) . 7_455
C8 C11 C12 C12 -178.6(7) . 2_565
C8 C5 C6 C7 174.1(10) . .
C13 C11 C12 C11 -178.7(12) . 7_455
C13 C11 C12 C12 1.3(12) . 2_565
C13 C11 C8 C5 -5.2(17) . .
C13 C11 C8 C9 177.2(9) . .
C2 C3 C4 C5 -1.5(17) . .
C2 C7 C6 C5 1.2(19) . .
C5 C8 C9 C8 -176.0(12) . 7_455
C5 C8 C9 C10 4.0(12) . .
C9 C8 C5 C4 -75.8(14) . .
C9 C8 C5 C6 109.2(12) . .
