#------------------------------------------------------------------------------
#$Date: 2019-11-25 22:30:06 +0200 (Mon, 25 Nov 2019) $
#$Revision: 241967 $
#$URL: file:///home/coder/svn-repositories/cod/cif/4/13/18/4131844.cif $
#------------------------------------------------------------------------------
#
# This file is available in the Crystallography Open Database (COD),
# http://www.crystallography.net/
#
# All data on this site have been placed in the public domain by the
# contributors.
#
data_4131844
loop_
_publ_author_name
'Yan, Yong'
'O'Connor, Alice E'
'Kanthasamy, Gopikkaa'
'Atkinson, George'
'Allan, David R.'
'Blake, Alexander J.'
'Schr\"oder, Martin'
_publ_section_title
;
 Unusual and Tunable Negative Linear Compressibility in the Metal-Organic
 Framework MFM-133(M) (M = Zr, Hf).
;
_journal_issue                   11
_journal_name_full               'Journal of the American Chemical Society'
_journal_page_first              3952
_journal_page_last               3958
_journal_paper_doi               10.1021/jacs.7b11747
_journal_volume                  140
_journal_year                    2018
_chemical_formula_moiety         'C88 H72 Hf6 O32'
_chemical_formula_sum            'C88 H72 Hf6 O32'
_chemical_formula_weight         2708.36
_space_group_crystal_system      tetragonal
_space_group_IT_number           128
_space_group_name_Hall           '-P 4 2n'
_space_group_name_H-M_alt        'P 4/m n c'
_atom_sites_solution_hydrogens   geom
_audit_creation_date             2017-03-19
_audit_creation_method
;
Olex2 1.2
(compiled 2015.09.30 svn.r3233 for OlexSys, GUI svn.r5103)
;
_cell_angle_alpha                90
_cell_angle_beta                 90
_cell_angle_gamma                90
_cell_formula_units_Z            2
_cell_length_a                   19.079(3)
_cell_length_b                   19.079(3)
_cell_length_c                   32.905(5)
_cell_measurement_reflns_used    2337
_cell_measurement_temperature    293(2)
_cell_measurement_theta_max      22.709
_cell_measurement_theta_min      1.871
_cell_volume                     11978(3)
_computing_cell_refinement       'CrysAlisPro 1.171.38.41 (Rigaku OD, 2015)'
_computing_data_collection       'CrysAlisPro 1.171.38.41 (Rigaku OD, 2015)'
_computing_data_reduction        'CrysAlisPro 1.171.38.41 (Rigaku OD, 2015)'
_computing_molecular_graphics    'Olex2 (Dolomanov et al., 2009)'
_computing_publication_material  'Olex2 (Dolomanov et al., 2009)'
_computing_structure_refinement  'ShelXL (Sheldrick, 2015)'
_diffrn_ambient_temperature      293(2)
_diffrn_detector                 'CCD plate'
_diffrn_measured_fraction_theta_full 0.257
_diffrn_measured_fraction_theta_max 0.257
_diffrn_measurement_details
;
List of Runs (angles in degrees, time in seconds):

  # Type    Start    End  Width  t~exp~   \w     \q     \k     \f   Frames
--------------------------------------------------------------------------
  1  \w   -105.00 -75.60   0.20    0.50    --   20.00  70.00 155.77  147
  2  \w   -105.00 -74.00   0.20    0.50    --   20.00  70.00 -24.23  155
  3  \w   -106.00 -66.00   0.20    0.50    --  -20.00 -70.00-155.77  200
  4  \w   -106.00 -66.00   0.20    0.50    --  -20.00 -70.00  24.23  200
  5  \w   -150.00 -94.00   0.20    0.50    --  -20.00  70.00 -24.23  280
  6  \w   -145.20 -94.00   0.20    0.50    --  -20.00  70.00 155.77  256
  7  \w    -93.20 -30.00   0.20    0.50    --   20.00 -70.00  24.23  316
  8  \w    -96.00 -30.00   0.20    0.50    --   20.00 -70.00-155.77  330
;
_diffrn_measurement_device       'four-circle diffractometer'
_diffrn_measurement_device_type
'dectris-CrysAlisPro-abstract goniometer imported dectris images'
_diffrn_measurement_method       '\w scans'
_diffrn_orient_matrix_type
'CrysAlisPro convention (1999,Acta A55,543-557)'
_diffrn_orient_matrix_UB_11      -0.0019905000
_diffrn_orient_matrix_UB_12      0.0302821000
_diffrn_orient_matrix_UB_13      -0.0113502000
_diffrn_orient_matrix_UB_21      -0.0264858000
_diffrn_orient_matrix_UB_22      -0.0144964000
_diffrn_orient_matrix_UB_23      -0.0114818000
_diffrn_orient_matrix_UB_31      -0.0244211000
_diffrn_orient_matrix_UB_32      0.0132891000
_diffrn_orient_matrix_UB_33      0.0133283000
_diffrn_radiation_monochromator  synchrotron
_diffrn_radiation_probe          x-ray
_diffrn_radiation_type           synchrotron
_diffrn_radiation_wavelength     0.6889
_diffrn_reflns_av_R_equivalents  0.3219
_diffrn_reflns_av_unetI/netI     0.3252
_diffrn_reflns_Laue_measured_fraction_full 0.257
_diffrn_reflns_Laue_measured_fraction_max 0.257
_diffrn_reflns_limit_h_max       15
_diffrn_reflns_limit_h_min       -10
_diffrn_reflns_limit_k_max       10
_diffrn_reflns_limit_k_min       -13
_diffrn_reflns_limit_l_max       33
_diffrn_reflns_limit_l_min       -32
_diffrn_reflns_number            4233
_diffrn_reflns_point_group_measured_fraction_full 0.257
_diffrn_reflns_point_group_measured_fraction_max 0.257
_diffrn_reflns_theta_full        22.762
_diffrn_reflns_theta_max         22.762
_diffrn_reflns_theta_min         13.281
_diffrn_source                   'Diamond Light Source Beamline I19'
_exptl_absorpt_coefficient_mu    2.382
_exptl_absorpt_correction_T_max  1.00000
_exptl_absorpt_correction_T_min  0.48463
_exptl_absorpt_correction_type   multi-scan
_exptl_absorpt_process_details
;
CrysAlisPro 1.171.38.41 (Rigaku Oxford Diffraction, 2015)
Empirical absorption correction using spherical harmonics,
 implemented in SCALE3 ABSPACK scaling algorithm.
;
_exptl_crystal_density_diffrn    0.751
_exptl_crystal_description       tablet
_exptl_crystal_F_000             2568
_refine_diff_density_max         1.34
_refine_diff_density_min         -1.30
_refine_diff_density_rms         0.11
_refine_ls_extinction_method     none
_refine_ls_goodness_of_fit_ref   1.052
_refine_ls_hydrogen_treatment    constr
_refine_ls_matrix_type           full
_refine_ls_number_parameters     76
_refine_ls_number_reflns         1171
_refine_ls_number_restraints     88
_refine_ls_restrained_S_all      4.432
_refine_ls_R_factor_all          0.236
_refine_ls_R_factor_gt           0.145
_refine_ls_shift/su_max          0.059
_refine_ls_shift/su_mean         0.006
_refine_ls_structure_factor_coef Fsqd
_refine_ls_weighting_details
'w=1/[\s^2^(Fo^2^)+(0.2000P)^2^] where P=(Fo^2^+2Fc^2^)/3'
_refine_ls_weighting_scheme      calc
_refine_ls_wR_factor_gt          0.331
_refine_ls_wR_factor_ref         0.421
_reflns_number_gt                559
_reflns_number_total             1171
_reflns_threshold_expression     'I > 2\s(I)'
_cod_data_source_file            HfMOF_All.cif
_cod_data_source_block           HfMOF_29.7_kbar
_cod_original_cell_volume        11978(4)
_cod_database_code               4131844
_chemical_oxdiff_formula         'C88 H72 Hf6 O32'
_shelx_space_group_comment
;
The symmetry employed for this shelxl refinement is uniquely defined
by the following loop, which should always be used as a source of
symmetry information in preference to the above space-group names.
They are only intended as comments.
;
_reflns_odcompleteness_completeness 16.38
_reflns_odcompleteness_iscentric 1
_reflns_odcompleteness_theta     25.50
_olex2_refinement_description
;
1. Fixed Uiso
 At 1.2 times of:
  All C(H) groups
 At 1.5 times of:
  All C(H,H,H) groups
2. Restrained distances
 O13-C12
 1.41 with sigma of 0.01
 C12-O1
 1.41 with sigma of 0.01
 C6-C12 = C9-C3
 1.41 with sigma of 0.02
 C6-C12 = C9-C3
 1.41 with sigma of 0.01
 C9-C3 = C6-C12
 1.41 with sigma of 0.01
 Hf1-O13 = Hf2-O1
 2.11 with sigma of 0.02
 O1-C12 = O13-C12
 1.41 with sigma of 0.02
 C9-C15 = C9-C10
 1.41 with sigma of 0.02
 C10-C11 = C16-C17
 1.45 with sigma of 0.005
 C4-C5 = C7-C8
 1.39 with sigma of 0.01
 C6-C12 \\sim C9-C3
 with sigma of 0.01
 C9-C3 \\sim C6-C12
 with sigma of 0.01
 C11-C10 \\sim C16-C15 \\sim C17-C15
 with sigma of 0.01
 C9-C17 \\sim C15-C17 \\sim C9-C11 \\sim C11-C9D
 with sigma of 0.005
 C3-C7 \\sim C8-C6 \\sim C7-C5 \\sim C6-C4 \\sim C5-C3 \\sim C4-C8
 with sigma of 0.01
 C4-C3 \\sim C8-C3 \\sim C8-C7 \\sim C7-C6 \\sim C6-C5 \\sim C5-C4
 with sigma of 0.01
3. Restrained planarity
 C12, C6, C5, C4, C3, C9, C8, C7
 with sigma of 0.01
 C9, C3, C8, C7, C6, C12, C5, C4
 with sigma of 0.01
 C9, C3, C8, C4
 with sigma of 0.01
 C17, C15, C16, C10, C9, C11
 with sigma of 0.01
4. Rigid bond restraints
 C6, Hf2, Hf1, C8, C3, C5, C4, C7, C9, C10, C11, C12, C15, C16, C17, O1, O4,
 O13, O19, O20
 with sigma for 1-2 distances of 0.01 and sigma for 1-3 distances of 0.01
5. Uiso/Uaniso restraints and constraints
C6 \\sim Hf2 \\sim Hf1 \\sim C8 \\sim C3 \\sim C5 \\sim C4 \\sim C7 \\sim C9
\\sim C10 \\sim C11 \\sim C12 \\sim C15 \\sim C16 \\sim C17 \\sim O1 \\sim O4
\\sim O13 \\sim O19 \\sim O20: within 1.7A with sigma of 0.04 and sigma for
terminal atoms of 0.08
6. Others
 Fixed Sof: C16(0.5) C15(0.5) C15D(0.00001) C9D(0.00001) C10(0.5) C11(0.5)
 H11A(0.5) H11B(0.5) H11C(0.5)
 Fixed Uiso: C15D(0.05) C9D(0.05)
7.a Aromatic/amide H refined with riding coordinates:
 C4(H4), C5(H5), C7(H7), C8(H8)
7.b Fitted hexagon refined as free rotating group:
 C9(C16,C15,C15D,C9D,C10)
7.c Idealised Me refined as rotating group:
 C11(H11A,H11B,H11C), C17(H,HA,HB)
;
_shelx_res_file
;
    gkme_3_.res created by SHELXL-2014/7

TITL GKME_3_ in P4/mnc
REM P4/mnc (#128 in standard setting)
REM EXTI 0.000(4)
CELL 0.6889 19.07914 19.07914 32.90549 90 90 90
ZERR 2 0.00297 0.00276 0.00513 0.0124 0.013 0.0133
LATT 1
SYMM -X,-Y,+Z
SYMM -Y,+X,+Z
SYMM +Y,-X,+Z
SYMM 0.5-X,0.5+Y,0.5-Z
SYMM 0.5+X,0.5-Y,0.5-Z
SYMM 0.5+Y,0.5+X,0.5-Z
SYMM 0.5-Y,0.5-X,0.5-Z
SFAC C H Hf O
DISP C 0.003 0.001 10.848
DISP H -0 0 0.623
DISP Hf -0.293 6.108 23452.874
DISP O 0.011 0.006 30.192
UNIT 176 136 12 64
DFIX 1.41 0.01 O13 C12
DFIX 1.41 0.01 C12 O1
DFIX 1.41 C6 C12 C9 C3
DFIX 1.41 0.01 C6 C12 C9 C3
DFIX 1.41 0.01 C9 C3 C6 C12
DFIX 2.11 Hf1 O13 Hf2 O1
DFIX 1.41 O1 C12 O13 C12
DFIX 1.41 C9 C15 C9 C10
DFIX 1.45 0.005 C10 C11 C16 C17
DFIX 1.39 0.01 C4 C5 C7 C8
SADI 0.01 C6 C12 C9 C3
SADI 0.01 C9 C3 C6 C12
SADI 0.01 C11 C10 C16 C15 C17 C15
SADI 0.005 C9 C17 C15 C17 C9 C11 C11 C9D
SADI 0.01 C3 C7 C8 C6 C7 C5 C6 C4 C5 C3 C4 C8
SADI 0.01 C4 C3 C8 C3 C8 C7 C7 C6 C6 C5 C5 C4
FLAT 0.01 C12 C6 C5 C4 C3 C9 C8 C7
FLAT 0.01 C9 C3 C8 C7 C6 C12 C5 C4
FLAT 0.01 C9 C3 C8 C4
FLAT 0.01 C17 C15 C16 C10 C9 C11
DELU C6 Hf2 Hf1 C8 C3 C5 C4 C7 C9 C10 C11 C12 C15 C16 C17 O1 O4 O13 O19 O20
SIMU 0.04 0.08 1.7 C6 Hf2 Hf1 C8 C3 C5 C4 C7 C9 C10 C11 C12 C15 C16 C17 O1 =
 O4 O13 O19 O20

L.S. 6
PLAN  9
MPLA 6 C3 C4 C5 C6 C7 C8
MPLA 4 C9 C10 C15 C16
CONN 0 C9D
CONN 0 C15D
BIND C16 C17
CONN 1 0 C17
FREE C17 C15D
FREE C17 C15
BIND Hf1 Hf2
DAMP 6000 3
BOND
MORE -1
BOND $H
CONF
fmap 2
acta 52
OMIT -4 52
REM <olex2.extras>
REM <HklSrc "%.\\GKME_3_.hkl">
REM </olex2.extras>

WGHT    0.200000
FVAR       0.13662
HF1   3   -0.043374    0.122787    0.000000    10.50000    0.06004    0.02971 =
         0.05480    0.00000    0.00000    0.00600
HF2   3    0.000000    0.000000    0.074262    10.25000    0.04500    0.04500 =
         0.04307    0.00000    0.00000    0.00000
O1    4   -0.025714    0.089736    0.109925    11.00000    0.03489
O4    4   -0.086204    0.030281    0.034941    11.00000    0.03254
O13   4   -0.055816    0.165297    0.058662    11.00000    0.05792
O19   4   -0.149846    0.164232    0.000000    10.50000    0.04331
O20   4    0.005398    0.223978    0.000000    10.50000    0.04724
C3    1   -0.075128    0.310783    0.190198    11.00000    0.07578
C4    1   -0.090547    0.326158    0.149880    11.00000    0.10381
SPEC 0.3
AFIX  43
H4    2   -0.105042    0.371028    0.142718    11.00000   -1.20000
AFIX   0
C5    1   -0.084343    0.274600    0.120251    11.00000    0.08298
AFIX  43
H5    2   -0.094684    0.284978    0.093295    11.00000   -1.20000
AFIX   0
C6    1   -0.062660    0.207478    0.130938    11.00000    0.06973
C7    1   -0.047241    0.192113    0.171251    11.00000    0.05669
AFIX  43
H7    2   -0.032742    0.147245    0.178415    11.00000   -1.20000
AFIX   0
C8    1   -0.053447    0.243668    0.200872    11.00000    0.10921
AFIX  43
H8    2   -0.043102    0.233287    0.227827    11.00000   -1.20000
AFIX  66
C9    1   -0.081553    0.363368    0.220081    11.00000    0.06443
PART -2
C16   1   -0.031223    0.415801    0.217155    10.50000    0.05663
PART 0
C15   1   -0.033829    0.473226    0.243107    10.50000    0.01293
C15D  1   -0.086765    0.478218    0.271985    10.00001   10.05000
C9D   1   -0.137095    0.425786    0.274912    10.00001   10.05000
PART -1
C10   1   -0.134489    0.368361    0.248960    10.50000    0.09935
AFIX   0
C11   1   -0.186521    0.314134    0.251993    10.50000    0.11860
AFIX 137
H11A  2   -0.207013    0.314928    0.278635    10.50000   -1.50000
H11B  2   -0.164961    0.269376    0.247367    10.50000   -1.50000
H11C  2   -0.222342    0.321879    0.232003    10.50000   -1.50000
AFIX   0
PART 0
C12   1   -0.056290    0.155020    0.100988    11.00000    0.06534
PART -2
C17   1    0.022606    0.417807    0.190822    11.00000    0.08893
PART 0
AFIX 137
H     2    0.059753    0.388263    0.200507    11.00000   -1.50000
HA    2    0.039334    0.465084    0.188441    11.00000   -1.50000
HB    2    0.007172    0.401506    0.164711    11.00000   -1.50000
AFIX   0
HKLF 4

REM  GKME_3_ in P4/mnc
REM R1 =  0.1454 for     559 Fo > 4sig(Fo)  and  0.2359 for all    1171 data
REM     76 parameters refined using     88 restraints

END

WGHT      0.2000      0.0000

REM Highest difference peak  1.337,  deepest hole -1.298,  1-sigma level  0.106
Q1    1   0.0000  0.0000  0.1185  10.25000  0.05    1.34
Q2    1  -0.0267  0.1323  0.0495  11.00000  0.05    0.74
Q3    1   0.0108  0.1702  0.0219  11.00000  0.05    0.66
Q4    1   0.0000  0.0000  0.0308  10.25000  0.05    0.65
Q5    1  -0.0925  0.1699  0.0230  11.00000  0.05    0.64
Q6    1  -0.0420  0.1256  0.1481  11.00000  0.05    0.58
Q7    1  -0.0549 -0.0042  0.0222  11.00000  0.05    0.54
Q8    1  -0.0921  0.0209  0.0717  11.00000  0.05    0.54
Q9    1  -0.1143  0.0406  0.0000  10.50000  0.05    0.51
;
_shelx_res_checksum              87881
_shelx_hkl_file
;
  -3   2  22 19.9537 34.6703   5
  -3   2  24 77.1342 50.2184   8
  -3   1  22 725.216 247.831   5
  -3   1  24-7.07657 40.5284   8
  -3   1  25 7.44383 51.1439   8
  -3   0  22-19.2953 38.1999   5
  -3   0  24 7.16765 38.9142   8
  -3   0  25 104.921 56.6109   8
  -3  -1  22 475.811 165.783   5
  -3  -1  24-20.9384 38.0139   5
  -3  -2  22 9.40679 35.8396   5
  -3  -2  23 145.136 69.8234   8
  -3  -2  24 10.3383 35.9124   5
  -3  -2  24 72.3486 43.4896   8
  -3  -2  25 30.2267 47.4566   8
  -3  -3  21-6.29657 34.1732   8
   3   3 -21-6.68539 24.4519   3
  -3   3  21-9.65575 37.0471   5
  -3  -3  21-26.5929 33.6973   5
  -3   3  21 17.8707 36.8803   8
  -3   3  22 1105.55 312.491   8
  -3  -3  22 792.069 313.241   5
  -3   3  22 804.192 313.459   5
  -3  -3  23-27.7347 43.0829   8
  -3  -3  24 30.6915 48.3234   5
  -3  -3  24 152.324 50.4804   8
  -3   3  24 34.6684 50.8393   8
  -3  -3  25-15.1434 46.4060   8
  -3  -3  26 7.88768 43.4229   8
  -4   3  21 1739.52 381.789   8
   4  -3 -21 921.282 380.091   3
  -4   3  21 1650.99 384.160   5
   3   4 -21 471.187 378.677   3
  -3  -4  21 1409.32 382.099   8
  -3  -4  21 1796.12 383.902   5
  -4   3  22 59.5936 49.4218   5
   4  -3 -22 97.7311 41.1729   3
  -4   3  23 296.900 120.559   8
  -3  -4  23 361.387 120.547   8
  -3  -4  24 65.3770 52.3986   8
  -4   3  24 164.030 55.1131   5
  -3  -4  24 71.0064 51.0419   5
  -4   3  24 27.0628 48.2517   8
  -4   3  25 7.07846 43.9292   8
  -3  -4  25 15.1558 46.0021   8
  -4   3  25-45.7665 45.0699   5
  -4   3  26-22.1767 48.4091   8
  -3  -4  26-23.6720 50.7527   8
  -4   3  27-7.70475 50.0626   8
   4  -2 -21 84.1733 61.5099   3
  -4   2  21 171.615 68.8417   8
  -4   2  21 278.149 72.3288   5
  -2  -4  21 212.653 69.6062   8
   4  -2 -22 531.343 250.769   3
  -4   2  22 1287.55 257.242   5
  -4   2  23 143.806 64.0464   8
  -4   2  24 10.7318 47.6767   5
  -4   2  24-54.7860 47.5415   8
  -4   2  25 56.1184 53.4458   5
  -4   2  25 14.3223 50.0047   8
  -4   2  26-14.9498 48.3295   8
  -4   2  26-35.1516 45.9805   5
  -4   2  27-7.78906 50.1097   8
  -4   2  28-48.6071 54.9904   8
  -4   1  21 1324.12 384.843   8
   4  -1 -21 883.419 383.731   3
  -4   1  21 1369.09 386.754   5
  -4   1  22 124.774 49.1264   5
   4  -1 -22 79.8291 42.9118   3
  -4   1  23 436.207 152.858   8
  -4   1  24-62.2891 48.0954   8
  -4   1  24-42.1971 44.9258   5
  -4   1  25 33.0832 45.5153   5
  -4   1  25 14.4668 44.3120   8
  -4   1  26 7.54643 47.2613   8
  -4   1  26 11.5076 45.4265   5
  -4   1  27-7.85978 54.3177   8
  -4   1  28 8.17085 53.0911   8
  -4   0  21-42.4026 37.6012   8
  -4   0  21-9.00141 39.4951   5
   4   0 -21 13.6044 26.9976   3
  -4   0  22 624.381 215.775   5
  -4   0  23 40.0472 40.4110   8
  -4   0  24-31.1576 42.8173   5
   4   0 -24-31.3890 29.6737   3
  -4   0  24 48.8930 44.6906   8
  -4   0  25 10.8540 40.2150   5
  -4   0  25 14.5925 49.5121   8
  -4   0  26 30.4321 50.4641   8
  -4   0  26 67.9117 42.1865   5
  -4   0  27-11.7862 46.0452   5
  -4   0  27 15.8398 45.1292   8
  -4   0  28-49.3763 58.0026   8
  -4  -1  21 1582.73 360.292   5
   4   1 -21 805.787 356.698   3
  -4  -1  24 20.4887 38.1485   5
   4   1 -24-15.4716 31.8261   3
  -4  -1  25-10.6989 42.6629   5
  -4  -1  26 33.4628 40.9201   5
  -4  -1  27 46.4282 45.8661   5
  -4  -2  21 104.962 66.7510   8
   4   2 -21 192.564 60.7618   3
  -4  -2  23 212.880 67.0621   5
  -4  -2  23 271.261 69.2992   8
   4   2 -23 58.4214 55.1903   3
  -4  -2  24-63.7955 44.8375   8
  -4  -2  24 10.1205 43.1340   5
   4   2 -24-53.4624 40.2575   3
  -4  -2  25 155.298 55.9336   8
  -4  -2  25 10.5641 47.2454   5
  -4  -2  26-30.8080 44.4031   8
  -4  -2  26 11.0086 37.3165   5
  -4  -2  27-11.4502 38.7779   5
  -4  -2  27 32.0278 51.0652   8
  -4  -2  28 33.2522 50.7187   8
  -3   4  21 1563.69 516.474   8
  -3   4  21 1638.87 518.280   5
   4   3 -21 1479.93 515.934   3
  -3   4  22 211.704 80.9341   8
  -4  -3  23 258.685 77.1718   5
  -4  -3  23 225.286 76.3982   8
   4   3 -23 122.848 67.6072   3
   4   3 -24 90.6274 45.4681   3
  -4  -3  24 49.9017 49.6013   8
  -4  -3  24 20.0275 41.0155   5
  -3   4  24 68.8051 56.3041   8
  -4  -3  25 14.8673 43.9313   8
  -4  -3  25-20.8941 32.5471   5
  -4  -3  26 10.8813 34.8649   5
  -4  -3  26 23.2106 42.5332   8
  -4  -3  27 45.2590 40.2805   5
  -4  -3  27-8.03786 48.8783   8
  -4  -3  28 191.835 84.8351   8
  -4   4  20 1291.10 352.908   8
  -4  -4  20 1304.35 353.838   8
  -4   4  20 1065.71 354.808   5
   4  -4 -20 641.895 351.273   3
   4   4 -20 1111.89 352.298   3
  -4   4  21 17.2516 35.0027   8
   4  -4 -21 29.1407 26.5891   3
  -4   4  21-28.8496 36.7169   5
   4   4 -21 26.1054 27.1240   3
  -4  -4  21-17.3163 37.7904   5
  -4   4  22 952.201 322.778   5
  -4  -4  23-20.6070 42.1912   8
  -4  -4  23-9.50198 38.1201   5
  -4   4  23 19.0929 38.9518   8
   4   4 -23-7.16408 29.9695   3
  -4  -4  24 9.92836 41.5438   5
  -4  -4  24 57.3345 47.4370   8
  -4   4  24 11.1630 43.3885   5
   4   4 -24 22.4504 30.6712   3
  -4   4  24 33.3788 42.4681   8
  -4  -4  25 10.3527 40.0793   5
  -4   4  25-6.98509 44.4573   8
  -4  -4  25-14.9323 47.1884   8
  -4  -4  26 21.5561 38.9508   5
  -4  -4  26-54.3545 51.8907   8
  -4   4  26-14.5962 49.8616   8
  -4   4  27-38.0597 48.1045   8
  -4  -4  27-11.1989 36.5913   5
  -4  -4  27 16.1269 50.5808   8
  -4  -4  28-25.0771 55.0542   8
  -4  -4  29-69.2251 61.6892   8
  -5   4  19 796.776 311.717   8
   5  -4 -19 1044.57 312.080   3
   4   5 -19 915.975 311.319   3
  -4  -5  19 976.498 312.492   8
   4   5 -20 179.171 69.2987   3
  -4  -5  20 239.312 78.1345   8
   5  -4 -20 185.776 72.1446   3
  -5   4  20 171.154 73.9311   8
  -5   4  21 702.470 225.192   8
   4   5 -21 577.537 223.483   3
   5  -4 -21 658.757 224.329   3
  -4  -5  21 766.508 226.632   5
  -4  -5  22 79.3980 49.1620   8
   5  -4 -23 55.8063 46.1740   3
  -5   4  23-21.0482 56.6814   5
  -5   4  23 51.0999 54.3368   8
   4   5 -23 128.051 47.8516   3
  -4  -5  23 132.213 50.6217   5
  -4  -5  23 69.0903 49.6015   8
   5  -4 -24 25.0323 30.4969   3
  -4  -5  24 14.4038 41.8066   8
   4   5 -24-22.2820 27.7915   3
  -4  -5  24 9.85951 37.0140   5
  -5   4  24 66.1102 47.7172   5
  -5   4  24 40.1003 44.2033   8
  -5   4  25 23.0259 45.4089   5
  -5   4  25 13.9642 43.2361   8
  -4  -5  25-44.9828 45.3985   8
  -4  -5  25-10.2769 37.5508   5
  -5   4  26 24.0272 50.8687   5
  -4  -5  26 62.3140 51.7941   8
  -5   4  26 72.8165 54.2777   8
  -4  -5  26 10.6926 42.5712   5
  -4  -5  27 96.9929 52.9854   8
  -5   4  27-62.5585 54.4248   5
  -5   4  27-15.1689 52.2847   8
  -4  -5  27 55.5219 42.4101   5
  -5   4  28 55.1956 64.7961   8
  -4  -5  28 192.584 69.9367   8
  -5   4  29 16.3759 48.7228   8
  -4  -5  29-43.3108 50.9184   8
  -5   4  30 42.4476 59.6062   8
   3   5 -20 589.654 347.499   3
  -3  -5  20 1357.32 351.633   5
   5  -3 -20 1549.84 350.788   3
  -5   3  20 1155.21 350.057   8
  -3  -5  21 561.065 142.576   5
  -3  -5  21 589.778 142.336   8
  -5   3  21 394.873 140.162   8
   3   5 -21 211.301 136.515   3
   5  -3 -21 455.336 140.434   3
  -3  -5  23 260.380 94.0697   5
  -3  -5  23 313.264 98.4103   8
  -5   3  23 161.973 97.6724   8
  -5   3  23 237.732 97.9193   5
   5  -3 -23 273.891 91.7934   3
  -5   3  24-10.8148 47.1271   5
  -3  -5  24 10.0807 30.7677   5
   5  -3 -24-16.3708 33.0787   3
  -5   3  24 13.5541 43.5976   8
  -3  -5  24 72.7214 48.7481   8
  -5   3  25 62.6688 48.9836   8
  -3  -5  25 75.8122 52.9600   8
  -5   3  25 146.824 56.3582   5
   5  -3 -25 17.1008 34.8563   3
  -5   3  26 36.3009 48.0332   8
  -5   3  26-11.7789 48.8166   5
  -3  -5  26-23.6623 45.4770   8
  -5   3  27 279.676 93.5763   8
  -5   3  27 134.933 94.2241   5
  -5   3  28 31.4264 57.3863   8
  -5   3  28 63.7563 56.0626   5
  -5   3  29 89.7040 65.1141   8
  -5   3  30 67.6163 62.5123   8
   5  -2 -20 1199.89 350.204   3
  -2  -5  20 1343.63 350.566   8
  -2  -5  20 1088.54 351.482   5
  -5   2  20 626.156 349.639   8
   5  -2 -21 1120.36 430.397   3
  -2  -5  21 1498.54 431.532   8
   5  -2 -23 46.1474 39.2922   3
  -5   2  23 71.1546 53.5807   5
  -2  -5  23 99.1201 46.3418   8
  -5   2  23 59.0844 46.4184   8
  -5   2  24 95.6631 71.5610   5
   5  -2 -24 160.806 62.2188   3
  -5   2  24 148.597 64.9084   8
  -5   2  25-14.0989 46.8776   8
  -5   2  25-44.3835 49.5754   5
   5  -2 -25-8.39425 28.9209   3
  -5   2  26 191.008 85.0936   8
  -5   2  26 208.187 86.3736   5
  -5   2  27 61.1599 53.9050   8
  -5   2  27 24.0776 52.9512   5
  -5   2  28 200.140 90.9710   5
  -5   2  28 214.446 92.2651   8
  -5   2  29 32.9705 66.9810   8
  -5   2  30 204.912 93.4181   8
   5  -1 -21 255.322 91.5676   3
   5  -1 -23 30.2791 34.8816   3
  -5   1  23 26.5855 45.9043   8
  -5   1  24-41.0056 39.6055   8
  -5   1  24 20.9195 46.5598   5
   5  -1 -24 63.2707 36.7443   3
  -5   1  25 14.2577 49.6531   8
  -5   1  25 65.4908 44.0369   5
   5  -1 -25 8.25082 29.4767   3
  -5   1  26 7.42528 47.5455   8
   5  -1 -26-8.59514 26.7642   3
  -5   1  26 11.3716 46.7469   5
  -5   1  27 154.461 73.5043   8
  -5   1  27 130.137 72.1424   5
  -5   1  28 64.1564 58.7660   8
  -5   1  28 24.5764 56.8709   5
  -5   1  29-12.7465 55.8653   5
  -5   1  29 91.5138 63.8367   8
  -5   1  30 103.385 71.1641   8
   5   0 -21 1102.88 370.394   3
  -5   0  23-13.4464 46.2370   8
   5   0 -23 111.881 37.6859   3
  -5   0  24-30.9278 47.5056   5
   5   0 -24 38.9506 41.1331   3
  -5   0  24 49.1332 47.1253   8
  -5   0  25 28.8098 45.3258   8
   5   0 -25 32.4915 29.6546   3
  -5   0  25-10.7501 45.5388   5
  -5   0  26 37.4882 51.0152   8
  -5   0  26 11.1938 46.7834   5
   5   0 -26-16.9161 30.2235   3
  -5   0  27 31.1780 52.7658   8
  -5   0  27 11.6398 49.5962   5
  -5   0  28-12.0875 52.7235   5
  -5   0  28 121.343 62.9530   8
  -5   0  29 25.0652 49.4077   5
  -5   0  29 41.9228 54.7528   8
  -5   0  30 17.3586 53.5852   8
  -5   0  31 36.4730 63.1913   8
   5   1 -21 235.363 86.1412   3
   5   1 -23 125.104 53.5262   3
   5   1 -24 15.3640 35.5373   3
  -5  -1  24 10.1727 45.6567   5
   5   1 -25 48.0369 37.9823   3
  -5  -1  25 84.8172 50.1247   5
  -5  -1  26 11.0342 43.9749   5
   5   1 -26 24.9966 31.4219   3
  -5  -1  27 103.217 61.9196   5
  -5  -1  28 23.8082 50.3557   5
  -5  -1  29 49.3471 56.3704   5
  -5  -2  20 1177.17 378.745   8
  -2   5  20 1143.29 378.420   8
   5   2 -20 1072.81 377.809   3
   5   2 -21 1157.25 388.079   3
  -5  -2  22 348.385 125.911   8
  -5  -2  23 185.296 75.8098   8
   5   2 -23 159.955 65.7436   3
   5   2 -24 45.5149 49.0090   3
  -5  -2  24 30.1553 56.7591   5
  -5  -2  25 31.4130 43.0919   5
  -5  -2  25 7.44901 50.2501   8
   5   2 -25-31.6089 30.0608   3
   5   2 -26 65.7600 45.0153   3
  -5  -2  26 185.860 64.7866   8
  -5  -2  26 76.2481 58.7966   5
   5   2 -27 8.53943 29.0264   3
  -5  -2  27-40.2011 55.1438   8
  -5  -2  27-22.6313 44.3310   5
  -5  -2  28 258.449 79.1367   8
  -5  -2  28 35.2202 68.9946   5
  -5  -2  29 112.208 60.1327   8
  -5  -2  29-48.6444 48.1636   5
  -5  -2  30 75.4909 84.1540   5
  -5  -2  30 312.386 90.1986   8
  -5  -2  31 55.3090 60.4679   8
  -5  -3  20 1398.99 494.676   8
   5   3 -20 1773.71 494.941   3
  -3   5  20 851.394 494.929   5
  -3   5  20 1699.01 494.676   8
  -3   5  21 615.003 209.951   8
  -3   5  22 600.267 186.820   8
  -5  -3  22 478.288 187.581   8
   5   3 -23 165.451 88.6489   3
  -5  -3  23 374.160 97.1288   8
  -3   5  24 47.4301 42.0689   8
   5   3 -24-7.50007 27.9475   3
  -5  -3  24-7.21842 43.8377   8
  -5  -3  24-9.94436 40.9028   5
  -5  -3  25 10.3566 47.2903   5
   5   3 -25 15.6224 36.6708   3
   5   3 -26 8.12152 29.5215   3
  -5  -3  26 15.5992 51.0689   8
  -5  -3  26 10.7681 44.0460   5
   5   3 -27 16.8657 72.1248   3
  -5  -3  27 268.360 86.2966   5
  -5  -3  28-33.5313 53.7394   8
  -5  -3  28-46.3678 47.4036   5
  -5  -3  29 251.593 91.1845   8
  -5  -3  29 144.030 83.2233   5
  -5  -3  30-8.96582 57.7289   8
  -5  -3  30 37.2345 49.0336   5
  -5  -3  31 64.7597 71.4805   8
  -5  -4  19 866.183 265.037   8
   5   4 -19 1018.00 264.844   3
  -4   5  19 809.341 264.401   8
   4  -5 -19 519.315 263.033   3
  -4   5  19 772.716 265.870   5
   4  -5 -20 105.736 70.1590   3
   5   4 -20 299.503 72.6496   3
  -4   5  20 219.596 74.5810   8
  -4   5  20 176.668 76.9434   5
  -5  -4  20 160.161 75.5031   8
  -4   5  21 550.067 235.099   5
  -4   5  21 803.175 235.883   8
  -5  -4  22 114.117 66.8004   8
  -4   5  22 207.017 67.5841   5
   5   4 -23 71.2657 45.0738   3
  -5  -4  23 83.9183 54.5793   8
  -4   5  23 56.3901 50.1954   8
  -5  -4  24 9.85520 41.3779   5
   5   4 -24 37.1421 31.4429   3
  -5  -4  24 80.0643 51.1346   8
  -4   5  24 39.4458 42.9278   8
  -4   5  25 48.1942 43.6970   8
  -5  -4  25 20.5139 44.5781   5
  -5  -4  25-37.8198 47.6641   8
   5   4 -25-30.9225 29.4319   3
  -5  -4  26 54.9555 51.2685   8
  -4   5  26 64.7576 53.2545   8
  -5  -4  26 63.9565 52.2752   5
   5   4 -26 48.2103 33.5768   3
  -5  -4  27 48.8313 57.8558   8
  -4   5  27 127.607 52.4930   8
  -5  -4  27-11.0628 47.5456   5
  -5  -4  28 58.9932 58.0527   8
  -5  -4  28 80.2505 53.7009   5
  -5  -4  29-35.6035 43.5170   5
  -5  -4  29 78.4193 59.2641   8
  -5  -4  30 8.99816 58.6582   8
  -5  -4  31 92.8198 74.3780   8
   5  -5 -19 19.9193 26.7487   3
  -5   5  19 25.7726 33.1130   8
  -5  -5  19-5.97931 40.0217   8
   5   5 -19-5.91604 26.3730   3
   5   5 -20 719.123 248.643   3
  -5   5  20 749.544 249.035   8
   5  -5 -20 742.481 248.988   3
   5  -5 -21 7.37574 31.8678   3
  -5   5  21-29.1907 43.5681   5
  -5   5  21-34.2790 36.8257   8
  -5  -5  22 156.027 58.7266   8
   5   5 -22 81.3380 50.1614   3
   5  -5 -23-32.5319 35.5627   3
  -5   5  23 12.5845 41.5899   8
  -5  -5  23 49.4227 42.2646   8
   5   5 -23 35.3539 30.9916   3
  -5   5  24 11.2389 46.8803   5
  -5  -5  24 22.0158 49.2978   8
  -5   5  24 52.6812 48.4437   8
  -5  -5  24-9.78087 40.2290   5
   5   5 -24 7.36827 28.2009   3
   5   5 -25-15.3294 27.3857   3
  -5  -5  25 38.1030 52.0015   8
  -5   5  25 6.88250 45.1149   8
  -5   5  25-11.7523 45.8887   5
  -5  -5  25 20.3480 41.4954   5
  -5   5  26 71.8232 56.3461   8
  -5  -5  26 84.5465 51.3816   5
  -5  -5  26 158.050 63.1995   8
  -5   5  26 49.0667 56.3901   5
   5   5 -26 79.6201 41.7269   3
  -5   5  27-7.48066 50.0385   8
  -5  -5  27-40.9214 52.4517   8
  -5  -5  27 10.9633 43.0670   5
  -5  -5  28 33.8695 55.2146   8
  -5  -5  28-22.7128 45.0596   5
  -5   5  28 38.9006 53.0397   8
  -5   5  29 8.08226 56.4580   8
  -5  -5  29-78.7304 65.1777   8
  -5  -5  29-23.4940 45.6164   5
  -5   5  30 8.38308 60.0407   8
  -5  -5  30-72.2101 62.9295   8
  -5  -5  31 27.9046 58.8674   8
   5   6 -18 22.4555 25.6490   3
   5   6 -18 4.58203 16.8000   2
  -5  -6  18-34.9408 39.8848   8
   6  -5 -18 45.0134 28.3716   3
   6  -5 -18-3.97380 15.3269   2
   6  -5 -19 351.329 113.548   3
   6  -5 -19 320.792 108.917   2
  -5  -6  19 206.461 114.814   8
  -6   5  19 226.446 112.926   8
   5   6 -19 465.271 112.921   3
  -6   5  20 55.1680 62.8521   8
   6  -5 -20 248.234 64.3208   3
   5   6 -20 178.887 59.6354   3
   6  -5 -21 245.390 90.2073   3
   5   6 -22-6.73839 27.5167   3
  -5  -6  22 6.85833 46.3950   8
  -6   5  22-12.0796 40.8645   8
  -5  -6  23-9.33465 41.3173   5
   5   6 -23-7.02779 31.2273   3
   6  -5 -23 8.14467 31.7762   3
  -6   5  23 12.6144 42.8455   8
  -6   5  23 118.200 57.5508   5
  -5  -6  23 21.3871 42.4908   8
  -6   5  24-11.2243 49.7809   5
  -5  -6  24 29.1628 39.6333   5
   5   6 -24-7.31932 25.2638   3
   6  -5 -24 34.0323 34.6886   3
  -6   5  24-32.9098 43.6846   8
  -5  -6  24-14.8028 50.0411   8
   5   6 -25 68.4956 36.5573   3
  -5  -6  25 40.4380 45.5555   5
  -5  -6  25 76.7588 52.6363   8
   6  -5 -25 150.838 45.4596   3
  -6   5  25 35.1283 58.9986   5
  -6   5  25 6.85964 56.0201   8
  -5  -6  26 10.4967 41.8539   5
  -6   5  26-48.8028 61.0936   5
   6  -5 -26 46.2178 38.4234   3
  -5  -6  26 87.4707 57.8290   8
   5   6 -26 15.8051 31.9438   3
  -6   5  26 57.1133 53.1842   8
  -5  -6  27 43.5247 47.1852   5
  -6   5  27 66.8102 61.0518   8
  -5  -6  27 148.119 62.3148   8
  -6   5  27 76.1445 63.3048   5
  -6   5  28 39.5641 59.1254   5
  -5  -6  28 8.50622 50.5206   8
  -5  -6  28 11.2680 41.4130   5
  -6   5  28 15.4125 51.4056   8
  -5  -6  29-23.3008 49.9632   5
  -6   5  29-13.6851 58.7960   5
  -6   5  29 47.9454 56.9865   8
  -5  -6  29 166.838 63.4115   8
  -6   5  30 41.3848 76.1593   8
  -5  -6  30 235.425 81.4495   8
  -5  -6  31 18.6456 61.7873   8
  -6   5  31-34.2456 56.0394   8
  -6   5  32-8.84626 56.5289   8
  -4  -6  19 473.017 148.534   8
   4   6 -19 474.185 146.115   3
   6  -4 -19 613.028 148.863   3
  -6   4  19 321.086 147.607   8
   6  -4 -19 363.845 144.463   2
  -4  -6  20 371.678 127.314   8
   4   6 -20 338.700 122.843   3
   6  -4 -20 586.877 127.287   3
  -6   4  20 207.351 124.616   8
   4   6 -21 290.867 110.704   3
  -4  -6  21 369.145 114.702   5
  -4  -6  22 108.339 53.8270   8
  -6   4  22 42.9155 51.9779   8
  -4  -6  23 37.6092 40.0062   5
   4   6 -23 49.5521 29.6082   3
  -6   4  23-19.2072 44.7150   8
  -4  -6  23 56.4937 48.3432   8
   6  -4 -23-8.00054 33.4894   3
  -6   4  24-22.0552 51.9248   5
  -4  -6  24-14.4766 42.2649   8
   6  -4 -24 25.0533 33.7778   3
  -6   4  24-20.0326 43.6274   8
  -4  -6  24 9.81105 38.6567   5
  -4  -6  25 194.208 70.2391   5
  -4  -6  25 135.478 72.5290   8
  -6   4  25 83.4966 71.5626   8
   6  -4 -25 226.324 66.4314   3
  -6   4  25 137.926 75.4869   5
  -4  -6  26 63.7766 45.4874   5
  -6   4  26 11.9680 61.0959   5
   6  -4 -26 27.1944 39.4217   3
  -4  -6  26 171.889 55.6855   8
  -6   4  26 86.8694 56.2817   8
  -4  -6  27 234.932 68.9322   8
  -6   4  27 120.392 69.3798   8
   6  -4 -27 75.3777 52.3740   3
  -6   4  27 87.1111 67.3449   5
  -4  -6  28 83.8603 56.9942   8
  -6   4  28 15.6171 55.9342   8
  -6   4  28 116.293 62.5454   5
  -6   4  29-32.3832 58.3060   8
  -4  -6  29-8.66940 57.2113   8
  -6   4  29 93.8281 60.3131   5
  -6   4  30 27.7729 59.1266   5
  -6   4  30-41.9135 60.0459   8
  -6   4  31 69.3643 63.6394   8
  -6   4  32-8.95603 60.6241   8
   6  -3 -19 631.323 132.348   3
  -3  -6  19 489.441 132.640   8
  -3  -6  19 512.461 132.188   5
   3   6 -19 189.961 127.846   3
  -6   3  19 206.620 130.965   8
  -3  -6  20 1036.27 237.192   8
   3   6 -20 250.428 232.606   3
  -3  -6  20 1122.65 237.972   5
   6  -3 -20 1343.35 238.566   3
  -6   3  20 535.080 235.705   8
  -3  -6  21 437.390 149.128   5
  -3  -6  21 419.915 150.308   8
  -6   3  22 149.317 67.4399   8
  -6   3  23-25.9770 45.0668   8
   6  -3 -23 102.303 38.2522   3
  -3  -6  23-19.2222 35.4850   5
  -3  -6  23 13.9447 43.2961   8
   6  -3 -24 410.333 101.801   3
  -3  -6  24 203.744 104.158   8
  -6   3  24 189.606 102.626   8
  -6   3  25 22.5878 54.3383   5
  -3  -6  25 75.8020 49.9757   8
   6  -3 -25 8.55042 34.9209   3
  -6   3  25 35.2578 53.0279   8
   6  -3 -26 320.271 115.437   3
  -3  -6  26 465.085 121.951   8
  -6   3  26 256.671 121.032   8
  -6   3  26 235.042 122.134   5
   6  -3 -27 83.2005 40.8713   3
  -6   3  27 48.8598 57.7788   5
  -6   3  27 15.2384 55.1261   8
  -6   3  28 316.291 97.4664   8
  -6   3  28 114.118 91.7648   5
  -6   3  29 26.2924 54.1775   5
  -6   3  29-32.7793 56.3681   8
  -6   3  30 262.945 88.8537   8
  -6   3  30 95.2893 83.3933   5
  -6   3  31 8.76866 62.1605   8
  -6   3  32 172.084 86.9399   8
  -6   2  20 485.538 207.233   8
   6  -2 -20 747.700 207.329   3
  -2  -6  20 582.423 208.144   8
  -2  -6  21 1109.97 373.083   8
  -6   2  22 132.522 62.6200   8
  -2  -6  23 602.907 153.977   8
  -6   2  23 362.102 147.775   8
   6  -2 -23 356.247 145.715   3
  -6   2  24-6.86138 42.6058   8
   6  -2 -24-16.1448 34.2168   3
  -6   2  25 266.644 88.9112   5
  -6   2  25 135.687 81.3954   8
   6  -2 -25 193.320 73.7283   3
  -6   2  26-7.42453 44.8282   8
  -6   2  26-11.5537 50.6907   5
   6  -2 -26 61.1808 33.3616   3
   6  -2 -27 217.879 81.9610   3
  -6   2  27 24.0034 90.9495   5
  -6   2  27 323.828 90.8211   8
  -6   2  28 62.2594 51.2136   5
   6  -2 -28-9.41649 30.5959   3
  -6   2  28-47.9881 64.1404   8
  -6   2  29 232.254 89.2582   5
  -6   2  29 149.131 88.9846   8
  -6   2  30 77.1579 62.7768   8
  -6   2  30 26.7124 53.9145   5
  -6   2  31 540.499 162.996   8
  -6   2  31 317.613 157.885   5
  -6   2  32-18.2930 61.1969   8
   6  -1 -20 556.971 160.527   3
  -1  -6  20 560.177 160.929   8
  -6   1  20 287.563 160.749   8
  -6   1  22 76.7852 49.3011   8
  -6   1  23 46.7015 47.7312   8
   6  -1 -23 61.0453 39.8520   3
   6  -1 -24 55.6416 44.4420   3
  -6   1  24 132.031 55.7811   8
   6  -1 -25 24.8107 34.8713   3
  -6   1  25-65.0634 50.5568   8
   6  -1 -26 128.955 44.6326   3
  -6   1  26 15.0237 57.4492   8
  -6   1  26 22.7403 54.3441   5
  -6   1  27 62.3745 49.2732   8
   6  -1 -27 8.92487 34.9854   3
  -6   1  27 47.2179 55.9616   5
   6  -1 -28 83.2735 47.1746   3
  -6   1  28 48.9695 64.2649   5
  -6   1  28 129.341 70.4226   8
  -6   1  29-25.1095 57.6718   8
  -6   1  29-12.6793 58.1936   5
  -6   1  30 77.9102 62.1275   8
  -6   1  30 13.1181 56.1198   5
  -6   1  31-13.5522 58.8343   5
  -6   1  31 17.8881 69.5183   8
  -6   1  32 83.0477 67.8602   8
  -6   1  33-38.0455 64.5713   8
   6   0 -20 623.233 211.782   3
   6   0 -22 231.050 67.3802   3
  -6   0  22 84.3047 70.4931   8
  -6   0  23-13.5135 44.5359   8
   6   0 -23-15.0484 31.7989   3
   6   0 -24-23.5000 32.8472   3
  -6   0  24 14.0659 47.3448   8
   6   0 -25 24.4416 30.9225   3
  -6   0  25-36.5667 48.0776   8
  -6   0  26 33.6000 53.1802   5
  -6   0  26 68.3523 58.7159   8
   6   0 -26 67.7004 39.8238   3
  -6   0  27-11.6216 45.0462   5
   6   0 -27 61.4653 32.8124   3
  -6   0  27-63.0271 55.0909   8
   6   0 -28 45.5069 47.0891   3
  -6   0  28 24.0929 64.4956   5
  -6   0  29 59.1387 57.1439   8
   6   0 -29-18.8426 35.1045   3
  -6   0  29-49.8804 53.7509   5
  -6   0  30 38.6857 49.5853   5
  -6   0  30-8.73398 58.4766   8
  -6   0  31 26.6429 60.4676   5
  -6   0  31-63.1363 65.6079   8
  -6   0  32 74.4137 66.4934   8
  -6   0  33 47.9168 68.2249   8
   6   1 -20 439.209 151.844   3
   6   1 -22 199.649 75.6091   3
   6   1 -23 37.1318 35.8129   3
   6   1 -24 247.277 90.7052   3
   6   1 -25 24.0980 32.3595   3
   6   1 -26 116.753 44.1885   3
  -6  -1  26 33.1315 54.4409   5
  -6  -1  27 45.8153 57.2214   5
   6   1 -27 129.734 49.5608   3
  -6  -1  28 23.7336 53.4848   5
   6   1 -28 53.7635 37.8314   3
   6   1 -29 27.8131 31.6947   3
  -6  -1  29-12.2782 50.7531   5
  -6  -1  30 50.7816 55.2495   5
  -6  -1  31-39.3136 60.3594   5
  -6  -1  32 67.5668 54.1423   5
  -2   6  20 425.496 228.984   8
   6   2 -20 1005.39 230.966   3
  -6  -2  22 113.163 87.6529   8
   6   2 -22 281.929 81.0390   3
   6   2 -23 337.507 88.7222   3
  -6  -2  23 90.0102 92.5978   8
  -6  -2  24 35.9781 48.4555   8
   6   2 -24 7.63103 34.1736   3
   6   2 -25 190.287 83.1600   3
  -6  -2  25 254.011 89.9053   8
   6   2 -26 57.5946 36.2998   3
  -6  -2  26 85.2227 51.3500   8
  -6  -2  26-54.5121 51.2753   5
  -6  -2  27 101.718 81.8425   5
  -6  -2  27 208.683 86.8613   8
   6   2 -27 213.226 73.8838   3
   6   2 -28 44.1629 32.4959   3
  -6  -2  28 11.7041 55.1197   5
  -6  -2  28-24.9198 60.2813   8
   6   2 -29 9.13435 45.6227   3
  -6  -2  29 108.940 65.6197   5
  -6  -2  30 12.5057 51.5838   5
  -6  -2  30-88.6797 59.7320   8
  -6  -2  31 206.516 115.768   5
  -6  -2  31 292.624 114.261   8
  -6  -2  32 9.42396 59.2947   8
  -6  -2  32-66.5204 58.9845   5
  -3   6  19 440.170 144.835   8
   6   3 -19 377.371 141.905   2
  -6  -3  19 197.545 145.070   8
   6   3 -19 695.886 145.689   3
  -3   6  20 1010.53 410.302   8
   6   3 -20 1477.41 411.222   3
  -3   6  21 330.233 118.361   8
  -6  -3  21 343.686 121.905   8
   6   3 -22 216.198 105.523   3
  -3   6  22 475.140 107.385   8
  -6  -3  22 195.579 106.773   8
   6   3 -23 21.7704 35.0128   3
  -6  -3  23-28.0326 46.8085   8
  -6  -3  24 232.837 76.7646   8
  -3   6  24 59.9300 71.8017   8
   6   3 -24 203.700 67.5530   3
  -6  -3  25-22.6437 48.7041   8
   6   3 -25-7.83331 33.0363   3
  -6  -3  26 477.089 117.618   8
   6   3 -26 219.429 105.936   3
  -6  -3  26 290.954 114.673   5
   6   3 -27 8.41915 32.1378   3
  -6  -3  27 33.4972 48.9790   5
  -6  -3  27 129.537 59.7153   8
  -6  -3  28 127.103 90.0315   5
   6   3 -28 209.148 80.2150   3
  -6  -3  28 284.684 92.4925   8
  -6  -3  29 69.1848 65.5872   8
   6   3 -29 81.0735 38.5199   3
  -6  -3  29 11.9481 52.1633   5
  -6  -3  30-24.6781 69.5278   5
  -6  -3  30 339.093 84.0269   8
  -6  -3  31-64.3923 67.7910   8
  -6  -3  31 25.4500 57.8440   5
  -6  -3  32 47.3554 67.4052   8
  -6  -3  32 78.6636 60.8607   5
   4  -6 -19 95.3291 115.336   3
  -4   6  19 143.626 118.976   5
  -4   6  19 352.517 118.772   8
   6   4 -19 450.863 116.330   2
   6   4 -19 592.244 120.465   3
  -4   6  20 278.682 93.7743   8
  -4   6  20 218.768 94.8289   5
  -4   6  21 191.014 110.481   5
  -4   6  21 377.815 111.193   8
  -6  -4  21 223.700 112.927   8
   6   4 -21 342.017 106.891   2
  -6  -4  22 27.3328 57.4563   8
  -4   6  22 63.5932 48.8319   5
   6   4 -22 103.610 41.3247   3
   6   4 -23 93.3979 38.5697   3
  -6  -4  23 42.5577 54.9909   8
  -4   6  23 49.2774 48.1991   8
  -4   6  24-12.9324 39.3740   8
   6   4 -24 52.2594 31.5902   3
  -6  -4  24 22.0694 51.4755   8
   6   4 -25 232.476 93.3935   3
  -4   6  25 169.369 98.4724   8
  -6  -4  25 426.926 103.172   8
  -6  -4  26 10.6614 46.9325   5
   6   4 -26 72.3280 36.7470   3
  -6  -4  26-31.5678 54.1369   8
  -4   6  26 84.9791 49.6568   8
  -4   6  27 273.468 69.9353   8
   6   4 -27 74.9123 55.9818   3
  -6  -4  27 66.2590 63.1319   5
  -6  -4  27 146.935 71.5430   8
   6   4 -28 51.6572 34.9977   3
  -6  -4  28-11.4223 46.0289   5
  -6  -4  28 109.656 60.4082   8
   6   4 -29 35.5838 32.1950   3
  -6  -4  29 104.465 59.6793   8
  -6  -4  29-11.8059 45.9579   5
  -6  -4  30-17.9521 62.8925   8
  -6  -4  30-24.3725 55.2510   5
  -6  -4  31 12.5629 50.1876   5
  -6  -4  31 101.713 70.1981   8
  -6  -4  32 38.8118 47.6902   5
  -6  -4  32 19.0267 66.7659   8
   5  -6 -18 38.3463 28.7774   3
   6   5 -18 42.3304 24.7128   2
  -5   6  18 33.5898 34.7076   8
   6   5 -18 17.4263 28.4420   3
  -5   6  19 243.131 110.380   8
   5  -6 -19 365.171 109.299   3
   6   5 -19 278.257 106.495   2
   6   5 -19 393.880 110.536   3
  -5   6  20 47.0718 48.2279   5
  -5   6  20 69.4042 40.3654   8
   5  -6 -20 71.4100 36.1081   3
  -6  -5  21 80.1450 62.6584   8
  -5   6  21 109.158 59.4926   5
  -5   6  21 207.880 57.4059   8
   6   5 -21 131.456 48.5725   2
   5  -6 -21 75.2590 51.0083   3
   6   5 -22-6.84888 31.1078   3
   6   5 -22-21.8140 23.1226   2
  -6  -5  22-13.8541 47.5951   8
   6   5 -23 28.4899 28.3923   3
  -6  -5  23-50.2650 52.0080   8
  -5   6  23 6.19011 42.1639   8
   6   5 -23 11.3061 23.3474   2
  -5   6  24 25.9291 41.8573   8
  -5   6  24 11.4854 46.3549   5
  -6  -5  24 22.3168 48.2570   8
   6   5 -24 7.39864 31.3777   3
  -6  -5  25 184.848 70.1811   8
  -5   6  25 24.0271 66.9957   5
   6   5 -25 207.251 58.3461   3
  -5   6  25 67.7761 64.2166   8
  -6  -5  26-10.5597 49.9380   5
  -5   6  26 99.0323 53.4850   8
   6   5 -26 55.6877 41.1173   3
  -6  -5  26 87.6161 64.5908   8
  -6  -5  27 74.0727 64.4403   8
  -6  -5  27 54.6683 60.4465   5
   6   5 -27 115.309 46.5303   3
  -5   6  27 117.923 62.1817   8
  -6  -5  28 67.9767 58.1416   8
  -5   6  28-23.0103 55.5018   8
   6   5 -28-25.5553 30.4113   3
  -6  -5  28 33.9231 51.5443   5
   6   5 -29-8.79841 28.5713   3
  -5   6  29 31.8761 55.4992   8
  -6  -5  29-8.76222 57.7989   8
  -6  -5  29 11.6789 49.9528   5
  -6  -5  30 153.469 80.0440   8
  -6  -5  30 24.0998 68.1108   5
  -6  -5  31-24.8406 44.4234   5
  -6  -5  31 9.29171 63.2602   8
  -6  -5  32-25.5701 50.4832   5
  -6  -5  32-47.7652 65.7275   8
   6  -6 -17 3.72827 14.5616   2
   6  -6 -17 18.5590 28.5765   3
   6   6 -17-5.54476 27.0689   3
   6   6 -17-4.63840 16.7446   2
   6   6 -18 148.876 57.3776   2
   6  -6 -18 144.695 56.6690   2
   6   6 -18 161.636 61.7829   3
   6  -6 -18 247.618 64.9218   3
   6  -6 -19 12.3024 16.5790   2
   6  -6 -19-6.85624 27.9529   3
   6   6 -19-24.0823 27.8066   3
   6  -6 -20 295.458 75.9651   3
  -6   6  20 200.902 76.4933   8
   6  -6 -20 167.596 69.0798   2
   6   6 -21-32.0332 23.1556   2
   6   6 -21 6.53490 32.9202   3
   6  -6 -21 7.56387 37.7568   3
   6   6 -22 27.6495 31.0278   2
  -6   6  22 17.8410 48.4894   8
   6   6 -23 5.72447 22.3584   2
   6  -6 -23-16.6003 32.2535   3
   6   6 -23 49.4938 29.2318   3
  -6  -6  23 36.3711 48.3781   8
  -6   6  23-24.8520 44.7072   8
  -6   6  23-10.9451 49.6540   5
   6   6 -24 139.448 39.7193   3
   6  -6 -24 60.7145 41.9503   3
  -6  -6  24 158.055 58.9936   8
   6   6 -24 47.3913 33.1401   2
  -6   6  24 32.4229 51.4099   8
  -6   6  24 11.4391 58.4831   5
  -6   6  25 107.484 57.3248   5
   6   6 -25-7.61380 29.2874   3
  -6  -6  25-54.4777 52.0389   8
   6   6 -25-24.4954 28.9435   2
  -6   6  25 20.2755 45.3493   8
   6  -6 -25-9.05372 32.0697   3
  -6   6  26-37.3461 58.2350   5
  -6  -6  26 10.4781 57.0911   5
  -6   6  26 35.1896 55.4300   8
   6   6 -26 110.436 41.1731   3
  -6   6  27 25.9194 55.1490   5
  -6  -6  27-91.2905 61.7587   8
   6   6 -27-24.4923 28.8012   3
  -6  -6  27 65.0624 46.2001   5
  -6   6  27-7.31857 51.7021   8
  -6   6  28 80.8290 59.6503   5
  -6   6  28 113.998 61.0949   8
  -6  -6  28 67.2421 53.3824   5
  -6  -6  28 42.7879 62.7571   8
   6   6 -28 84.3811 41.2117   3
  -6   6  29-55.1819 60.1614   8
  -6  -6  29-35.2780 57.9750   8
  -6  -6  29-34.7221 46.8768   5
  -6  -6  30 18.1582 60.0830   8
  -6  -6  30 11.9330 46.6000   5
  -6   6  30-32.6719 54.0568   8
  -6  -6  31 12.2947 46.2177   5
  -6   6  31 8.45148 54.3024   8
  -6  -6  31-18.6676 64.4331   8
  -6   6  32 96.0671 65.5540   8
  -6  -6  32-9.58906 72.1342   8
   6   7 -16 27.4018 22.8852   2
   7  -6 -16 86.8658 36.9386   3
   7  -6 -16 41.2140 20.4382   2
   6   7 -16 63.4186 31.2060   3
   6   7 -17 16.5488 26.6252   3
   7  -6 -17 7.78808 13.4695   2
   6   7 -17-9.51019 17.3627   2
   7  -6 -17-6.48495 32.5728   3
   6   7 -18 5.74176 27.7369   3
   7  -6 -18 4.08952 15.7388   2
   7  -6 -18-20.2919 30.6606   3
   6   7 -18 14.7300 19.3949   2
   6   7 -19 191.694 78.2568   3
   7  -6 -19 204.360 74.8453   2
   7  -6 -19 289.925 81.1822   3
   6   7 -20 10.4961 24.9299   2
   7  -6 -20-7.39032 38.3553   3
   6   7 -21 247.029 50.9650   3
   6   7 -21 48.8463 44.0665   2
   7  -6 -22 72.5146 37.7606   3
   6   7 -22 6.76248 28.7851   3
   6   7 -22-22.4510 22.9942   2
   7  -6 -22 9.60875 19.0574   2
   7  -6 -23 8.40275 32.7148   3
   7  -6 -23 4.99869 18.2325   2
   6   7 -23-21.0834 29.8277   3
   6   7 -23-34.8094 23.9472   2
   6   7 -24-7.29610 31.4557   3
   7  -6 -24 31.1796 21.3849   2
   6   7 -24 11.9886 25.2605   2
   7  -6 -24 17.5069 34.9228   3
  -7   6  25 36.0463 57.8817   5
  -6  -7  25 31.4766 59.2228   8
  -6  -7  25-20.1041 48.1880   5
   6   7 -25 12.3775 29.3942   2
   6   7 -25 7.56313 35.6015   3
   7  -6 -25 53.9885 25.0492   2
   7  -6 -25 72.8872 37.7021   3
   6   7 -26-31.3332 31.4192   3
  -6  -7  26 10.4103 44.5283   5
   7  -6 -26-5.60507 20.4695   2
   7  -6 -26-9.47153 35.9662   3
  -6  -7  26-56.8376 56.2226   8
   6   7 -26 25.5422 23.0683   2
  -7   6  26-12.4929 57.7102   5
   6   7 -27 52.6618 39.5202   2
  -7   6  27 51.8944 61.9277   5
   6   7 -27 105.357 43.0035   3
   7  -6 -27 110.449 38.4497   2
  -6  -7  27-43.0791 53.9484   5
   7  -6 -27 157.393 50.0006   3
  -6  -7  27 83.7075 65.2044   8
  -6  -7  28 43.1260 57.8578   8
  -6  -7  28-11.1265 48.3832   5
   6   7 -28 13.5654 27.8113   2
   7  -6 -28 6.02394 22.6147   2
  -7   6  28 22.8085 51.9520   8
   6   7 -28-16.7433 28.3694   3
  -7   6  28 40.3907 61.8487   5
  -6  -7  29-97.6583 72.5372   8
  -6  -7  29-22.9655 58.3222   5
  -7   6  29-70.8232 63.9415   8
   6   7 -29-55.8512 41.0190   2
  -7   6  29-69.7750 74.1504   5
   7  -6 -29-99.7683 41.8589   2
   7  -6 -30-25.7895 25.9875   2
  -7   6  30-28.8940 59.9340   5
  -7   6  30-8.13812 54.1039   8
  -6  -7  30 9.12934 59.7877   8
  -6  -7  30-23.6717 47.3106   5
   6   7 -30-35.8943 28.6653   2
  -6  -7  31-9.37723 61.0958   8
   6   7 -31 29.5008 30.4103   2
  -7   6  31 50.4386 57.3985   8
   7  -6 -31-19.9812 27.4818   2
   7  -6 -32-27.4913 27.0312   2
  -7   6  32 26.0219 59.8372   8
  -6  -7  32-28.8780 65.5615   8
   5   7 -17-17.9427 18.8180   2
   7  -5 -17-19.9422 14.1545   2
   5   7 -17-5.33228 23.7312   3
   7  -5 -17 25.7256 34.6399   3
   7  -5 -18 20.7492 18.1973   2
   7  -5 -18 13.3923 33.8327   3
   5   7 -18 18.6700 19.2815   2
   5   7 -18 50.3900 27.2277   3
   5   7 -19 24.2809 22.4047   2
  -5  -7  19 49.4020 38.9037   8
   7  -5 -19 43.1989 20.3451   2
   7  -5 -19 34.9463 38.5082   3
   5   7 -19 23.4854 27.0414   3
   7  -5 -20 87.5299 55.6052   3
   5   7 -20 147.584 51.0014   3
   7  -5 -21 65.5455 29.2189   2
  -5  -7  21 20.0404 49.6990   8
   7  -5 -22 4.87227 17.9622   2
   5   7 -22-20.1393 27.1476   3
  -5  -7  22-6.93993 45.6272   8
   7  -5 -22 7.93306 37.1177   3
   5   7 -23-6.99889 27.0896   3
  -5  -7  23-18.5980 36.8255   5
  -5  -7  23-36.0129 48.1049   8
   7  -5 -23-16.5294 33.0637   3
   7  -5 -23-5.06906 18.6865   2
   5   7 -24 50.9820 28.4011   3
   7  -5 -24 34.4069 33.1172   3
   7  -5 -24 10.5373 21.8963   2
  -5  -7  24 67.2285 49.8329   8
  -5  -7  24-19.3604 40.6868   5
  -5  -7  25-7.73797 54.0639   8
   7  -5 -25 10.9449 22.0154   2
   7  -5 -25-8.94723 34.0103   3
   5   7 -25-30.2796 31.4281   3
  -5  -7  25-10.0606 42.4035   5
   7  -5 -26 204.521 91.4608   3
  -7   5  26 159.444 99.7556   5
  -7   5  26 107.636 95.1661   8
  -5  -7  26 52.2070 94.8859   5
   7  -5 -26 380.460 87.5355   2
  -5  -7  26 272.261 102.853   8
  -5  -7  27-21.6441 44.9155   5
   7  -5 -27-48.2421 37.2285   3
  -7   5  27-12.7308 57.8650   5
  -7   5  27-7.43963 52.4786   8
   7  -5 -27-11.7784 22.6423   2
  -5  -7  27-99.3206 60.1627   8
   7  -5 -28 100.019 48.7184   3
  -7   5  28 132.026 68.9915   5
  -5  -7  28 22.3972 50.3121   5
  -7   5  28-30.8350 57.6383   8
   7  -5 -28 91.5124 38.8724   2
  -5  -7  28 162.363 64.7728   8
  -5  -7  29-96.9513 66.6783   8
  -5  -7  29-11.5711 50.2395   5
  -7   5  29-27.3516 74.2754   5
  -7   5  29-47.8607 65.8557   8
   7  -5 -29-63.1510 39.9385   2
   7  -5 -30-39.1768 26.5208   2
  -7   5  30-28.3064 62.0269   5
  -7   5  30-24.7412 52.0839   8
  -7   5  31-34.0661 57.0539   8
   7  -5 -31 26.9727 27.2621   2
  -7   5  31-29.2592 67.5683   5
  -5  -7  31-56.0440 63.5334   8
   7  -5 -32 41.7383 31.0701   2
  -7   5  32 8.78727 66.5871   8
   4   7 -17 57.8451 29.5720   3
   7  -4 -17 44.5433 22.5469   2
   7  -4 -17 51.0226 38.0586   3
  -4  -7  17 43.6040 38.2595   8
   7  -4 -18 273.830 86.8487   2
  -4  -7  18 137.127 93.1966   8
   4   7 -18 260.994 89.2736   3
   7  -4 -18 279.102 92.6685   3
  -4  -7  19 77.7978 41.0947   8
   7  -4 -19 89.8305 37.8252   3
   7  -4 -19 26.3085 20.5390   2
   4   7 -19 5.84970 29.0415   3
   4   7 -20 86.0914 61.1938   3
   7  -4 -20 316.895 70.5248   3
  -4  -7  20 171.619 67.9913   5
  -4  -7  20 175.264 70.4394   8
   7  -4 -21 4.74959 18.7738   2
  -4  -7  22 20.4691 53.2908   8
   7  -4 -22 84.0006 37.0928   2
   7  -4 -22 156.311 49.0076   3
   7  -4 -23 20.5565 24.3355   2
  -4  -7  23 14.2144 45.6334   8
   4   7 -23 7.05838 26.7695   3
  -4  -7  23 65.6604 38.0781   5
   7  -4 -23 89.4779 37.5606   3
   7  -4 -24 93.0647 46.5428   3
  -4  -7  24 68.4780 45.1394   5
   7  -4 -24 74.7722 34.7093   2
  -4  -7  24 110.893 57.4224   8
   7  -4 -25 114.309 58.1283   3
  -4  -7  25 122.214 60.9844   5
   7  -4 -25 171.878 49.6654   2
  -4  -7  25 138.229 68.2123   8
  -7   4  25 14.0186 62.2598   8
   7  -4 -26 118.657 52.4582   3
  -4  -7  26 74.0969 55.1303   5
   7  -4 -26 103.571 41.7717   2
  -7   4  26 36.3690 58.7335   8
  -4  -7  26 199.112 69.6229   8
  -7   4  26-36.1617 72.6345   5
  -7   4  27 25.0116 131.330   5
   7  -4 -27 312.456 125.029   3
  -7   4  27 158.351 130.214   8
  -4  -7  27 552.817 132.661   8
   7  -4 -27 465.197 122.577   2
   7  -4 -28 78.4946 42.3344   3
  -7   4  28 38.8714 62.4482   5
  -7   4  28-7.80682 56.9525   8
   7  -4 -28 61.7793 31.3115   2
  -4  -7  28 34.1378 56.9050   8
  -7   4  29 26.8342 59.0705   5
  -7   4  29 56.5459 62.3100   8
   7  -4 -29 108.647 39.2503   2
  -4  -7  29 185.105 69.2881   8
   7  -4 -29-10.1578 42.6454   3
  -7   4  30-16.7015 59.0311   8
  -7   4  30-13.8728 59.9901   5
  -7   4  31 34.4829 60.8159   8
  -7   4  31 43.0089 59.3023   5
  -7   4  32 73.9890 62.3097   5
  -7   4  32-44.4594 62.4413   8
  -3  -7  18-5.50406 34.7780   8
   3   7 -18-11.2472 21.7732   3
   7  -3 -18 13.1588 33.2305   3
  -3  -7  18-29.8990 33.3978   5
   7  -3 -18 4.27906 16.5799   2
  -3  -7  19 758.204 233.691   5
   7  -3 -19 836.875 230.634   2
   3   7 -19 320.973 229.747   3
   7  -3 -19 997.749 234.206   3
  -3  -7  19 817.057 233.424   8
   3   7 -20-12.5292 21.8744   3
  -3  -7  20-18.2714 41.2075   8
  -3  -7  20 66.6025 34.2998   5
   7  -3 -20 78.2609 35.3491   3
  -3  -7  21 262.553 96.9624   5
   7  -3 -21 265.025 92.6924   2
   7  -3 -22-10.0236 22.9242   2
   7  -3 -22 7.70503 35.8674   3
  -3  -7  23 192.020 96.7988   5
  -3  -7  23 279.322 100.242   8
   7  -3 -23 250.048 90.9628   2
   7  -3 -23 320.489 97.7411   3
   7  -3 -24 99.9187 40.4413   3
  -7   3  24 41.0750 51.8280   8
   7  -3 -24 32.4690 28.0866   2
  -3  -7  24 80.0942 52.2842   8
  -7   3  25 42.6395 69.4117   8
   7  -3 -25 172.946 64.6974   3
  -3  -7  25 242.528 72.6616   8
   7  -3 -25 146.040 55.9147   2
   7  -3 -26 215.371 72.8447   3
   7  -3 -26 203.937 66.8880   2
  -7   3  26 88.4253 80.1582   8
  -3  -7  26 141.763 79.4498   8
  -7   3  27 12.2883 76.1559   5
   7  -3 -27 148.823 69.1167   3
   7  -3 -27 205.299 60.5519   2
  -7   3  27 122.174 74.6060   8
   7  -3 -28 96.3176 52.8572   3
  -7   3  28 150.218 66.9536   8
  -7   3  28 38.1893 66.3361   5
  -7   3  29 49.0526 56.3554   8
   7  -3 -29 29.9052 36.3663   3
  -7   3  29-13.1699 58.3027   5
  -7   3  30 109.825 71.4346   8
  -7   3  30 13.6162 72.8044   5
  -7   3  31 70.3175 68.2025   5
  -7   3  31 95.9304 68.5051   8
  -7   3  32 29.0171 65.1986   5
  -7   3  32 89.9352 71.2482   8
  -2  -7  18 1071.25 329.855   5
  -2  -7  18 983.608 330.485   8
   7  -2 -18 943.632 327.934   2
  -2  -7  19 139.636 43.5358   5
   7  -2 -19 72.3480 33.7698   2
   7  -2 -19 108.394 45.7195   3
  -2  -7  19 52.2782 44.0720   8
  -2  -7  20 771.514 261.200   8
  -2  -7  21 51.5151 41.3528   8
   7  -2 -21 24.4477 21.8940   2
   7  -2 -22 381.218 143.498   2
   7  -2 -22 509.162 147.644   3
  -2  -7  23 28.2703 42.5767   8
   7  -2 -23-10.5612 22.7504   2
   7  -2 -23 7.89612 32.9875   3
   7  -2 -24 385.391 92.1019   3
  -2  -7  24 280.434 95.3142   8
   7  -2 -24 263.178 85.4255   2
  -7   2  24 13.8780 92.7933   8
   7  -2 -25 229.763 63.1463   3
   7  -2 -25 147.917 56.2710   2
  -7   2  25 50.3990 70.3153   8
   7  -2 -26 259.486 86.2775   2
   7  -2 -26 300.058 91.8900   3
  -7   2  26 126.875 96.2176   8
  -7   2  27 72.5261 92.2748   5
  -7   2  27 208.715 88.2235   8
   7  -2 -27 283.437 83.6097   3
  -7   2  28 168.005 68.2593   8
   7  -2 -28 123.008 56.2894   3
  -7   2  28 12.5125 67.4915   5
   7  -2 -29 29.3618 40.8464   3
  -7   2  29 49.6377 59.8021   8
  -7   2  29 51.7584 62.0220   5
  -7   2  30 66.8426 60.1728   5
   7  -2 -30-40.4486 45.5462   3
  -7   2  30-8.54522 60.7306   8
  -7   2  31-44.0741 60.9322   8
  -7   2  31-41.4070 60.7228   5
  -7   2  32 56.9272 66.7398   5
  -7   2  32 81.8070 64.6227   8
  -7   2  33 29.3258 63.4498   5
   7  -1 -19 298.638 109.481   2
  -1  -7  19 372.332 114.474   8
  -1  -7  19 251.129 114.306   6
   7  -1 -19 361.798 113.956   3
  -1  -7  20 106.094 52.0370   8
   7  -1 -21 208.380 73.3391   2
   7  -1 -22-20.6175 22.6382   2
   7  -1 -22-22.4938 36.1985   3
   7  -1 -23 155.746 57.3467   3
   7  -1 -23 160.548 51.9956   2
  -7   1  23 20.3300 63.9938   8
  -7   1  24 21.1004 50.3454   8
   7  -1 -24 48.4888 34.3069   3
   7  -1 -24 38.8729 26.1707   2
   7  -1 -25 117.344 45.4893   3
  -7   1  25-7.29206 51.8942   8
   7  -1 -25 69.1070 32.7030   2
   7  -1 -26 411.794 131.024   2
  -7   1  26 219.142 136.693   8
   7  -1 -26 451.615 134.475   3
  -7   1  27 86.0516 61.2400   8
   7  -1 -27 53.9547 41.6268   3
   7  -1 -28 213.986 75.0874   3
  -7   1  28 73.8388 82.2472   5
  -7   1  28 250.856 88.5895   8
  -7   1  29 63.6168 68.2147   5
   7  -1 -29-9.61834 43.6447   3
  -7   1  29 192.369 61.7136   8
  -7   1  30-25.9050 59.7920   8
  -7   1  30-52.5592 66.1421   5
   7  -1 -30 9.93247 35.7683   3
  -7   1  31-13.5577 60.2379   5
  -7   1  31-8.90753 62.6559   8
  -7   1  32-13.9742 59.8690   5
  -7   1  32-9.17698 68.0685   8
  -7   1  33-14.3920 56.8877   5
   7   0 -19 18.6802 23.1581   2
   7   0 -19 125.941 39.0473   3
   7   0 -21 115.809 44.3019   2
   7   0 -22-10.4542 21.3812   2
   7   0 -22 7.40302 33.3367   3
   7   0 -23 37.9629 24.7654   2
   7   0 -23 7.68191 35.6219   3
   7   0 -24-23.9029 34.5823   3
   7   0 -24 5.62517 24.0537   2
  -7   0  24 21.3775 51.2890   8
  -7   0  25 214.162 72.0624   8
   7   0 -25 322.098 63.5465   3
   7   0 -25 81.5976 53.4330   2
  -7   0  26-7.64627 50.2669   8
   7   0 -26-8.55533 33.9979   3
   7   0 -26 6.03657 25.6173   2
   7   0 -27 309.891 107.760   3
   7   0 -27 318.532 104.819   2
  -7   0  27 221.571 114.612   8
   7   0 -28-27.4679 34.0862   3
  -7   0  28 73.6338 55.6551   8
  -7   0  28-36.3550 57.4109   5
  -7   0  29-12.5184 54.6112   5
  -7   0  29 50.6946 60.0817   8
   7   0 -29 9.45786 38.3084   3
  -7   0  30 25.8429 50.5896   5
  -7   0  30-8.71830 54.2423   8
   7   0 -30 19.5239 37.6100   3
  -7   0  31 17.9775 60.5499   8
   7   0 -31-30.2034 36.5722   3
  -7   0  31-13.3270 60.4879   5
  -7   0  32-13.7294 54.3567   5
  -7   0  32-18.5206 59.3508   8
   7   1 -19 406.523 141.123   3
   7   1 -21 183.201 73.9803   3
   7   1 -22 14.6235 33.4597   3
   7   1 -23 204.747 78.1123   3
   7   1 -24 7.86100 34.7154   3
   7   1 -25 73.2990 41.3886   3
   7   1 -26 446.924 154.799   3
   7   1 -27 17.4449 35.8744   3
   7   1 -27 12.6230 27.9965   2
   7   1 -28 198.346 78.7240   3
   7   1 -28 241.281 74.2644   2
  -7  -1  28 35.8203 89.6080   5
   7   1 -29 111.704 50.1986   3
  -7  -1  29 73.9700 65.6018   5
   7   1 -30-9.60361 35.5615   3
  -7  -1  30-12.7192 50.6681   5
  -7  -1  31-13.1122 56.2364   5
  -7  -1  32-13.5069 50.9676   5
   7   2 -18 1133.72 363.806   2
  -2   7  18 1029.38 364.191   8
  -2   7  19 138.740 53.9167   8
   7   2 -19 129.770 56.8881   3
  -2   7  20 798.451 269.004   8
   7   2 -21 83.5844 41.5673   3
   7   2 -21 67.4591 33.8360   2
   7   2 -22 489.317 169.875   2
   7   2 -22 520.155 173.090   3
   7   2 -23-7.49095 34.2366   3
   7   2 -23-16.7108 21.4514   2
   7   2 -24 426.895 132.364   3
   7   2 -24 346.023 127.891   2
   7   2 -25 184.875 64.4781   3
   7   2 -25 179.032 56.3057   2
  -7  -2  25-7.56772 70.5783   8
   7   2 -26 232.858 95.1593   3
  -7  -2  26 211.309 102.435   8
   7   2 -26 283.814 91.1056   2
   7   2 -27 361.139 104.668   3
  -7  -2  27 258.760 109.957   8
   7   2 -27 255.067 99.8504   2
   7   2 -28 186.552 68.5247   3
  -7  -2  28 35.3157 76.4327   5
  -7  -2  28 233.769 83.0738   8
   7   2 -28 171.178 62.9798   2
   7   2 -29 27.1628 26.3343   2
   7   2 -29 18.3417 33.0901   3
  -7  -2  29 68.8891 57.4254   8
  -7  -2  29 12.1531 52.0744   5
   7   2 -30 94.5752 42.1643   3
  -7  -2  30-37.5987 66.8060   5
  -7  -2  30 26.6332 64.7666   8
   7   2 -30 7.00118 31.4874   2
   7   2 -31 38.9806 38.0452   3
  -7  -2  31-64.5728 67.6367   5
   7   2 -31-28.8300 30.1179   2
  -7  -2  31 100.534 63.0918   8
  -7  -2  32 112.859 70.9008   8
  -7  -2  32 13.2925 58.1493   5
   7   2 -32 37.0854 36.8942   2
   7   3 -18-4.75787 19.2085   2
  -3   7  18 37.1131 28.7145   8
   7   3 -18 74.3347 33.7595   3
   7   3 -19 1008.25 316.232   3
  -3   7  19 880.734 315.223   8
  -3   7  20 21.0409 35.1410   8
   7   3 -20 35.6489 22.1104   2
  -3   7  21 418.168 90.0219   8
   7   3 -21 147.585 83.4885   2
   7   3 -21 268.738 87.0738   3
   7   3 -22 7.14441 32.6609   3
  -3   7  22-11.7867 42.0893   8
   7   3 -22 27.2791 23.9339   2
   7   3 -23 366.975 127.992   2
   7   3 -23 385.001 131.106   3
  -3   7  24 32.6572 54.4505   8
   7   3 -24 81.7548 40.7973   2
   7   3 -25 295.810 92.3737   2
   7   3 -25 206.384 94.5411   3
   7   3 -26 123.183 62.1567   3
  -7  -3  26 55.3963 76.3857   8
   7   3 -26 187.143 58.4153   2
   7   3 -27 135.793 75.7364   3
   7   3 -27 276.912 74.1996   2
  -7  -3  27 89.8713 87.4433   8
  -7  -3  28 177.004 77.6030   8
   7   3 -28 219.257 62.7682   2
   7   3 -28 122.706 65.7052   3
  -7  -3  28 11.6217 75.6231   5
  -7  -3  29 23.9789 67.2747   5
   7   3 -29 135.635 56.9164   3
  -7  -3  29 199.861 76.7792   8
   7   3 -29 136.951 53.8233   2
  -7  -3  30 49.4342 79.8990   5
   7   3 -30 55.9240 62.4331   3
   7   3 -30 141.100 61.9415   2
   7   3 -31 43.5473 33.3123   2
   7   3 -31 9.60005 37.7244   3
  -7  -3  31 140.026 61.1379   5
  -7  -3  31-18.4207 66.5108   8
   7   3 -32 89.5655 43.5563   2
  -7  -3  32 52.3848 59.2837   5
  -7  -3  32 47.3406 72.1846   8
   4  -7 -17 6.15900 28.6027   3
  -4   7  17 24.3391 37.0311   5
   7   4 -17 47.3682 35.7101   3
   7   4 -17 84.7451 26.9280   2
  -4   7  17 61.2163 34.4623   8
  -4   7  18 147.104 85.7250   5
   7   4 -18 272.014 82.7606   2
   4  -7 -18 131.360 82.3733   3
  -4   7  18 167.597 85.3287   8
  -4   7  19 24.3309 32.1545   8
  -4   7  19 46.0050 39.1539   5
  -4   7  20 159.832 66.1423   8
  -4   7  20 136.565 70.5893   5
   7   4 -20 181.422 62.1258   2
  -4   7  21 21.8001 36.3686   8
  -4   7  21-30.9317 46.4326   5
   7   4 -21 16.0727 23.2136   2
   7   4 -21-6.82059 33.3832   3
   7   4 -22 88.6199 34.6928   2
   7   4 -22 35.3485 42.3715   3
  -4   7  23 54.4432 40.7225   8
   7   4 -23 17.1746 24.5226   2
   7   4 -23 7.32359 32.4363   3
   7   4 -24 60.6692 43.0170   3
   7   4 -24 118.303 38.9656   2
  -4   7  24 57.1616 49.6533   8
   7   4 -25 61.0877 36.8705   2
   7   4 -25 125.559 44.4726   3
   7   4 -26 94.5606 37.7890   2
   7   4 -26 32.4604 41.3653   3
  -4   7  26 62.6568 52.3517   8
   7   4 -27 312.217 113.192   2
  -4   7  27 196.215 119.987   8
   7   4 -27 461.103 117.630   3
   7   4 -28 95.2018 39.1296   3
   7   4 -28 60.3422 33.2234   2
  -7  -4  28 34.4478 52.1700   5
  -7  -4  29-11.8406 52.2214   5
  -7  -4  29 105.181 60.6251   8
   7   4 -29-17.8495 34.9687   3
   7   4 -29 62.1393 30.2721   2
   7   4 -30-55.1755 41.1825   3
  -7  -4  30-153.339 83.7082   8
   7   4 -30-7.10509 41.2658   2
  -7  -4  30-97.6091 78.1368   5
  -7  -4  31 37.1032 65.8809   8
   7   4 -31-18.9358 33.4313   3
  -7  -4  31 75.3704 59.1886   5
   7   4 -31 29.2264 30.1267   2
   7   4 -32-30.0261 30.1320   2
  -7  -4  32-51.6723 53.4323   5
   7   5 -17-23.8881 16.3764   2
  -5   7  17-17.8262 29.9674   8
   7   5 -17-11.7323 29.2244   3
   5  -7 -17-6.13504 24.4394   3
   5  -7 -18 13.0279 28.7496   3
  -5   7  18 18.8462 33.9846   8
   7   5 -18 60.7955 31.7893   3
  -5   7  19 9.09196 41.7072   5
   5  -7 -19 20.7013 29.1465   3
  -5   7  19 24.8731 34.3933   8
   5  -7 -20 72.9392 42.1250   3
  -5   7  20 94.4066 46.4461   8
   7   5 -20 89.7867 36.9388   2
  -5   7  20 86.5080 51.4637   5
  -5   7  21-5.52123 38.0904   8
  -5   7  21 20.2746 49.0576   5
   7   5 -21-5.45073 24.1485   2
   7   5 -21-6.75628 32.8248   3
   5  -7 -21-46.1613 35.9757   3
   7   5 -22-21.0083 32.5007   3
   7   5 -22-16.8797 23.9245   2
   7   5 -23-5.80775 21.1890   2
   7   5 -23-7.25258 30.0650   3
  -5   7  23 18.2641 42.8768   8
   7   5 -24 82.5800 34.0297   3
  -5   7  24-23.5078 45.3354   5
  -5   7  24-6.37569 42.2854   8
   7   5 -24 17.9828 23.0853   2
  -5   7  25 53.3324 47.8027   8
   7   5 -25 23.2986 35.0174   3
   7   5 -25-68.0014 29.3467   2
   7   5 -26 264.872 79.5717   3
   7   5 -26 152.989 76.0137   2
  -5   7  26 271.528 87.1709   8
   7   5 -27-32.8409 28.9725   2
  -5   7  27-50.7961 48.6566   8
   7   5 -27 8.28929 33.3095   3
   7   5 -28 115.004 46.5408   2
   7   5 -28 145.423 52.8092   3
  -7  -5  28-22.7113 58.9783   5
  -5   7  28 135.945 61.5449   8
   7   5 -29-6.96022 31.1350   2
   7   5 -29-44.0902 40.0618   3
  -5   7  29-23.5424 57.0370   8
  -7  -5  29-93.6737 70.4189   5
   7   5 -30-7.15904 27.8309   2
   7   5 -30 63.5696 35.4371   3
  -7  -5  30-12.0603 49.7996   5
  -7  -5  31 12.4075 47.9894   5
   7   5 -31-7.35366 28.9644   2
   7   5 -31 9.34649 34.0828   3
  -7  -5  32 12.7544 50.4144   5
   6  -7 -16 5.93160 31.8558   3
   6  -7 -16 38.4986 18.9338   2
   7   6 -16 90.8317 23.6716   2
   7   6 -16 5.61436 32.7153   3
   7   6 -17 5.81658 29.8991   3
   7   6 -17 19.6112 17.9088   2
   6  -7 -17 29.3647 15.8133   2
   6  -7 -17-6.26555 32.2736   3
   6  -7 -18-33.0561 29.8143   3
   6  -7 -18-3.84997 14.2150   2
   7   6 -18 6.02838 30.8437   3
   6  -7 -19 118.433 65.1639   3
   6  -7 -19 185.725 59.5830   2
   6  -7 -20 109.980 37.3262   3
   7   6 -20 21.5477 26.4849   2
   6  -7 -20 50.7645 25.1624   2
   7   6 -20 6.46357 33.7045   3
   6  -7 -21 238.844 78.2145   3
   7   6 -21 116.575 72.2025   2
   7   6 -21 328.222 77.5755   3
   6  -7 -22-4.63594 18.9251   2
  -6   7  22 11.7100 39.3421   8
   7   6 -22 17.1610 23.1408   2
   7   6 -22 55.5369 31.9391   3
   6  -7 -23-16.9339 30.5783   3
  -6   7  23-44.6408 50.2556   5
   7   6 -23-23.5907 23.0814   2
  -6   7  23-6.11719 43.3151   8
   7   6 -23-14.3802 32.7490   3
   7   6 -24 37.2057 30.9984   3
  -6   7  24 11.6730 49.9417   5
   6  -7 -24-26.5765 32.2588   3
  -6   7  24 51.0992 43.6516   8
   7   6 -24 18.2330 26.9471   2
   7   6 -25 130.773 41.6919   3
   7   6 -25 50.0950 33.5781   2
  -6   7  25 12.1922 55.1136   5
  -6   7  25 26.6359 50.6783   8
   7   6 -26 7.95040 31.3152   3
  -6   7  26 12.7169 52.7041   5
   7   6 -26-12.8958 26.0686   2
  -6   7  26 13.8655 45.1357   8
   7   6 -27 139.545 43.9684   3
  -6   7  27-39.7400 61.1052   5
   7   6 -27 59.7294 39.5198   2
  -6   7  27 108.168 58.5512   8
  -7  -6  28-22.4885 45.9327   5
   7   6 -28 27.3101 29.8644   2
  -6   7  28 52.4340 56.7289   8
   7   6 -28 42.3292 35.9091   3
  -7  -6  29-46.3617 73.3276   5
   7   6 -29 17.4509 34.0115   3
  -6   7  29 31.0882 54.8931   8
   7   6 -29-35.0899 32.4780   2
  -7  -6  30-11.9337 50.6495   5
   7   6 -30-8.98133 31.3715   3
  -6   7  30-16.1012 55.5806   8
   7   6 -30 7.20825 28.1533   2
  -6   7  31 8.33260 57.0162   8
   7   6 -31-14.8011 31.8856   2
  -7  -6  31 49.0915 56.3154   5
   7   7 -14 175.992 93.4139   2
   7   7 -14 358.303 97.4715   3
   7  -7 -14 450.338 99.2009   3
   7  -7 -14 258.511 92.5490   2
   7   7 -15-14.4978 18.4236   2
   7   7 -15-5.37881 27.9970   3
   7  -7 -15-10.6947 11.7725   2
   7  -7 -15-41.7501 33.5582   3
   7   7 -16-4.92949 16.4375   2
   7   7 -16 5.56854 29.3250   3
   7  -7 -16 3.69707 12.3442   2
   7  -7 -16 18.7352 32.8842   3
   7   7 -17 11.5397 30.5305   3
   7  -7 -17 3.84143 13.6244   2
   7   7 -17 10.0824 18.6488   2
   7  -7 -17 32.6313 33.9762   3
   7   7 -18 221.375 76.2912   3
   7  -7 -18 167.851 69.2443   2
   7  -7 -18 321.320 78.4479   3
   7   7 -19-10.6089 24.4349   2
   7  -7 -19-12.5950 17.5035   2
   7  -7 -19-50.1176 44.1039   3
   7  -7 -20 944.258 264.016   3
   7   7 -20 577.819 260.678   2
   7   7 -20 1065.17 263.505   3
   7   7 -21 33.9648 25.1333   2
   7   7 -21 39.9064 33.3402   3
   7   7 -22 58.2346 31.6568   2
   7  -7 -22 14.2140 28.2718   2
   7  -7 -22 65.5133 42.5849   3
   7  -7 -23 4.93041 18.7585   2
   7   7 -23 11.9871 22.8626   2
   7   7 -23 28.5410 32.1040   3
   7  -7 -23 17.0964 34.1911   3
   7   7 -24-22.1496 36.9288   3
   7  -7 -24-5.12644 21.1830   2
   7   7 -24 55.5083 31.5466   2
  -7   7  24 46.9909 63.0938   5
   7  -7 -24-17.8269 38.4614   3
   7   7 -25-15.2617 33.2019   3
   7  -7 -25-55.6984 36.3105   3
   7  -7 -25 31.9548 22.1946   2
  -7   7  25-12.2368 59.7741   5
   7   7 -25-25.3842 23.0171   2
   7  -7 -26-9.65816 36.1087   3
  -7   7  26-12.7334 61.9498   5
   7  -7 -26 77.4042 28.3417   2
   7   7 -26 31.5395 34.7685   3
   7   7 -26 52.2118 29.2907   2
   7  -7 -27 22.9411 24.2364   2
  -7  -7  27 21.6323 47.1298   5
  -7   7  27 39.7104 54.8697   5
   7   7 -27 24.4167 33.1024   3
   7   7 -27 13.4195 27.8055   2
   7   7 -28 124.089 54.7082   2
  -7  -7  28 55.7561 83.1236   5
   7   7 -28 92.2891 57.8036   3
  -7  -7  29-22.9699 51.0272   5
   7   7 -29-14.1580 31.1002   2
   7   7 -29-8.64340 31.0059   3
  -7   7  29 42.7482 62.3745   5
  -7  -7  30 11.8212 48.3637   5
   7   7 -30 79.9013 34.3469   2
   7   7 -30-8.89531 33.6995   3
   7   7 -31 7.44814 27.9966   2
  -7  -7  31-24.3147 49.5658   5
   8  -7 -13 54.0137 36.0406   3
   7   8 -13 19.9276 27.3839   3
   8  -7 -13 11.0385 11.7978   2
   7   8 -13 24.3360 15.6562   2
   7   8 -14 78.4468 38.8190   2
   7   8 -14 164.674 47.2185   3
   8  -7 -14 167.172 52.5538   3
   8  -7 -14 93.7550 38.5192   2
   7   8 -15 5.01344 15.2228   2
   8  -7 -15-3.83852 12.5325   2
   8  -7 -15 6.42059 33.6536   3
   7   8 -15 32.0147 29.6216   3
   8  -7 -16 3.98164 14.4756   2
   7   8 -16-15.2885 17.2307   2
   7   8 -16 60.8029 29.9431   3
   8  -7 -16 66.5853 34.7520   3
   7   8 -17 68.7742 46.0659   3
   8  -7 -17 106.622 39.5024   2
   7   8 -17 114.321 41.2185   2
   8  -7 -17 145.233 51.8521   3
   8  -7 -18 118.469 42.2068   2
   8  -7 -18 86.2851 55.2319   3
   8  -7 -19 1029.77 183.016   3
   7   8 -19 353.678 176.071   2
   7   8 -20 82.9170 29.4565   3
   7   8 -20-16.7377 21.9570   2
   7   8 -21 555.381 145.443   3
   8  -7 -21 524.917 148.380   3
   8  -7 -21 337.132 141.420   2
   8  -7 -22 67.8781 23.0141   2
   7   8 -22 11.8709 25.1033   2
   8  -7 -22 16.7965 38.4785   3
   7   8 -22 34.2439 31.0504   3
   7   8 -23 163.085 66.6593   3
   8  -7 -23 268.591 60.6120   2
   7   8 -23 48.7880 60.4919   2
   8  -7 -23 139.704 69.4251   3
   7   8 -24 22.0088 30.5688   3
   8  -7 -24 20.9856 19.9644   2
   8  -7 -24-9.07101 35.4383   3
   7   8 -24 12.5317 23.1546   2
   7   8 -25-7.58095 30.1268   3
   8  -7 -25-18.8324 36.7570   3
   8  -7 -25-5.42907 19.3837   2
   7   8 -25 19.3087 26.8906   2
   7   8 -26 62.6374 33.2986   3
   8  -7 -26-19.5470 37.8874   3
   7   8 -26 72.7128 30.6957   2
  -8   7  26-38.6390 65.0832   5
  -8   7  27-66.7712 87.2345   5
   7   8 -27 8.07800 34.5636   3
  -7  -8  27-42.9714 50.9045   5
   7   8 -27 27.1426 30.7485   2
  -7  -8  28-11.0762 47.1135   5
   7   8 -28 13.9303 27.1347   2
   7   8 -28-41.6474 34.6730   3
   7   8 -29 34.3074 30.9571   3
  -7  -8  29-11.4041 53.8817   5
   7   8 -29 7.14263 27.7484   2
  -7  -8  30-11.7320 47.8413   5
   7   8 -30 7.32304 30.3653   2
   7   8 -31 22.4997 27.1377   2
  -7  -8  31-24.1151 48.5352   5
   8  -6 -14 269.018 96.1934   2
   8  -6 -14 372.434 103.561   3
   6   8 -14 157.042 96.3129   2
   6   8 -14 516.509 99.9876   3
   8  -6 -15 117.564 37.6954   2
   8  -6 -15 147.566 49.8423   3
   6   8 -15 110.888 43.5938   3
   6   8 -15 64.2247 38.4979   2
   8  -6 -16 68.4654 34.0185   2
   8  -6 -16 132.738 46.8743   3
   6   8 -16 115.788 42.9101   3
   6   8 -16 98.8454 36.2597   2
   8  -6 -17 116.182 36.7285   2
   8  -6 -17 151.305 52.5610   3
   6   8 -17 120.599 41.2614   3
   6   8 -17 43.5573 37.1046   2
   6   8 -18 90.5586 49.0288   2
   8  -6 -18 162.785 49.5587   2
   8  -6 -18 107.037 58.8551   3
   6   8 -18 194.511 55.1871   3
   8  -6 -19 332.624 87.2784   3
   6   8 -19 167.072 81.1793   3
   6   8 -20 37.4730 25.2792   2
   8  -6 -21 94.8417 37.7159   2
   6   8 -21 84.1663 42.4078   3
   6   8 -21 66.3048 37.7122   2
   8  -6 -21 207.386 53.9700   3
   6   8 -22 39.9187 35.6969   2
   6   8 -22 134.678 42.2793   3
   8  -6 -22 118.949 35.2295   2
   8  -6 -22 41.4306 46.1112   3
   8  -6 -23 94.6218 47.1028   3
   6   8 -23 139.934 40.8659   3
   8  -6 -23 66.7141 30.5474   2
   6   8 -23 29.4247 32.1771   2
   6   8 -24 65.3584 32.0369   3
   8  -6 -24 71.4308 37.6456   3
   8  -6 -24-10.6273 20.8298   2
   6   8 -24-30.3570 27.5563   2
   8  -6 -25-46.3072 39.0145   3
   6   8 -25 45.1650 29.4060   3
   8  -6 -25 21.9971 21.8837   2
  -6  -8  25-10.0094 42.4906   5
   6   8 -25-18.7793 24.2392   2
   8  -6 -26 143.982 49.0494   3
   6   8 -26 70.1287 41.2833   3
  -6  -8  26-20.7257 56.0682   5
   6   8 -26-12.9013 36.8692   2
   8  -6 -26 170.642 36.1649   2
  -8   6  27-26.2338 69.5475   5
  -6  -8  27 32.1439 44.6612   5
   6   8 -27-6.64183 24.9316   2
   8  -6 -27-19.8847 35.4270   3
   6   8 -27 24.1715 30.3640   3
   8  -6 -27 41.1652 22.6135   2
  -8   6  28-13.5758 82.5979   5
  -6  -8  28 88.5256 64.5941   5
   6   8 -28 34.1704 38.3737   2
   8  -6 -28 133.791 58.3324   3
   8  -6 -28 121.539 45.7954   2
   8  -6 -29-10.6429 37.4603   3
   6   8 -29 42.1519 30.0949   2
  -6  -8  29-11.4133 47.4400   5
  -8   6  29-14.0412 67.1520   5
   8  -6 -29 43.9346 27.0036   2
  -6  -8  30 23.5244 43.3593   5
  -8   6  30-43.5260 60.1462   5
   6   8 -30-28.8743 31.1315   2
  -6  -8  30 101.009 63.2179   8
   8  -6 -30 12.9500 24.3792   2
   8  -6 -31 46.7272 31.3628   2
  -8   6  31-29.9714 66.8876   5
  -6  -8  31 28.2791 64.5681   8
   6   8 -31 51.8524 33.7475   2
  -8   6  32-15.4531 58.1452   5
   8  -6 -32-6.87574 25.7258   2
   8  -5 -15 1176.75 256.033   3
   8  -5 -15 909.099 252.384   2
   5   8 -15 380.088 251.616   2
   5   8 -15 1006.24 253.663   3
   8  -5 -16 40.8056 16.4150   2
   8  -5 -16 33.0599 36.4311   3
   5   8 -16-13.2702 18.0357   2
   5   8 -16 20.2671 23.5688   3
   8  -5 -17 157.279 48.2014   3
   5   8 -17 50.4776 34.9828   2
   8  -5 -17 105.128 34.4843   2
   5   8 -17 95.9021 39.3194   3
   5   8 -18 57.1522 32.1822   2
   8  -5 -18 120.392 45.6341   3
   8  -5 -18 78.1412 29.9771   2
   5   8 -18 61.5326 34.9280   3
   5   8 -19-4.94449 18.7772   2
   5   8 -19-17.5934 26.5601   3
   8  -5 -19 44.0491 38.4527   3
   8  -5 -20 18.5663 18.3415   2
   8  -5 -21 4.85062 18.0537   2
   5   8 -21-21.3077 25.6975   2
   8  -5 -21 31.5203 40.6382   3
  -5  -8  21 20.3311 45.4009   8
  -5  -8  22 35.6323 41.1489   5
   5   8 -22 107.185 33.8809   3
   8  -5 -22 75.3247 27.8993   2
   5   8 -22-22.0981 29.6049   2
  -5  -8  22-7.02888 51.0936   8
   8  -5 -22 188.043 47.9228   3
  -5  -8  23 27.8495 39.7529   5
   5   8 -23-6.98051 27.0267   3
   8  -5 -23 20.7955 21.1613   2
  -5  -8  23 43.7117 48.1897   8
   8  -5 -23 8.47976 34.9816   3
   8  -5 -24 8.79281 37.3230   3
  -5  -8  24-9.65794 40.3579   5
   5   8 -24 7.26295 28.8754   3
  -5  -8  24-22.6311 54.0128   8
   8  -5 -24-5.38194 21.2174   2
   8  -5 -25 419.239 101.348   3
   5   8 -25 105.615 93.7108   3
   8  -5 -25 451.077 95.8072   2
  -5  -8  25 170.566 101.529   5
  -5  -8  25 70.2243 104.860   8
   8  -5 -26 75.5016 41.9086   3
   8  -5 -26 17.2847 24.1006   2
  -5  -8  26 10.4086 41.3500   5
  -5  -8  26-40.3264 53.4631   8
   8  -5 -27 439.543 134.768   3
  -5  -8  27 172.444 131.917   5
  -5  -8  27 124.935 135.778   8
   8  -5 -27 524.082 129.122   2
  -8   5  28 13.3363 68.9413   5
  -5  -8  28-11.1510 43.3926   5
   8  -5 -28-10.1054 39.0147   3
  -5  -8  28 8.58880 58.9614   8
   8  -5 -28 30.7640 24.9110   2
   8  -5 -29 101.619 34.8097   2
  -8   5  29-27.5666 65.0748   5
   8  -5 -29 10.4428 43.0188   3
  -5  -8  29 17.6963 61.1982   8
   8  -5 -30 45.8647 30.2067   2
  -8   5  30 42.6981 65.0591   5
   8  -5 -30-21.5689 40.7274   3
  -5  -8  30 18.2176 59.3948   8
  -8   5  31-44.0725 69.6304   5
   8  -5 -31 6.75521 24.9983   2
  -5  -8  31 37.4519 62.7679   8
  -8   5  32-45.4458 65.2760   5
   8  -5 -32 34.7814 27.3644   2
   4   8 -16 752.480 196.915   3
  -4  -8  16 525.022 197.555   8
   8  -4 -16 888.530 200.257   3
   8  -4 -16 815.614 195.944   2
   4   8 -16 296.032 194.702   2
   4   8 -17 15.8118 24.4511   3
   8  -4 -17 88.3223 39.5046   3
  -4  -8  17-22.1942 37.6333   8
   8  -4 -17 46.9248 19.6348   2
   4   8 -18 83.4527 39.4981   3
   8  -4 -18 91.3313 48.8072   3
   8  -4 -18 110.096 37.9049   2
  -4  -8  18 81.2559 50.4936   8
   4   8 -19-11.7166 24.6590   3
   8  -4 -19-7.27231 36.8375   3
  -4  -8  19-6.06521 39.7306   8
   8  -4 -20 9.41582 18.9377   2
   4   8 -20-6.15567 25.3543   3
  -4  -8  20 25.3292 45.4826   8
  -4  -8  20-8.18462 33.9571   5
   8  -4 -21-9.83402 18.3713   2
   8  -4 -21 15.5712 39.3386   3
  -4  -8  22 17.9621 35.4348   5
   8  -4 -22 25.4497 21.2727   2
   4   8 -22 20.2629 28.3093   3
   8  -4 -22 72.6174 38.0306   3
  -4  -8  22 20.6442 44.9676   8
  -4  -8  23-9.38038 37.0577   5
   8  -4 -23-15.8080 19.4270   2
   8  -4 -23 33.4469 39.2223   3
  -4  -8  23-28.6341 47.2971   8
   8  -4 -24 207.887 75.2713   3
  -4  -8  24 107.556 75.1982   5
   8  -4 -24 201.772 66.3356   2
  -4  -8  24 156.145 82.6891   8
  -4  -8  25-10.1742 41.4920   5
   8  -4 -25 22.5647 30.1518   2
  -4  -8  25 30.8609 59.1286   8
   8  -4 -25 89.6848 43.3132   3
   8  -4 -26 577.624 195.078   2
   8  -4 -26 788.910 200.244   3
  -4  -8  26 311.819 202.481   8
   8  -4 -27-19.2060 40.6731   3
  -4  -8  27-16.5423 56.4299   8
   8  -4 -27 30.1461 22.8650   2
  -8   4  28 13.1086 105.024   5
   8  -4 -28 317.585 92.7852   2
   8  -4 -28 238.148 97.9146   3
  -4  -8  28 290.628 109.701   8
  -8   4  29 243.695 108.064   5
   8  -4 -29 167.161 68.6546   2
   8  -4 -29 205.009 76.3344   3
  -4  -8  29 17.6419 79.4351   8
   8  -4 -30 148.134 55.2499   3
   8  -4 -30 86.1991 44.8432   2
  -8   4  30 41.9223 75.4248   5
  -8   4  31 14.4147 67.8670   5
   8  -4 -31 13.6684 26.2044   2
   8  -4 -31-32.7403 39.8079   3
  -8   4  32 44.5550 65.0722   5
   8  -4 -32-21.1112 27.0458   2
   8  -3 -17 418.239 119.067   3
   3   8 -17 240.047 113.526   3
   8  -3 -17 407.258 113.792   2
  -3  -8  17 262.424 116.396   5
  -3  -8  17 310.940 117.044   8
  -3  -8  18 165.286 90.1950   5
  -3  -8  18 248.359 91.5085   8
   8  -3 -18 424.932 94.4262   3
   8  -3 -18 295.070 86.4940   2
   3   8 -18 124.292 87.2192   3
  -3  -8  19 11.8687 38.3055   8
  -3  -8  19 23.8008 31.1311   5
   3   8 -19 29.8321 22.2789   3
  -3  -8  20 79.6487 44.2739   8
   8  -3 -20 53.0394 30.2171   2
  -3  -8  20 66.8521 35.7944   5
  -3  -8  21-17.5568 33.5333   5
   8  -3 -21 14.9645 18.2059   2
   8  -3 -21 23.0807 39.4433   3
  -3  -8  22 67.0758 48.7997   8
   8  -3 -22 56.7791 28.8414   2
   8  -3 -22 39.8261 43.8081   3
   8  -3 -23 48.0751 29.4870   2
  -3  -8  23 111.988 51.2271   8
   8  -3 -23 82.4686 45.4735   3
  -3  -8  24 21.8731 47.5314   8
   8  -3 -24 33.1565 27.8718   2
   8  -3 -24 102.426 42.9138   3
   8  -3 -25 697.723 212.586   3
  -3  -8  25 530.768 213.658   8
   8  -3 -25 617.170 208.790   2
   8  -3 -26 27.4063 39.7975   3
   8  -3 -26 59.0824 30.6457   2
  -3  -8  26 31.4842 59.1934   8
   8  -3 -27 708.085 202.465   3
  -3  -8  27 603.529 205.135   8
   8  -3 -27 531.062 197.241   2
   8  -3 -28 97.5359 45.7493   3
   8  -3 -28 63.0238 33.5501   2
   8  -3 -29 318.720 81.2045   2
   8  -3 -29 161.058 86.7856   3
  -8   3  30 13.7256 60.9331   5
   8  -3 -30 41.5363 41.7117   3
   8  -3 -30-26.8237 24.3477   2
  -8   3  31 42.4349 63.4497   5
   8  -3 -31 32.1121 41.4403   3
   8  -3 -31 6.90937 31.2092   2
  -8   3  32-14.5734 59.1730   5
   8  -3 -32 21.3437 25.7109   2
  -2  -8  17 426.332 156.909   8
  -2  -8  17 398.439 157.256   5
   8  -2 -17 575.566 159.329   3
   8  -2 -17 449.304 154.528   2
  -2  -8  18 71.5659 36.5065   8
  -2  -8  18-7.82335 27.0983   5
   8  -2 -18 75.9428 39.6566   3
   8  -2 -18 18.1728 19.2352   2
  -2  -8  19 406.808 141.643   8
  -2  -8  20 18.3580 38.7772   8
   8  -2 -20 19.5800 20.4775   2
  -2  -8  21 225.054 90.1949   8
   8  -2 -21 202.456 80.9934   2
   8  -2 -21 326.892 90.1115   3
   8  -2 -22-10.4698 19.0900   2
   8  -2 -22 39.3184 36.7881   3
   8  -2 -23 81.2219 32.7463   2
   8  -2 -23 97.6097 48.5886   3
  -2  -8  23 21.1352 50.3979   8
  -2  -8  24 110.269 87.1221   8
   8  -2 -24 196.013 76.7333   2
   8  -2 -24 344.984 84.8687   3
   8  -2 -25 86.8439 38.4920   2
   8  -2 -25 113.101 50.1331   3
   8  -2 -26 388.906 153.007   2
   8  -2 -26 593.358 158.265   3
   8  -2 -27 148.607 61.0710   3
   8  -2 -27 129.756 54.2446   2
   8  -2 -28 364.389 133.666   3
   8  -2 -28 376.240 128.723   2
  -8   2  29 13.0828 58.5963   5
   8  -2 -29 118.702 41.2318   3
   8  -2 -29 19.7359 29.6746   2
   8  -2 -30 30.6053 46.9133   3
   8  -2 -30 88.1469 36.2152   2
  -8   2  30 13.4875 68.5868   5
  -8   2  31 55.5943 62.2865   5
   8  -2 -31 42.0270 39.4420   3
   8  -2 -31-6.98352 32.0369   2
  -8   2  32-42.9195 67.6153   5
   8  -2 -32-54.0975 38.6656   3
   8  -2 -32 57.5055 28.4369   2
  -1  -8  17-8.14746 41.9602   6
   8  -1 -17 79.4912 44.3726   3
   8  -1 -17 85.1884 30.1849   2
  -1  -8  17 67.8458 38.4185   8
   8  -1 -18 136.758 66.0790   3
  -1  -8  18 177.357 65.0921   8
  -1  -8  18 201.151 71.6514   6
  -1  -8  19 129.085 56.4752   8
  -1  -8  19 112.108 58.0121   6
   8  -1 -20 119.340 48.7596   2
  -1  -8  20 167.144 57.9006   8
  -1  -8  21 19.5369 43.6947   8
   8  -1 -21 46.2536 26.0493   2
   8  -1 -21 90.3497 39.7441   3
   8  -1 -22 69.0606 34.5414   2
   8  -1 -22 116.458 46.5611   3
   8  -1 -23 32.1042 39.5140   3
   8  -1 -23 10.9819 19.8529   2
   8  -1 -24 124.871 46.7793   2
   8  -1 -24 107.833 54.9537   3
   8  -1 -25 398.785 150.372   2
   8  -1 -25 531.402 154.209   3
   8  -1 -26 53.1226 45.1171   3
   8  -1 -26 18.1705 27.6044   2
   8  -1 -27 420.429 162.425   3
   8  -1 -27 487.628 158.994   2
   8  -1 -28 47.1533 47.0604   3
   8  -1 -28 96.7737 38.0957   2
   8  -1 -29 68.0820 45.4636   3
   8  -1 -29 66.5023 36.7725   2
   8  -1 -30-10.0218 50.6602   3
  -8   1  30 26.5168 61.1759   5
   8  -1 -30-47.9734 36.7731   2
  -8   1  31 68.2667 63.1419   5
   8  -1 -31-10.3207 41.1388   3
   8  -1 -31 7.05611 26.9751   2
  -8   1  32-14.0535 58.1172   5
   8  -1 -32-21.2448 35.9224   3
   8   0 -18 6.76889 36.9216   3
   8   0 -20 50.5443 23.4942   2
   8   0 -20 21.6119 37.9686   3
   8   0 -21-10.4381 20.8161   2
   8   0 -21 7.43886 35.2835   3
   8   0 -22 22.9972 36.8152   3
   8   0 -22 21.5677 21.1580   2
   8   0 -23 11.1379 17.8331   2
   8   0 -23-47.5193 39.5479   3
   8   0 -24 166.836 67.0315   2
   8   0 -24 237.230 75.8413   3
   8   0 -25-5.94031 22.4931   2
   8   0 -25-33.8008 34.9834   3
   8   0 -26 566.942 160.837   3
   8   0 -26 404.706 156.396   2
   8   0 -27 18.9819 26.8496   2
   8   0 -27-9.00183 39.4974   3
   8   0 -28 297.077 114.431   3
   8   0 -28 319.677 109.459   2
   8   0 -29 9.56637 35.3284   3
   8   0 -29-13.4424 25.3784   2
   8   0 -30-19.7117 55.6164   3
  -8   0  30-52.1844 83.4422   5
   8   0 -30-110.764 45.5877   2
  -8   0  31-40.2879 60.0460   5
   8   0 -31 20.2898 37.4882   3
   8   0 -31 14.2478 29.1864   2
  -8   0  32 27.6213 63.7859   5
   8   0 -32-10.4329 35.1612   3
   8   1 -17 45.4703 36.5834   3
   8   1 -18 167.451 67.0414   3
   8   1 -20 149.552 63.3269   3
   8   1 -21 7.35017 36.3733   3
   8   1 -22 90.8448 48.8473   3
   8   1 -23 5.65027 21.9129   2
   8   1 -23 54.7233 36.6283   3
   8   1 -24 34.9943 28.8224   2
   8   1 -24 72.6375 38.9649   3
   8   1 -25 457.366 156.259   2
   8   1 -25 458.198 159.100   3
   8   1 -26-17.1940 42.2065   3
   8   1 -26 6.20781 24.8852   2
   8   1 -27 505.506 180.889   3
   8   1 -27 531.157 177.811   2
   8   1 -28-9.14201 40.1589   3
   8   1 -28 46.1596 25.4924   2
   8   1 -29 141.242 53.5585   3
   8   1 -29 88.2904 44.7581   2
  -8  -1  30-51.3711 77.9831   5
   8   1 -30 29.0900 43.9521   3
   8   1 -30 6.99122 29.5097   2
   8   1 -31-7.19026 32.0256   2
  -8  -1  31 13.2137 62.2768   5
   8   1 -31-19.9533 36.1209   3
   8   1 -32 10.2549 40.5345   3
  -8  -1  32 40.7477 64.6568   5
  -2   8  17 357.061 131.155   8
   8   2 -17 443.486 133.694   3
   8   2 -17 371.322 129.879   2
  -2   8  18 4.67746 29.6476   8
   8   2 -18 39.7496 35.4745   3
   8   2 -19 241.577 91.5478   2
  -2   8  19 290.110 93.0286   8
  -2   8  20 21.3143 32.4767   8
   8   2 -20 15.6981 20.0821   2
   8   2 -20-7.03906 35.7669   3
   8   2 -21 204.955 64.5749   2
   8   2 -21 101.691 71.5820   3
   8   2 -22 38.9275 25.1285   2
   8   2 -22-14.9572 37.9914   3
   8   2 -23 63.0860 35.5660   2
   8   2 -23 108.075 45.2806   3
   8   2 -24 331.138 121.283   2
   8   2 -24 398.335 125.480   3
   8   2 -25 54.8668 28.1131   2
   8   2 -25 24.6597 37.7099   3
   8   2 -26 627.460 204.925   3
   8   2 -26 578.102 202.300   2
   8   2 -27 244.736 57.6881   3
   8   2 -27 71.2214 47.7245   2
   8   2 -28 486.326 123.470   3
   8   2 -28 266.682 118.497   2
   8   2 -29 18.5509 47.8173   3
   8   2 -29 116.651 40.2461   2
  -8  -2  30 12.6485 64.1136   5
   8   2 -30 28.6328 39.8932   3
   8   2 -30 28.2262 31.6477   2
  -8  -2  31-26.0163 62.6490   5
   8   2 -31 29.4472 41.0970   3
   8   2 -31 21.7587 27.6177   2
  -8  -2  32 26.7412 63.8163   5
   8   2 -32 50.4248 40.2282   3
   8   3 -17 355.987 123.211   3
   8   3 -17 365.265 119.643   2
  -3   8  17 321.234 121.246   8
  -3   8  18 312.340 109.285   8
  -3   8  19 48.3118 34.7027   8
   8   3 -19 30.8034 21.4164   2
  -3   8  20 133.629 66.0061   8
   8   3 -20 158.428 62.9719   2
   8   3 -20 243.547 69.6456   3
  -3   8  21 10.9024 38.9014   8
   8   3 -21 16.4647 26.2840   2
   8   3 -21 14.3573 37.3339   3
   8   3 -22 62.1721 30.5311   2
   8   3 -22 81.2810 41.8803   3
   8   3 -23 58.2286 31.0116   2
   8   3 -23 83.8743 42.7345   3
   8   3 -24 102.257 38.8668   3
   8   3 -24 29.9881 27.7842   2
   8   3 -25 649.095 187.855   3
   8   3 -25 488.039 184.251   2
   8   3 -26 66.9298 39.2837   3
   8   3 -26 38.1700 29.3376   2
   8   3 -27 741.393 206.658   3
   8   3 -27 537.089 202.649   2
   8   3 -28 13.4775 28.3697   2
   8   3 -28 17.7598 34.3894   3
   8   3 -29 318.812 111.102   2
   8   3 -29 310.815 114.743   3
  -8  -3  30 24.9452 60.2642   5
   8   3 -30 7.12191 28.5061   2
   8   3 -30 9.40283 34.4578   3
  -8  -3  31 12.8177 51.2161   5
   8   3 -31-7.31469 30.3180   2
   8   3 -31 115.993 42.5267   3
  -4   8  16 62.2029 133.819   5
  -4   8  16 380.620 134.441   8
  -4   8  17-16.6556 35.6843   5
   8   4 -17 25.1439 32.1605   3
  -4   8  17 4.27882 27.8616   8
  -4   8  18 136.720 54.4894   8
   8   4 -19 10.4865 18.4285   2
   8   4 -20-13.7620 34.4525   3
   8   4 -20-5.38554 21.5509   2
   8   4 -21 16.6091 20.4590   2
   8   4 -21-7.09773 37.5048   3
   8   4 -22 74.7378 31.8502   2
   8   4 -22 36.5201 38.8965   3
   8   4 -23-17.7419 19.8210   2
   8   4 -23-7.53624 35.1597   3
   8   4 -24 353.035 118.911   2
   8   4 -24 326.445 122.694   3
   8   4 -25 50.1007 33.7253   2
   8   4 -25 24.0433 41.1553   3
   8   4 -26 355.243 171.972   3
   8   4 -26 592.795 170.475   2
   8   4 -27 8.51023 34.7516   3
   8   4 -27-13.2507 25.4627   2
   8   4 -28 508.225 161.038   3
   8   4 -28 435.860 158.675   2
   8   4 -29 45.0886 52.5468   3
   8   4 -29 125.961 48.4938   2
   8   4 -30 79.0437 35.8077   2
   8   4 -30 64.9052 43.4872   3
  -8  -4  30 24.6055 58.3350   5
   8   4 -31-7.37458 31.1193   2
  -8  -4  31-63.2120 59.1867   5
   8   4 -31-28.5851 36.4981   3
   8   5 -15 943.347 288.875   3
   8   5 -15 809.893 286.823   2
   8   5 -16 35.1519 20.0716   2
   8   5 -16 42.3334 35.0053   3
   8   5 -17 130.773 56.6222   3
   8   5 -19 39.6143 34.6454   3
   8   5 -19-5.36193 18.8469   2
   8   5 -20 68.0696 39.1997   3
   8   5 -20 38.4883 27.0255   2
   8   5 -21 14.0445 33.5642   3
   8   5 -21-16.9326 20.0870   2
   8   5 -22 110.144 40.4761   2
   8   5 -22 72.2573 47.4586   3
   8   5 -23-18.0413 24.7641   2
   8   5 -23-14.9036 33.9876   3
   8   5 -24 12.3594 25.3762   2
   8   5 -24 15.3720 35.3153   3
   8   5 -25 215.927 86.4076   2
   8   5 -25 293.176 92.5623   3
   8   5 -26 65.3085 33.0701   3
   8   5 -26-19.5791 25.3284   2
   8   5 -27 437.309 148.959   3
   8   5 -27 415.821 145.380   2
   8   5 -28-13.7749 27.9111   2
   8   5 -28 8.65668 34.4530   3
   8   5 -29 89.0318 46.4922   3
   8   5 -29 77.7517 39.9037   2
  -8  -5  30-48.6092 58.2747   5
   8   5 -30-9.15022 34.0591   3
   8   5 -30 21.7611 29.3306   2
  -8  -5  31 37.4367 58.3690   5
   8   5 -31 47.0000 37.9274   3
   8   6 -14 358.304 90.5481   3
   8   6 -14 200.126 84.8514   2
   8   6 -15 85.9229 39.5920   2
   8   6 -15 157.249 48.6547   3
   8   6 -16 31.0598 25.6360   2
   8   6 -16 125.578 37.6202   3
   8   6 -17 98.5421 47.4034   3
   8   6 -18 96.7180 37.9317   2
   8   6 -19 104.359 46.2074   2
   8   6 -19 150.303 53.5230   3
   8   6 -20 114.554 72.0119   3
   8   6 -20 241.757 69.3303   2
   8   6 -21 62.5582 41.8362   3
   8   6 -21 86.4100 34.2917   2
   8   6 -22 71.5223 48.2048   3
   8   6 -22 129.964 43.9007   2
   8   6 -23 145.504 53.4202   2
   8   6 -23 132.792 60.4108   3
   8   6 -24-12.5601 27.6427   2
   8   6 -24 91.2772 38.7505   3
   8   6 -25 12.8951 23.6456   2
   8   6 -25-54.8729 37.1446   3
   8   6 -26 169.622 65.9874   3
   8   6 -26 158.788 60.7002   2
   8   6 -27 49.8996 36.8085   3
   8   6 -27 33.9529 26.7615   2
   8   6 -28 179.734 68.3013   3
   8   6 -28 139.325 65.2895   2
   8   6 -29 8.79866 41.0701   3
   8   6 -29 107.132 38.4114   2
   8   6 -30 27.1248 36.2104   3
  -8  -6  30 24.0201 49.8042   5
   8   6 -30 14.6376 28.7994   2
  -8  -6  31-49.3340 57.3812   5
   8   6 -31 9.28417 32.5007   3
   8   7 -13 15.5788 17.1956   2
   8   7 -14 162.816 48.7398   3
   8   7 -14 83.2201 40.1096   2
   8   7 -15-5.23888 14.8664   2
   8   7 -15 5.75593 32.2127   3
   8   7 -16 37.0861 24.4963   2
   8   7 -16 88.6953 37.5340   3
   8   7 -18 49.7338 27.0075   2
   8   7 -19 957.969 221.313   3
   8   7 -19 473.374 218.335   2
   8   7 -20 74.8409 38.5280   2
   8   7 -20 120.167 45.6957   3
   8   7 -21 700.666 169.926   3
   8   7 -21 394.575 165.716   2
   8   7 -22 24.1159 27.2416   2
   8   7 -22 120.463 39.7340   3
   8   7 -23 131.564 63.9675   3
   8   7 -23 142.059 55.9802   2
   8   7 -24 12.6581 22.9006   2
   8   7 -24-7.53409 32.2603   3
   8   7 -25-7.76517 36.3990   3
   8   7 -25-6.48723 23.7667   2
   8   7 -26 39.9886 32.3225   3
   8   7 -26 20.1383 27.8290   2
   8   7 -27-24.7022 36.8077   3
   8   7 -27-6.87793 36.1323   2
   8   7 -28-16.9389 36.9361   3
   8   7 -28-7.04784 28.7206   2
   8   7 -29-8.70759 32.4349   3
   8   7 -29-28.8725 28.5766   2
  -8  -7  29 34.7197 54.6920   5
  -8  -7  30-59.4448 58.0671   5
   8   7 -30-35.7838 31.6530   3
   8   7 -30 22.1669 25.5851   2
   8   8 -13 21.6559 28.8031   3
   8   8 -13-5.43804 15.4580   2
   8   8 -14-5.54501 29.9106   3
   8   8 -14 5.42599 16.4139   2
   8   8 -15-28.4551 30.8102   3
   8   8 -15 5.44660 18.1019   2
   8   8 -16 35.1721 35.4917   3
   8   8 -18 427.213 145.915   2
   8   8 -19 17.3855 21.9299   2
   8   8 -19-6.41734 29.1664   3
   8   8 -20 873.963 230.891   3
   8   8 -20 567.098 228.140   2
   8   8 -21 24.1177 22.1544   2
   8   8 -21-20.4372 31.5811   3
   8   8 -22 529.858 201.281   2
   8   8 -22 702.839 204.317   3
   8   8 -23 37.8065 24.3168   2
   8   8 -23 7.25014 31.4922   3
   8   8 -24 19.3396 25.5037   2
   8   8 -24 67.2753 34.5902   3
   8   8 -25 23.1061 28.9948   3
   8   8 -25-6.59788 22.8285   2
   8   8 -26 33.7620 29.0960   2
   8   8 -26 15.8641 31.8952   3
   8   8 -27-6.90934 26.4782   2
   8   8 -27 8.16266 32.4390   3
   8   8 -28-7.13792 26.5674   2
   8   8 -28 8.39530 30.6156   3
  -8  -8  29-22.9473 52.9245   5
   8   8 -29-29.2013 25.7713   2
   8   8 -29 8.62666 33.4958   3
  -8  -8  30 47.1256 53.9884   5
   8   8 -30 14.9297 28.0578   2
   8   8 -30 8.85568 32.7665   3
   8   9 -13 21.3746 28.8055   3
   8   9 -13 22.8772 17.5572   2
   8   9 -14-10.9603 30.4807   3
   8   9 -14-11.3683 15.7041   2
   8   9 -15 28.1618 29.5435   3
   8   9 -15-22.7296 19.2229   2
   8   9 -16 162.617 63.6733   3
   8   9 -17 63.3670 29.7287   2
   8   9 -18-11.6596 21.6777   2
   8   9 -18-37.0307 35.0280   3
   8   9 -19 215.055 136.325   2
   8   9 -19 866.083 142.645   3
   8   9 -20 24.2946 24.2869   2
   8   9 -20 78.6820 37.0190   3
   8   9 -21 967.641 192.850   3
   8   9 -21 340.279 188.156   2
   8   9 -22 6.30788 21.5557   2
   8   9 -22-20.9479 32.0662   3
   8   9 -23 64.3909 58.7000   2
   8   9 -23 367.199 68.3541   3
   8   9 -24 51.9654 33.1591   3
   8   9 -24 26.3052 25.0780   2
   8   9 -25-22.9463 34.6562   3
   8   9 -25 6.71802 25.0370   2
   8   9 -26 55.1219 34.0941   3
   8   9 -26-13.7302 26.5224   2
   8   9 -27 56.7333 37.6560   3
   8   9 -27 7.01466 27.9321   2
  -8  -9  28 11.0883 46.4331   5
   8   9 -28-8.33174 31.1724   3
   8   9 -28 21.5038 27.3921   2
   8   9 -29-43.9315 32.0362   2
  -8  -9  29 45.5619 51.7547   5
   8   9 -29-34.2291 32.6250   3
  -8  -9  30 11.6891 47.1405   5
   8   9 -30 17.5714 32.4530   3
   7   9 -11 338.983 117.035   3
   7   9 -12 9.56174 25.2895   3
   7   9 -12-5.13165 12.9544   2
   9  -7 -13 379.601 64.4728   3
   7   9 -13 301.030 57.7154   3
   9  -7 -14 74.7728 36.4523   3
   7   9 -14 15.3459 27.5826   3
   9  -7 -14 4.13181 12.0285   2
   7   9 -14 25.6167 17.2536   2
   7   9 -15 82.6786 57.4530   2
   9  -7 -15 264.690 67.7617   3
   7   9 -15 307.311 64.0094   3
   9  -7 -15 146.705 56.8795   2
   7   9 -16-5.28477 21.8677   2
   9  -7 -16 7.17144 41.9322   3
   7   9 -16 21.9762 33.4646   3
   9  -7 -16 59.7674 19.9831   2
   9  -7 -17 177.314 64.6509   3
   7   9 -17 125.388 56.7709   3
   9  -7 -17 148.320 51.7896   2
   9  -7 -19 120.421 42.4724   2
   7   9 -19 100.667 45.1774   2
   9  -7 -20 772.114 188.577   3
   7   9 -20 926.764 183.458   3
   7   9 -20 291.804 179.278   2
   9  -7 -21 215.655 65.7913   2
   9  -7 -21 437.167 80.1287   3
   7   9 -21 41.0105 65.8786   2
   7   9 -21 263.236 71.2165   3
   7   9 -22 422.689 89.9497   3
   9  -7 -22 292.751 81.6728   2
   9  -7 -22 278.458 93.5600   3
   7   9 -23 49.2590 32.9263   2
   7   9 -23 77.6573 37.7564   3
   9  -7 -23 88.4205 31.3318   2
   9  -7 -23 63.0399 46.2844   3
   7   9 -24 36.4991 31.1860   3
   7   9 -24 25.4999 25.7784   2
   7   9 -25 82.9847 33.9412   3
   7   9 -25 13.0723 26.2924   2
  -7  -9  26-10.3661 50.6508   5
   7   9 -26-23.3712 33.1401   3
   7   9 -26 33.5251 28.5475   2
  -7  -9  27 42.7529 45.1628   5
   7   9 -27 40.1669 29.6301   3
   7   9 -27 20.6146 29.2367   2
  -7  -9  28-11.0172 49.8945   5
   7   9 -28 16.5586 31.1391   3
   7   9 -28-14.0890 27.5189   2
  -7  -9  29-22.6800 45.2031   5
   7   9 -29 51.1370 30.3025   3
   7   9 -29-7.21529 29.8741   2
  -7  -9  30-11.6583 48.7823   5
   7   9 -30-7.38495 26.7894   2
  -7  -9  31-11.9751 41.9977   5
   6   9 -12 449.344 62.1603   3
   6   9 -12 27.2029 55.3578   2
   6   9 -13 22.8295 32.3868   2
   9  -6 -13 94.9221 31.8017   2
   6   9 -14 140.200 114.778   2
   6   9 -14 649.046 118.909   3
   9  -6 -14 696.641 124.092   3
   9  -6 -14 316.895 115.209   2
   6   9 -15 66.6188 43.7183   2
   9  -6 -15 114.275 42.9046   2
   6   9 -15 155.751 49.2932   3
   9  -6 -16 307.640 75.4840   3
   9  -6 -16 276.054 64.3658   2
   6   9 -16 320.206 69.0838   3
   9  -6 -17 4.40934 15.4787   2
   9  -6 -17 22.0988 40.2050   3
   6   9 -17-24.9269 20.8538   2
   6   9 -17-21.8761 29.0669   3
   6   9 -18 279.772 62.0002   3
   6   9 -18 87.0647 56.7298   2
   9  -6 -19 46.8397 23.2294   2
   9  -6 -20 365.995 83.3279   2
   9  -6 -20 436.208 95.2859   3
   6   9 -21 213.223 44.8118   3
   6   9 -21 16.9057 38.2377   2
   9  -6 -21 84.2805 36.3298   2
   9  -6 -21 216.382 57.2504   3
   6   9 -22 201.626 72.6445   3
   9  -6 -22 199.126 70.4908   2
   6   9 -22 121.901 71.1593   2
   9  -6 -22 404.278 82.6248   3
   6   9 -23-6.98057 30.1164   3
   9  -6 -23 21.0454 18.6452   2
   6   9 -23-11.9595 27.8427   2
   9  -6 -23 8.89045 41.3580   3
  -6  -9  24 48.1747 66.9900   5
   6   9 -24 152.074 59.1776   3
   9  -6 -24 216.951 55.6026   2
   9  -6 -24 275.702 69.9236   3
   6   9 -24 55.4208 55.6487   2
   9  -6 -25 18.9935 41.4335   3
  -6  -9  25 19.9664 46.7809   5
   6   9 -25-6.33912 26.1808   2
   6   9 -25 52.5316 29.9629   3
   9  -6 -25 61.4973 24.8977   2
  -6  -9  26-10.3328 51.3196   5
   6   9 -26 6.52182 36.5534   2
   9  -6 -26 137.370 52.9452   3
   6   9 -26 132.020 42.8010   3
   9  -6 -26 167.124 40.1436   2
   9  -6 -27 212.783 77.2261   3
  -6  -9  27 96.0906 78.2272   5
   6   9 -27 80.2523 62.9227   3
   6   9 -27 67.0632 62.7029   2
   9  -6 -28 140.709 38.8988   2
  -6  -9  28 22.0455 51.7679   5
   9  -6 -28 83.6789 53.9130   3
   6   9 -28 27.5692 37.8280   2
  -9   6  29 71.1849 70.7122   5
   9  -6 -29-6.35879 23.7226   2
  -6  -9  29 45.4582 41.9032   5
   9  -6 -29 53.9512 45.1079   3
   6   9 -29-21.2314 29.3761   2
  -9   6  30-14.6784 75.3698   5
   9  -6 -30 98.1782 29.4187   2
  -6  -9  30-35.1138 50.2062   5
   9  -6 -30 55.6310 42.5450   3
   6   9 -30-7.26233 27.7945   2
  -9   6  31-75.6339 68.3672   5
   9  -6 -31-20.1987 24.4775   2
   9  -6 -31-34.3938 41.0504   3
   6   9 -31-7.44504 32.0832   2
   9  -5 -13 166.827 47.8052   2
   5   9 -13 247.689 52.9320   3
   9  -5 -14 992.916 182.760   3
   5   9 -14 914.486 179.021   3
   9  -5 -15 509.676 91.2773   3
   5   9 -15 279.458 83.8534   3
   9  -5 -15 329.748 81.8391   2
   5   9 -16 122.881 112.681   2
   5   9 -16 553.010 117.011   3
   9  -5 -16 535.622 121.314   3
   9  -5 -16 419.054 113.776   2
   9  -5 -17 270.414 67.3176   2
   9  -5 -17 352.236 81.6559   3
   5   9 -17 272.033 70.2336   3
   5   9 -18 33.6008 26.2825   3
   5   9 -18 9.74240 22.1976   2
   5   9 -19 281.776 76.6904   3
   9  -5 -19 170.708 73.1889   2
   9  -5 -20 4.87597 16.2514   2
   9  -5 -20-8.00634 39.5394   3
   5   9 -21 224.731 67.1454   3
   9  -5 -21 281.088 65.8283   2
   9  -5 -21 445.995 77.7884   3
  -5  -9  22-35.6521 40.4414   5
   5   9 -22-6.69976 27.2137   3
   5   9 -22 5.60173 21.6252   2
   9  -5 -22-5.16905 17.8270   2
   9  -5 -22-34.0092 39.6103   3
  -5  -9  23 9.28501 56.9110   5
   5   9 -23 83.7461 42.0369   3
   9  -5 -23 165.144 40.8761   2
   5   9 -23 23.1848 43.6248   2
  -5  -9  23-36.8859 68.7689   8
  -5  -9  24 28.9685 43.8247   5
   5   9 -24 72.5796 32.2288   3
   5   9 -24 5.99256 31.0426   2
  -5  -9  24 30.5077 55.2770   8
   9  -5 -24 109.790 30.0970   2
   9  -5 -24 63.4704 46.8603   3
   9  -5 -25 243.370 63.7826   3
  -5  -9  25 20.0492 53.3535   5
   5   9 -25-30.9463 43.6401   2
  -5  -9  25 55.1603 64.2530   8
   9  -5 -25 220.753 42.8280   2
   9  -5 -26 460.741 120.449   2
   9  -5 -26 444.332 126.535   3
  -5  -9  26 145.533 124.220   5
  -5  -9  26 89.4642 130.672   8
   9  -5 -27 194.136 50.5560   2
   9  -5 -27 109.681 59.6238   3
  -5  -9  27 10.7589 57.8366   5
  -5  -9  27 8.38702 71.0063   8
   9  -5 -28 156.224 65.4361   2
   9  -5 -28 318.824 77.5851   3
  -5  -9  28 51.8346 83.4626   8
  -9   5  29-27.9871 71.2989   5
   9  -5 -29 38.6096 29.3841   2
   9  -5 -29 63.6065 47.7402   3
  -5  -9  29 124.472 67.4357   8
  -9   5  30-14.4166 63.0354   5
   9  -5 -30 6.62208 27.6753   2
   9  -5 -30-43.6918 42.2543   3
  -5  -9  30 36.5558 67.0024   8
  -9   5  31-14.8501 76.5453   5
   9  -5 -31 122.617 40.0200   2
   9  -5 -31 11.2499 49.4513   3
  -5  -9  31 65.6982 66.4249   8
   9  -4 -14 123.915 29.2093   2
   4   9 -14 93.3930 31.1773   3
   9  -4 -15 1805.66 283.030   3
   4   9 -15 1204.96 277.793   3
   9  -4 -15 1310.65 277.434   2
   9  -4 -16 4.42525 13.2026   2
   9  -4 -16 7.11861 38.9347   3
   4   9 -16 30.0460 23.5756   3
   4   9 -16 29.8576 19.3804   2
   9  -4 -17 568.568 126.958   3
   9  -4 -17 557.409 120.019   2
   4   9 -17 439.485 120.373   3
   4   9 -17 129.018 117.680   2
  -4  -9  17 345.420 123.017   8
   4   9 -18 22.3502 23.6372   3
   4   9 -18 51.0552 24.0365   2
  -4  -9  18-5.90641 39.3698   8
  -4  -9  19 133.009 50.8084   5
   4   9 -19 94.1002 41.5258   3
  -4  -9  19 55.4234 52.2179   8
   9  -4 -19 67.2907 34.3378   2
  -4  -9  20 24.6499 37.1200   5
   4   9 -20 37.0625 28.0909   3
   9  -4 -20 39.5331 22.5652   2
   9  -4 -20 95.1800 40.3732   3
   9  -4 -21 20.3444 19.6301   2
   9  -4 -21 8.17181 38.9123   3
  -4  -9  22 27.0227 41.5540   5
   9  -4 -22 89.0430 27.1345   2
   9  -4 -22-16.8126 42.8678   3
  -4  -9  22 20.8444 52.2627   8
  -4  -9  23 9.40134 53.5114   5
   9  -4 -23 164.708 60.4970   3
   9  -4 -23 167.303 44.7127   2
  -4  -9  23-28.8746 60.1818   8
  -4  -9  24 39.1659 54.7022   5
   9  -4 -24 187.787 60.3380   3
  -4  -9  24 74.8786 64.0618   8
   9  -4 -24 111.201 44.9496   2
  -4  -9  25 147.414 174.764   8
   9  -4 -25 538.766 168.431   2
   9  -4 -25 728.744 174.726   3
   9  -4 -26 19.0311 45.1252   3
   9  -4 -26 101.342 34.5732   2
  -4  -9  26 8.02920 64.4170   8
   9  -4 -27 725.903 215.999   3
   9  -4 -27 681.542 211.336   2
  -4  -9  27 340.292 217.795   8
   9  -4 -28 101.121 54.5370   3
   9  -4 -28 63.2396 44.1056   2
  -4  -9  28 128.506 67.0344   8
   9  -4 -29 364.663 107.006   3
   9  -4 -29 279.946 98.0333   2
  -4  -9  29 167.824 111.212   8
  -9   4  30 28.3380 69.9923   5
   9  -4 -30-75.0945 41.5483   3
   9  -4 -30 13.3956 27.1635   2
  -9   4  31-14.5849 65.1481   5
   9  -4 -31 11.0415 44.9353   3
   9  -4 -31 34.4398 29.8045   2
   9  -3 -15-4.40776 12.7598   2
   3   9 -15 4.75524 18.5742   3
   9  -3 -15-34.7418 38.0950   3
  -3  -9  15-19.6162 34.8231   8
  -3  -9  16 876.170 292.554   5
   9  -3 -16 1190.11 294.582   3
   3   9 -16 435.569 290.257   3
   9  -3 -16 1288.47 291.798   2
  -3  -9  16 867.698 292.671   8
  -3  -9  17 28.6255 29.6189   5
   3   9 -17 10.7570 20.3268   3
   9  -3 -17 28.9782 40.8403   3
  -3  -9  17 48.8935 36.5496   8
  -3  -9  18 166.610 45.0774   5
   3   9 -18 56.9240 37.9256   3
  -3  -9  18 91.3403 50.5149   8
  -3  -9  19-7.99291 28.8867   5
   9  -3 -19-9.75398 20.2765   2
  -3  -9  19 17.9658 37.8588   8
  -3  -9  20 16.8228 28.4790   5
   9  -3 -20-5.01258 19.2194   2
   9  -3 -20 15.7064 38.4288   3
  -3  -9  20 43.9031 42.3629   8
   9  -3 -21 40.4187 42.6764   3
   9  -3 -21 10.3148 19.3752   2
   9  -3 -22 33.3029 40.9412   3
   9  -3 -22 58.4040 26.8353   2
  -3  -9  22 20.5405 48.5058   8
  -3  -9  23 21.4079 46.9961   8
   9  -3 -23 8.55846 40.1372   3
   9  -3 -23 5.46875 18.8659   2
  -3  -9  24 237.614 124.781   8
   9  -3 -24 326.755 116.978   2
   9  -3 -24 476.395 124.952   3
  -3  -9  25 45.5431 58.2532   8
   9  -3 -25-5.85851 21.1421   2
   9  -3 -25 36.3717 38.4129   3
   9  -3 -26 580.982 179.015   3
  -3  -9  26 322.747 182.593   8
   9  -3 -26 543.195 173.961   2
  -3  -9  27-24.4562 52.4109   8
   9  -3 -27 9.65750 39.0918   3
   9  -3 -27-6.21624 25.2056   2
   9  -3 -28 586.942 204.904   3
   9  -3 -28 595.214 200.948   2
   9  -3 -29 20.4797 40.7814   3
   9  -3 -29 32.9333 28.5598   2
   9  -3 -30 126.502 57.9375   3
   9  -3 -30 115.199 48.7846   2
  -9   3  31-28.6502 64.0388   5
   9  -3 -31-32.5184 40.8393   3
   9  -3 -31 27.8606 25.0210   2
  -2  -9  16 78.9294 45.7432   8
   9  -2 -16 110.736 38.5655   2
  -2  -9  16 105.385 42.4894   5
   9  -2 -16 91.5129 51.0320   3
  -2  -9  17 109.775 47.3047   8
  -2  -9  17 67.2317 39.7085   5
   9  -2 -17 100.683 49.6269   3
  -2  -9  18 55.2378 39.4140   8
  -2  -9  19 17.4681 38.4269   8
   9  -2 -19 14.8599 17.9124   2
   9  -2 -19 52.9625 40.4333   3
  -2  -9  20 55.1312 43.1042   8
   9  -2 -20 23.3168 42.1267   3
   9  -2 -20 25.4482 22.1061   2
   9  -2 -21 15.9863 37.8214   3
   9  -2 -21 10.4667 16.5059   2
   9  -2 -22 49.3578 41.7703   3
   9  -2 -22 10.7727 18.9803   2
  -2  -9  23 35.1441 47.0031   8
   9  -2 -23 33.7973 40.0581   3
   9  -2 -23 27.7276 23.6983   2
  -2  -9  24 58.6284 51.1582   8
   9  -2 -24-5.71122 22.1879   2
   9  -2 -24 26.1085 40.8776   3
   9  -2 -25 356.193 129.006   2
   9  -2 -25 412.311 133.607   3
   9  -2 -26 48.9063 28.1329   2
   9  -2 -26-18.4616 39.9772   3
   9  -2 -27 427.674 164.001   3
   9  -2 -27 484.632 159.560   2
   9  -2 -28-19.5730 38.3525   3
   9  -2 -28-6.47745 26.4081   2
   9  -2 -29 100.685 80.3632   3
   9  -2 -29 239.922 74.4339   2
   9  -2 -30-31.0772 38.0147   3
   9  -2 -30-6.85148 26.8404   2
  -9   2  31-42.2435 63.3801   5
   9  -2 -31 74.5455 39.7248   3
   9  -2 -31-7.04189 25.2802   2
  -1  -9  16 196.234 73.5803   8
   9  -1 -16 235.006 68.8938   2
   9  -1 -16 83.8199 75.5926   3
  -1  -9  17 57.4712 43.8084   8
   9  -1 -17 128.336 49.5159   3
  -1  -9  18 94.2319 47.6697   8
  -1  -9  19 87.9537 39.6046   8
   9  -1 -19 7.48890 39.0075   3
   9  -1 -19 20.1487 18.1982   2
  -1  -9  20 377.104 93.9628   8
   9  -1 -20 153.741 91.4971   3
   9  -1 -20 232.733 84.7249   2
  -1  -9  21 71.4944 40.9426   8
   9  -1 -21 55.3015 40.3694   3
   9  -1 -21 15.9488 19.9454   2
   9  -1 -22 32.4953 45.7734   3
   9  -1 -22 76.5438 30.1151   2
   9  -1 -23 5.62584 20.6213   2
   9  -1 -23 8.33822 37.8111   3
   9  -1 -24 150.561 55.2715   2
   9  -1 -24 145.905 65.7068   3
   9  -1 -25 30.0802 25.1244   2
   9  -1 -25-26.5011 41.8217   3
   9  -1 -26 328.173 128.719   2
   9  -1 -26 518.282 135.386   3
   9  -1 -27 18.7177 36.6735   3
   9  -1 -27 6.37191 22.4788   2
   9  -1 -28 259.965 94.2339   3
   9  -1 -28 242.513 88.5060   2
   9  -1 -29 39.6137 48.0981   3
   9  -1 -29-6.74041 31.1941   2
   9  -1 -30 20.3597 39.3967   3
   9  -1 -30-13.8591 27.3274   2
  -9   1  31 27.6783 61.4759   5
   9  -1 -31-10.4605 43.8398   3
   9  -1 -31 14.2365 26.4578   2
   0  -9  16-8.80773 37.7766   6
   9   0 -16 9.58981 15.7070   2
   9   0 -16 76.1319 39.4490   3
   0  -9  17 5.32583 31.1000   8
   0  -9  17-27.0808 43.3844   6
   9   0 -17 42.3612 39.7842   3
   0  -9  18 9.25058 41.0337   6
   9   0 -18-5.00386 17.0861   2
   9   0 -19 348.157 96.7258   3
   9   0 -19 225.555 88.5730   2
   9   0 -20 22.7976 39.5600   3
   9   0 -20-26.3013 21.7666   2
   9   0 -21 179.519 64.5284   3
   9   0 -21 140.444 55.6781   2
   9   0 -22 48.1288 41.5352   3
   9   0 -22 5.55281 22.7740   2
   9   0 -23 8.23064 37.7717   3
   9   0 -23-5.70990 20.6134   2
   9   0 -24-11.7471 22.4089   2
   9   0 -24 8.46505 38.9087   3
   9   0 -25 115.866 56.5959   2
   9   0 -25 191.637 64.0807   3
   9   0 -26 18.8183 24.9312   2
   9   0 -26-8.96151 37.8815   3
   9   0 -27 258.053 124.174   3
   9   0 -27 406.469 122.444   2
   9   0 -28 28.4299 38.7184   3
   9   0 -28 19.8988 26.2660   2
   9   0 -29 263.044 66.4738   3
   9   0 -29 47.7221 46.9172   2
   9   0 -30 10.0134 40.4735   3
   9   0 -30 28.0201 29.9605   2
   9   0 -31-10.2844 43.3063   3
   9   0 -31 7.19270 29.0819   2
   9   1 -16 232.858 87.9934   3
   9   1 -19 58.5826 42.1264   3
   9   1 -20 247.807 76.4281   3
   9   1 -20 171.336 69.1543   2
   9   1 -21 38.5468 37.9201   3
   9   1 -21 27.4729 23.7541   2
   9   1 -22 95.0362 43.3603   3
   9   1 -22 33.8529 25.7154   2
   9   1 -23 24.4216 38.4687   3
   9   1 -23 5.79864 20.9678   2
   9   1 -24 23.8352 23.1092   2
   9   1 -24 50.1025 40.0995   3
   9   1 -25-6.18400 27.7122   2
   9   1 -25-8.58623 41.2353   3
   9   1 -26 521.247 181.343   2
   9   1 -26 565.076 186.314   3
   9   1 -27 32.6699 26.3140   2
   9   1 -27 36.3162 40.9576   3
   9   1 -28 242.619 93.2533   3
   9   1 -28 241.673 86.8987   2
   9   1 -29-19.1781 45.4820   3
   9   1 -29 48.2697 32.7061   2
   9   1 -30-216.641 55.6172   3
   9   1 -30-35.4064 43.0863   2
   9   1 -31-20.2184 41.8175   3
   9   1 -31-36.3344 32.5197   2
   9   2 -16 54.1498 43.9895   3
   9   2 -18 52.1102 26.2762   2
   9   2 -19-5.32823 18.0595   2
   9   2 -19-7.23451 37.9357   3
   9   2 -20 14.8334 37.8916   3
   9   2 -20 27.2775 22.0176   2
   9   2 -21 7.61228 39.0887   3
   9   2 -21 22.3713 26.1705   2
   9   2 -22 46.9152 39.4335   3
   9   2 -22 5.73889 22.8759   2
   9   2 -23 32.1392 38.4443   3
   9   2 -23 29.4555 24.3143   2
   9   2 -24-6.05024 25.2838   2
   9   2 -24 8.23898 37.5603   3
   9   2 -25 472.222 151.735   2
   9   2 -25 389.563 154.600   3
   9   2 -26 38.6518 29.2773   2
   9   2 -26 17.4104 40.5268   3
   9   2 -27 489.634 169.524   2
   9   2 -27 510.030 173.620   3
   9   2 -28 9.19336 38.7908   3
   9   2 -28 6.79305 24.8966   2
   9   2 -29 217.194 87.0879   3
   9   2 -29 223.136 81.5587   2
   9   2 -30-58.1634 48.4907   3
   9   2 -31-49.7383 42.8396   3
   9   3 -15 20.1207 17.4348   2
   9   3 -16 929.135 312.948   3
   9   3 -18 90.5980 38.7626   2
   9   3 -19-21.7682 18.8526   2
   9   3 -19-21.4351 37.7322   3
   9   3 -20 5.56499 20.1811   2
   9   3 -20 7.32577 35.1858   3
   9   3 -21-7.51639 35.0453   3
   9   3 -21-17.0955 25.1944   2
   9   3 -22 61.7530 41.5315   3
   9   3 -22 40.8869 27.2061   2
   9   3 -23-63.4381 40.4515   3
   9   3 -23 5.98955 21.9296   2
   9   3 -24 382.095 130.830   3
   9   3 -24 356.434 126.324   2
   9   3 -25-6.30518 23.4531   2
   9   3 -25-83.5363 42.8450   3
   9   3 -26 685.879 239.579   2
   9   3 -26 755.407 242.311   3
   9   3 -27-20.1078 28.7396   2
   9   3 -27-26.4635 37.8677   3
   9   3 -28 797.256 189.313   3
   9   3 -28 426.314 184.155   2
   9   3 -29 18.6053 38.5313   3
   9   3 -29-49.3673 32.5374   2
   9   3 -30 162.279 65.2061   3
   9   3 -30 137.407 57.8579   2
   9   3 -31 9.79264 38.0150   3
   9   4 -14 102.855 39.2372   2
   9   4 -15 1522.86 508.031   2
   9   4 -16 6.59579 31.3212   3
   9   4 -17 407.856 139.460   2
   9   4 -18 10.9183 18.5883   2
   9   4 -18 13.7585 35.3220   3
   9   4 -19 55.6639 28.6002   2
   9   4 -19 49.3920 42.3784   3
   9   4 -20 73.8923 33.3284   2
   9   4 -20 79.5655 47.7473   3
   9   4 -21 34.8770 22.2852   2
   9   4 -21-7.42225 39.0102   3
   9   4 -22 124.926 47.3024   2
   9   4 -22 106.717 56.9643   3
   9   4 -23 125.274 75.6920   3
   9   4 -23 219.424 68.9343   2
   9   4 -24 240.751 72.6441   3
   9   4 -24 137.382 65.9677   2
   9   4 -25 601.791 188.111   2
   9   4 -25 469.932 190.613   3
   9   4 -26-13.1274 24.7400   2
   9   4 -26 50.8197 37.0770   3
   9   4 -27 773.881 267.997   2
   9   4 -27 835.018 270.218   3
   9   4 -28 89.3168 62.3678   3
   9   4 -28 139.236 55.9523   2
   9   4 -29 458.414 102.602   3
   9   4 -29 178.377 96.3371   2
   9   4 -30 56.4295 37.7099   3
   9   4 -30 7.30799 31.2542   2
   9   5 -13 117.105 43.5421   2
   9   5 -14 691.687 232.320   2
   9   5 -15 338.606 110.316   3
   9   5 -15 294.068 105.551   2
   9   5 -17 234.951 82.2801   2
   9   5 -18 28.0127 21.8803   2
   9   5 -18 13.5825 35.7096   3
   9   5 -19 176.760 65.2207   2
   9   5 -19 174.202 69.4223   3
   9   5 -20 40.6915 25.2398   2
   9   5 -20 35.7217 37.4055   3
   9   5 -21 290.826 104.080   2
   9   5 -21 315.311 108.710   3
   9   5 -22-18.2039 21.2248   2
   9   5 -22 7.52826 37.5399   3
   9   5 -23 124.136 55.2379   2
   9   5 -23 185.121 63.3059   3
   9   5 -24 76.2352 43.0984   2
   9   5 -24 150.565 52.3205   3
   9   5 -25 253.643 97.9508   2
   9   5 -25 341.879 104.202   3
   9   5 -26 519.544 172.657   2
   9   5 -26 484.949 175.666   3
   9   5 -27 171.750 56.5096   3
   9   5 -27 88.6846 46.6774   2
   9   5 -28 181.606 70.6150   2
   9   5 -28 185.122 74.8662   3
   9   5 -29 92.9672 53.5159   2
   9   5 -29 189.913 60.1159   3
   9   5 -30-29.5479 29.2053   2
   9   5 -30 37.1067 40.0464   3
   9   6 -13 77.5453 30.1525   2
   9   6 -14 265.080 91.7132   2
   9   6 -15 119.615 53.2864   3
   9   6 -17-5.62879 19.0620   2
   9   6 -18 211.035 83.2198   2
   9   6 -18 288.873 88.5886   3
   9   6 -19 152.121 53.8022   2
   9   6 -19 123.882 60.2599   3
   9   6 -20 428.796 156.100   2
   9   6 -20 508.202 159.084   3
   9   6 -21 163.871 72.8306   2
   9   6 -21 282.548 78.7928   3
   9   6 -22 353.155 120.606   2
   9   6 -22 342.329 123.549   3
   9   6 -23-25.3132 24.0068   2
   9   6 -23 22.8719 37.1378   3
   9   6 -24 129.371 68.3261   2
   9   6 -24 281.894 73.9117   3
   9   6 -25 6.61366 27.5470   2
   9   6 -25 96.5140 40.2794   3
   9   6 -26 94.7023 60.3618   2
   9   6 -26 305.641 71.4613   3
   9   6 -27 339.319 120.977   3
   9   6 -27 325.146 118.431   2
   9   6 -28 269.903 56.1120   3
   9   6 -28 35.3903 43.9487   2
   9   6 -29 26.7860 37.5067   3
   9   6 -29 14.4738 27.0905   2
   9   6 -30 7.40011 22.9049   2
   9   6 -30 164.785 42.4377   3
   9   7 -14-17.2495 16.7356   2
   9   7 -15 198.521 77.2953   3
   9   7 -17 142.322 64.5242   3
   9   7 -17 174.400 59.4253   2
   9   7 -18 270.351 89.6760   2
   9   7 -18 232.277 94.1633   3
   9   7 -19 142.956 57.9958   2
   9   7 -19 190.462 65.1757   3
   9   7 -20 851.605 224.830   3
   9   7 -20 556.192 221.755   2
   9   7 -21 298.439 122.942   2
   9   7 -21 487.232 128.651   3
   9   7 -22 557.488 176.361   2
   9   7 -22 456.217 178.958   3
   9   7 -23 71.0656 37.4668   2
   9   7 -23 98.0044 45.2118   3
   9   7 -24 32.9609 23.5514   2
   9   7 -24 38.7273 36.9211   3
   9   7 -25 47.1148 38.0777   2
   9   7 -25 206.846 51.9260   3
   9   7 -26-27.4949 34.3297   2
   9   7 -26-40.8532 41.7830   3
   9   7 -27 142.552 49.7927   3
   9   7 -27 63.2110 42.7633   2
   9   7 -28 34.4213 37.3794   3
   9   7 -28 28.7014 28.5999   2
   9   7 -29 44.1160 35.6739   3
   9   7 -29-21.9852 27.5496   2
   9   7 -30-9.04313 36.6834   3
   9   8 -14-6.00194 31.4953   3
   9   8 -16 59.8854 27.2572   2
   9   8 -17 261.990 67.6903   3
   9   8 -17 114.376 58.7579   2
   9   8 -18 32.7930 33.7206   3
   9   8 -18-6.07060 19.0349   2
   9   8 -19 503.337 202.999   2
   9   8 -19 773.535 205.948   3
   9   8 -20 93.3185 47.7879   2
   9   8 -20 165.702 53.7277   3
   9   8 -21 529.492 217.208   2
   9   8 -21 943.125 222.775   3
   9   8 -22 51.8925 27.2486   2
   9   8 -22-7.26648 35.2893   3
   9   8 -23 290.558 104.446   2
   9   8 -23 313.571 107.599   3
   9   8 -24-13.4585 25.6625   2
   9   8 -24-23.0025 34.4629   3
   9   8 -25-20.5813 27.2110   2
   9   8 -25 7.87591 35.0765   3
   9   8 -26 80.8680 38.0406   3
   9   8 -26-6.99411 27.2623   2
   9   8 -27 16.5975 32.5861   3
   9   8 -27 7.13704 26.7969   2
   9   8 -28 42.5786 34.0049   3
   9   8 -28-7.28066 25.3510   2
   9   8 -29 8.73011 32.2722   3
   9   8 -29 7.42734 25.4711   2
   9   9 -14-29.5594 34.2203   3
   9   9 -16 43.6726 23.7916   2
   9   9 -17 31.6410 33.1797   3
   9   9 -17 6.25086 18.6950   2
   9   9 -18 337.443 80.6909   3
   9   9 -18 138.295 73.2988   2
   9   9 -19 19.9793 36.7338   3
   9   9 -19-25.3650 27.0957   2
   9   9 -20 371.894 160.940   2
   9   9 -20 690.799 165.915   3
   9   9 -21-19.4867 22.6485   2
   9   9 -21-14.0522 31.4808   3
   9   9 -22 212.994 107.127   2
   9   9 -22 496.926 112.796   3
   9   9 -23-13.5232 20.7526   2
   9   9 -23 22.1982 31.8792   3
   9   9 -24 48.1482 33.8012   2
   9   9 -24 91.2274 42.7178   3
   9   9 -25-28.0043 27.5447   2
   9   9 -25-31.2393 33.5273   3
   9   9 -26-16.0334 34.2037   3
   9   9 -26-7.12655 24.8520   2
   9   9 -27 16.4532 34.6584   3
   9   9 -27-14.5153 25.9331   2
   9   9 -28-42.1955 34.1562   3
   9   9 -28 22.1867 26.7345   2
   9   9 -29 8.65070 35.5189   3
   9   9 -29 30.1324 25.3146   2
  10  -7 -14 397.326 141.524   3
  10  -7 -15 45.6880 45.2237   3
  10  -7 -16 395.900 141.283   3
  10  -7 -18 236.254 81.3987   3
  10  -7 -18 186.660 68.5893   2
  10  -7 -19 443.174 129.018   3
  10  -7 -19 332.049 120.108   2
  10  -7 -20 189.117 85.3676   3
  10  -7 -20 214.553 73.6960   2
  10  -7 -21 342.181 120.100   2
  10  -7 -21 397.927 129.890   3
  10  -6 -15 428.000 106.244   3
  10  -6 -15 249.692 95.9333   2
  10  -6 -16 7.77244 44.3254   3
  10  -6 -18 105.582 49.1596   3
  10  -6 -18 53.1720 26.3950   2
  10  -6 -19 382.747 129.508   3
  10  -6 -19 345.237 119.746   2
  10  -6 -20 176.449 70.1922   2
  10  -6 -20 315.939 83.2626   3
  10  -6 -21 224.087 79.4092   2
  10  -6 -21 236.900 90.5773   3
  10  -6 -22 106.817 44.4140   2
  10  -6 -22 161.964 63.6824   3
  10  -6 -23 301.349 110.575   2
  10  -6 -23 388.889 118.801   3
  10  -6 -24-11.2469 19.2583   2
  10  -6 -24 19.0609 42.0039   3
  10  -6 -25 259.791 80.8211   2
  10  -6 -25 117.723 91.2035   3
  10  -6 -26 313.103 120.094   3
  10  -6 -26 296.445 107.673   2
  10  -6 -27 291.090 81.1032   3
  10  -6 -27 158.345 65.0322   2
  10  -6 -28 107.003 46.1799   3
  10  -6 -28 12.5061 23.8398   2
  10  -6 -29 198.221 62.2629   3
  10  -6 -29 83.4576 42.6182   2
 -10   6  30-29.8841 70.9372   5
  10  -6 -30-11.3247 42.4097   3
  10  -6 -30-13.1820 23.2294   2
  10  -5 -15 535.804 133.725   3
  10  -5 -15 331.807 126.002   2
  10  -5 -16 442.757 155.116   3
  10  -5 -18 250.278 76.9025   3
  10  -5 -18 161.338 64.5921   2
  10  -5 -19-9.97892 15.3639   2
  10  -5 -19 24.8160 39.4458   3
  10  -5 -20 351.946 120.611   2
  10  -5 -20 364.463 127.839   3
  10  -5 -21 10.5445 19.3540   2
  10  -5 -21 86.9678 50.3122   3
  10  -5 -22 399.923 130.338   2
  10  -5 -22 321.514 137.710   3
  10  -5 -23-16.6272 19.2834   2
  10  -5 -23 27.4627 41.7979   3
  10  -5 -24 307.218 109.341   2
  10  -5 -24 348.309 117.072   3
  10  -5 -25 303.677 105.857   2
  10  -5 -25 319.432 114.279   3
  10  -5 -26 269.849 101.272   2
  10  -5 -26 358.486 111.171   3
  10  -5 -27 450.701 105.298   3
  10  -5 -27 209.399 93.5482   2
  10  -5 -28 126.403 77.5423   3
  10  -5 -28 202.366 67.8219   2
  10  -5 -29 21.6632 53.9616   3
  10  -5 -29 136.362 45.4456   2
  10  -5 -30 144.725 59.1247   3
  10  -5 -30 93.3044 44.7756   2
  10  -4 -15 189.354 65.8977   2
  10  -4 -16 643.199 220.764   3
  10  -4 -18 120.436 51.3506   3
  10  -4 -18 59.4378 29.4415   2
  10  -4 -19 30.3270 24.3420   2
  10  -4 -19 123.226 45.2006   3
  10  -4 -20-5.21722 18.4692   2
  10  -4 -20-67.2633 45.9115   3
  10  -4 -21 208.289 77.6105   2
  10  -4 -21 267.103 86.2919   3
  10  -4 -22 5.47256 18.5030   2
  10  -4 -22 26.5134 41.2100   3
  10  -4 -23 252.562 77.4922   2
  10  -4 -23 127.030 84.6152   3
  10  -4 -24 57.5990 33.5767   2
  10  -4 -24 167.326 54.1385   3
  10  -4 -25 130.048 49.9950   2
  10  -4 -25 152.865 65.5536   3
  10  -4 -26 382.434 145.019   2
  10  -4 -26 598.881 154.496   3
  10  -4 -27 292.531 104.224   3
  10  -4 -27 243.065 92.4657   2
  10  -4 -28 456.289 165.105   3
  10  -4 -28 473.607 160.574   2
  10  -4 -29 127.820 60.7271   3
  10  -4 -29 124.831 50.6376   2
  10  -4 -30 10.9435 42.1254   3
  10  -4 -30 47.1911 28.7883   2
  10  -3 -14 71.5147 28.6672   2
  10  -3 -15 783.331 262.371   2
  10  -3 -17 256.725 88.5668   2
  10  -3 -18 45.2286 22.6513   2
  10  -3 -18 15.9478 43.3460   3
  10  -3 -19 20.5077 19.2947   2
  10  -3 -19-8.15042 44.4239   3
  10  -3 -20-5.29158 17.8599   2
  10  -3 -20 116.654 46.1356   3
  10  -3 -21 10.8307 19.2570   2
  10  -3 -21 25.5895 43.7743   3
  10  -3 -22 149.774 49.0819   2
  10  -3 -22 69.9231 60.7986   3
  10  -3 -23-5.68772 21.3953   2
  10  -3 -23 8.96437 43.7636   3
  10  -3 -24 40.8469 26.0012   2
  10  -3 -24 73.4131 45.7665   3
  10  -3 -25 233.527 85.4443   2
  10  -3 -25 282.700 95.5202   3
  10  -3 -26 30.7270 25.6956   2
  10  -3 -26 67.7407 44.5488   3
  10  -3 -27 397.482 135.456   2
  10  -3 -27 387.605 141.704   3
  10  -3 -28 30.6188 46.6703   3
  10  -3 -28 6.47701 22.9161   2
  10  -3 -29 251.510 81.4201   3
  10  -3 -29 172.821 70.1296   2
  10  -3 -30 107.572 49.6657   3
  10  -3 -30 6.81941 26.4562   2
  10  -2 -14 392.955 133.171   2
  10  -2 -17 35.1260 19.3171   2
  10  -2 -18 20.4230 17.1835   2
  10  -2 -18-15.8187 41.6720   3
  10  -2 -19-5.25783 17.2011   2
  10  -2 -19-32.2514 41.0782   3
  10  -2 -20 349.162 128.261   2
  10  -2 -20 461.888 135.967   3
  10  -2 -21-10.9901 17.6404   2
  10  -2 -21 75.9326 46.8035   3
  10  -2 -22 56.2775 26.2662   2
  10  -2 -22 51.8399 48.2106   3
  10  -2 -23-5.76742 20.8243   2
  10  -2 -23 26.5629 40.3667   3
  10  -2 -24 23.6581 20.6600   2
  10  -2 -24-18.1168 46.6833   3
  10  -2 -25 12.1367 20.7397   2
  10  -2 -25-18.5878 44.8521   3
  10  -2 -26 124.529 55.4650   2
  10  -2 -26 238.437 68.6585   3
  10  -2 -27-6.38911 21.0144   2
  10  -2 -27 9.78655 43.1032   3
  10  -2 -28 180.840 63.5597   3
  10  -2 -28 85.2177 44.6494   2
  10  -2 -29 10.3093 39.9545   3
  10  -2 -29 6.72466 23.8779   2
  10  -2 -30-31.7270 44.7947   3
  10  -2 -30 75.8867 31.2857   2
  10  -1 -14-4.94800 14.1206   2
  10  -1 -17 66.4161 28.1038   2
  10  -1 -18 15.5857 16.6700   2
  10  -1 -18 31.3361 40.0349   3
  10  -1 -19 678.334 204.733   3
  10  -1 -19 561.426 199.371   2
  10  -1 -20-16.3803 18.4666   2
  10  -1 -20-32.6342 45.7220   3
  10  -1 -21 764.783 235.808   2
  10  -1 -21 575.369 238.519   3
  10  -1 -22-11.4281 20.8873   2
  10  -1 -22-34.1343 44.3390   3
  10  -1 -23 111.202 43.9196   2
  10  -1 -23 104.873 55.2867   3
  10  -1 -24-11.9978 23.5045   2
  10  -1 -24-8.95695 42.3337   3
  10  -1 -25 12.3036 24.3892   2
  10  -1 -25 36.6506 43.0499   3
  10  -1 -26-31.5417 24.6785   2
  10  -1 -26 9.39691 42.3632   3
  10  -1 -27 64.7074 34.8111   2
  10  -1 -27 77.1171 46.5120   3
  10  -1 -28 26.5520 33.7649   2
  10  -1 -28 19.7733 47.2457   3
  10  -1 -29 10.1404 42.6870   3
  10  -1 -29-34.0365 29.4073   2
  10  -1 -30-41.6012 49.0138   3
  10  -1 -30-48.8404 31.6239   2
  10   0 -14 25.2911 15.9618   2
   0 -10  16 46.4686 45.8733   6
   0 -10  17-47.5261 43.3393   6
  10   0 -17 15.6306 17.1571   2
   0 -10  18 398.540 164.395   6
  10   0 -18 496.000 163.958   3
  10   0 -18 481.768 158.978   2
  10   0 -19-16.3341 19.5811   2
  10   0 -19 7.89104 39.1393   3
  10   0 -20 1064.30 378.171   3
  10   0 -20 1150.05 375.536   2
  10   0 -21-5.67630 19.8302   2
  10   0 -21 8.23671 42.2610   3
  10   0 -22 470.315 171.547   2
  10   0 -22 589.743 176.286   3
  10   0 -23-17.8304 22.0133   2
  10   0 -23-17.2473 38.9587   3
  10   0 -24 6.08808 23.7647   2
  10   0 -24-17.6683 45.3203   3
  10   0 -25-12.4790 21.6887   2
  10   0 -25-27.0971 45.4129   3
  10   0 -26 63.9507 35.3646   2
  10   0 -26 111.103 50.1487   3
  10   0 -27 13.1120 23.9080   2
  10   0 -27 18.9858 41.1886   3
  10   0 -28 120.992 48.5652   2
  10   0 -28 19.4624 55.8236   3
  10   0 -29-29.9291 42.0540   3
  10   0 -29-20.6685 27.0123   2
  10   0 -30 132.951 53.9156   3
  10   0 -30 77.6416 43.3342   2
   1 -10  14 92.0387 52.5742   6
   1 -10  15 9.39811 43.5181   6
  10   1 -17 158.331 51.4932   3
  10   1 -17 79.8225 37.1834   2
  10   1 -18-5.40207 16.3603   2
  10   1 -18 7.65685 38.4560   3
  10   1 -19 615.732 196.886   3
  10   1 -19 549.510 192.811   2
  10   1 -20 11.3173 19.6014   2
  10   1 -20-47.7767 39.3515   3
  10   1 -21 531.442 191.330   2
  10   1 -21 658.674 196.076   3
  10   1 -22-5.90415 18.3953   2
  10   1 -22 33.2585 43.9858   3
  10   1 -23 132.892 51.9744   2
  10   1 -23 136.122 63.0769   3
  10   1 -24-12.3661 23.5436   2
  10   1 -24 17.4231 43.5403   3
  10   1 -25 18.9974 23.3659   2
  10   1 -25 62.3245 42.9811   3
  10   1 -26 6.48605 23.4644   2
  10   1 -26-36.4913 43.2479   3
  10   1 -27 73.0946 35.7323   2
  10   1 -27 65.4490 50.8862   3
  10   1 -28 40.8383 38.3367   2
  10   1 -28 28.7420 50.1263   3
  10   1 -29-29.4524 43.4862   3
  10   1 -29-6.97193 28.5739   2
  10   1 -30-10.0598 41.4888   3
  10   2 -16 43.0755 26.6549   2
  10   2 -17 7.44204 37.4553   3
  10   2 -17 16.3347 17.8238   2
  10   2 -18 5.52205 16.1171   2
  10   2 -18 15.1182 38.2447   3
  10   2 -19-5.66762 18.8637   2
  10   2 -19-38.4708 41.1159   3
  10   2 -20 259.686 94.6946   2
  10   2 -20 298.592 101.105   3
  10   2 -21 11.7729 18.3689   2
  10   2 -21-24.0690 38.4903   3
  10   2 -22 102.161 38.6983   2
  10   2 -22 57.4093 49.4077   3
  10   2 -23 6.14285 22.6341   2
  10   2 -23-16.7838 41.6705   3
  10   2 -24 25.1291 24.2400   2
  10   2 -24 34.3619 42.4490   3
  10   2 -25 6.42889 24.1572   2
  10   2 -25 17.5490 41.4418   3
  10   2 -26 134.812 63.7306   3
  10   2 -27 27.6242 42.4123   3
  10   2 -28 94.3513 59.3400   3
  10   2 -29-38.6600 43.2744   3
  10   2 -30 39.5840 41.7878   3
  10   3 -16 5.52776 14.9485   2
  10   3 -17 161.453 82.4763   3
  10   3 -17 234.422 75.4722   2
  10   3 -18 5.65304 17.8999   2
  10   3 -18 37.2804 39.0987   3
  10   3 -19-11.4765 21.5052   2
  10   3 -19-53.1273 42.3246   3
  10   3 -20 29.4654 20.2724   2
  10   3 -20 7.75092 40.3619   3
  10   3 -21 30.0139 22.7627   2
  10   3 -21 23.7472 40.8476   3
  10   3 -22 116.341 51.6632   2
  10   3 -22 177.951 63.3529   3
  10   3 -23 43.7671 33.9098   2
  10   3 -23 99.3074 46.6680   3
  10   3 -24 6.38848 21.7524   2
  10   3 -24 16.9395 39.7441   3
  10   3 -25 267.781 101.244   2
  10   3 -25 345.956 107.631   3
  10   3 -26 13.3575 25.7943   2
  10   3 -26 35.4282 38.4946   3
  10   3 -27 450.867 142.926   2
  10   3 -27 344.722 147.098   3
  10   3 -28 41.9210 33.5876   2
  10   3 -28 92.9253 48.2950   3
  10   3 -29 152.193 72.1005   3
  10   3 -29 185.799 66.9226   2
  10   3 -30-29.2213 42.1458   3
  10   4 -16 523.229 177.373   2
  10   4 -17 7.23197 36.5386   3
  10   4 -17 34.3978 22.6178   2
  10   4 -18 117.595 45.8583   3
  10   4 -18 52.1683 29.0260   2
  10   4 -19 58.7512 30.5464   2
  10   4 -19 82.3242 45.1805   3
  10   4 -20-12.0536 20.1405   2
  10   4 -20-7.64426 38.7624   3
  10   4 -21 177.800 70.0345   2
  10   4 -21 234.146 79.4272   3
  10   4 -22 6.24662 20.4777   2
  10   4 -22 15.9566 39.9453   3
  10   4 -23 146.494 50.8075   2
  10   4 -23 81.5941 56.3864   3
  10   4 -24 221.007 80.2793   2
  10   4 -24 233.796 86.7719   3
  10   4 -25 92.9481 44.2067   2
  10   4 -25 162.030 55.9032   3
  10   4 -26 583.238 203.223   2
  10   4 -26 628.638 205.876   3
  10   4 -27 415.811 138.655   2
  10   4 -27 348.728 141.960   3
  10   4 -28 382.551 142.134   2
  10   4 -28 476.014 147.245   3
  10   4 -29-9.37147 40.2116   3
  10   4 -29 28.9584 25.4035   2
  10   5 -15 105.306 40.8381   2
  10   5 -16 210.650 92.3550   3
  10   5 -16 269.729 87.9340   2
  10   5 -17 99.7371 44.6145   3
  10   5 -17 47.2034 28.6498   2
  10   5 -18 195.543 86.5052   3
  10   5 -18 244.135 81.1431   2
  10   5 -19-6.02748 17.2096   2
  10   5 -19 44.2600 38.0981   3
  10   5 -20 470.585 131.092   2
  10   5 -20 226.154 134.458   3
  10   5 -21-6.26900 19.2484   2
  10   5 -21 23.0986 39.0857   3
  10   5 -22 574.078 159.612   2
  10   5 -22 306.877 161.456   3
  10   5 -23 12.9946 21.7366   2
  10   5 -23-8.04987 38.4282   3
  10   5 -24 357.635 116.012   2
  10   5 -24 288.323 120.221   3
  10   5 -25 270.158 93.8360   2
  10   5 -25 260.721 100.128   3
  10   5 -26 275.700 97.0196   2
  10   5 -26 275.516 102.813   3
  10   5 -27 351.798 127.106   2
  10   5 -27 396.697 132.521   3
  10   5 -28 143.693 63.8895   2
  10   5 -28 198.514 69.8405   3
  10   5 -29 203.188 60.9065   3
  10   5 -29 87.9909 50.0530   2
  10   6 -15 206.083 73.4363   2
  10   6 -16 6.90948 36.2456   3
  10   6 -16 6.06229 17.8889   2
  10   6 -17 399.846 128.438   3
  10   6 -17 340.838 123.722   2
  10   6 -18 78.4950 43.3487   3
  10   6 -18 49.0502 26.8342   2
  10   6 -19 290.881 113.013   3
  10   6 -19 322.083 107.846   2
  10   6 -20 213.160 66.3936   2
  10   6 -20 126.386 71.8762   3
  10   6 -21 241.612 90.9346   2
  10   6 -21 280.994 97.1372   3
  10   6 -22 117.398 46.2449   2
  10   6 -22 124.240 56.6560   3
  10   6 -23 411.266 150.010   2
  10   6 -23 500.394 154.767   3
  10   6 -24 27.0094 22.0347   2
  10   6 -24-8.10892 39.0452   3
  10   6 -25 199.502 84.1726   2
  10   6 -25 307.072 90.7680   3
  10   6 -26 245.393 101.429   2
  10   6 -26 331.340 109.270   3
  10   6 -27 157.281 61.0143   2
  10   6 -27 156.568 68.6196   3
  10   6 -28 17.8018 42.4103   3
  10   6 -28 80.1882 33.3964   2
  10   6 -29 145.749 47.1740   3
  10   6 -29 44.6032 32.4419   2
  10   7 -16 169.935 57.6668   3
  10   7 -16 106.816 48.5802   2
  10   7 -17 48.3529 40.1790   3
  10   7 -17 44.0635 24.2624   2
  10   7 -18 225.030 76.8394   3
  10   7 -18 177.128 69.1801   2
  10   7 -19 466.911 115.597   3
  10   7 -19 248.677 108.814   2
  10   7 -20 124.689 56.4345   3
  10   7 -20 103.092 43.4218   2
  10   7 -21 450.180 160.227   2
  10   7 -21 509.689 164.063   3
  10   7 -22 138.947 65.0484   2
  10   7 -22 268.239 73.5331   3
  10   7 -23 142.456 54.9754   2
  10   7 -23 149.023 62.9404   3
  10   7 -24 144.802 53.9584   2
  10   7 -24 128.099 61.5290   3
  10   7 -25-49.0829 34.8591   2
  10   7 -25-8.19562 45.1897   3
  10   7 -26 107.054 44.2275   2
  10   7 -26 109.072 53.4639   3
  10   7 -27-7.26840 27.3717   2
  10   7 -27 25.7610 36.7561   3
  10   7 -28 114.222 48.4273   3
  10   7 -28 59.2232 35.6639   2
  10   7 -29-8.98945 36.1573   3
   8 -10  -4 466.106 162.633   6
   8 -10  -5 112.218 54.7535   6
  10   8 -15 112.053 53.0661   3
  10   8 -16 86.9746 47.0114   3
  10   8 -17 122.506 44.0974   3
  10   8 -17 32.6397 27.0972   2
  10   8 -18 270.453 82.2840   3
  10   8 -18 183.245 75.0175   2
  10   8 -19 106.331 44.9311   3
  10   8 -19 19.7454 29.3094   2
  10   8 -20 651.664 174.700   3
  10   8 -20 424.670 170.689   2
  10   8 -21 74.0283 40.3078   3
  10   8 -21 46.9312 28.8979   2
  10   8 -22 359.702 109.396   2
  10   8 -22 242.310 113.355   3
  10   8 -23 116.942 40.0219   2
  10   8 -23 46.4967 47.6200   3
  10   8 -24 6.98112 27.9353   2
  10   8 -24 15.8288 39.2152   3
  10   8 -25 21.4734 27.3412   2
  10   8 -25 64.8012 39.8419   3
  10   8 -26-7.27532 25.1172   2
  10   8 -26 16.5863 35.9995   3
  10   8 -27 36.9893 29.2394   2
  10   8 -27 33.9441 41.2122   3
  10   8 -28-43.4137 40.1725   3
  10   8 -28-37.6270 30.4268   2
  10   9 -15-25.9318 37.7455   3
  10   9 -16 46.1236 41.1071   3
  10   9 -17 154.340 46.3957   3
  10   9 -17 40.7314 31.0207   2
  10   9 -18 116.550 48.7076   3
  10   9 -18 33.9383 30.2736   2
  10   9 -19 231.002 71.9257   3
  10   9 -19 149.811 65.2099   2
  10   9 -20 21.4633 38.0370   3
  10   9 -20 6.84945 19.1193   2
  10   9 -21 417.163 91.4782   3
  10   9 -21 158.838 82.5709   2
  10   9 -22-14.9786 35.4920   3
  10   9 -22 13.9503 19.7973   2
  10   9 -23 160.573 50.9036   3
  10   9 -23 42.3411 40.8833   2
  10   9 -24-14.2988 24.7100   2
  10   9 -24-7.82818 35.6669   3
  10   9 -25-7.24726 23.6471   2
  10   9 -25-8.01547 33.3134   3
  10   9 -26-7.42536 24.7260   2
  10   9 -26 8.20272 36.8934   3
  10   9 -27 8.39678 35.5487   3
  10   9 -27 22.6170 25.4410   2
  10   9 -28-8.58856 36.1751   3
  10   9 -28 7.65671 23.1681   2
  10  10 -19-7.06296 18.3623   2
  10  10 -20 28.3470 21.2202   2
  10  10 -21-21.3867 22.3817   2
  10  10 -22 43.1216 30.1011   2
  11  -7 -17 274.410 102.860   3
  11  -7 -18 314.846 80.5183   3
  11  -7 -18 159.210 65.6299   2
  11  -6 -17 102.943 49.0536   3
  11  -6 -17 25.6049 17.1996   2
  11  -6 -18 252.773 59.0279   3
  11  -6 -18 31.0950 23.7224   2
  11  -6 -19 115.615 75.9860   3
  11  -6 -19 205.104 65.2385   2
  11  -6 -20 81.6705 53.1985   3
  11  -6 -20 58.8065 28.2660   2
  11  -6 -21 92.7510 66.2078   3
  11  -6 -21 147.074 50.0821   2
  11  -6 -22 161.298 69.2804   3
  11  -6 -22 138.867 52.2936   2
  11  -6 -23 11.3456 18.1375   2
  11  -6 -23 58.3137 45.3719   3
  11  -6 -24 86.9682 40.2733   2
  11  -6 -24 188.853 63.8490   3
  11  -6 -25 5.92885 28.9544   2
  11  -6 -25-10.1914 59.0129   3
  11  -6 -26 85.7906 38.4284   2
  11  -6 -26 135.911 57.6137   3
  11  -6 -27 119.155 52.0650   2
  11  -6 -27 214.573 71.3243   3
  11  -6 -28 66.0368 52.2974   3
  11  -6 -28 89.8832 37.3343   2
  11  -6 -29-22.5829 44.3683   3
  11  -6 -29 52.5801 25.1892   2
  11  -5 -16 84.6868 55.4548   3
  11  -5 -17 154.168 61.1061   3
  11  -5 -17 108.698 43.3880   2
  11  -5 -18-17.3778 48.4498   3
  11  -5 -18-5.23812 13.9610   2
  11  -5 -19 212.058 65.4689   3
  11  -5 -19 85.0704 39.4159   2
  11  -5 -20 81.1799 52.6623   3
  11  -5 -20 10.8129 16.9994   2
  11  -5 -21 193.286 58.7079   3
  11  -5 -21 82.6103 39.3699   2
  11  -5 -22 5.61725 17.5285   2
  11  -5 -22 75.2617 46.3128   3
  11  -5 -23 108.993 47.1454   2
  11  -5 -23 202.069 64.2525   3
  11  -5 -24 82.0938 33.2949   2
  11  -5 -24 29.4873 58.4135   3
  11  -5 -25 109.013 44.0260   2
  11  -5 -25 110.771 63.8087   3
  11  -5 -26 272.632 105.782   2
  11  -5 -26 412.786 116.935   3
  11  -5 -27 139.530 49.7181   2
  11  -5 -27 84.6296 65.4297   3
  11  -5 -28 347.155 111.513   3
  11  -5 -28 272.659 102.255   2
  11  -5 -29 88.9392 50.7879   3
  11  -5 -29 53.1718 33.2807   2
  11  -4 -16 31.1542 19.7683   2
  11  -4 -17 25.6137 45.8883   3
  11  -4 -17 41.9255 20.6342   2
  11  -4 -18 77.8413 53.5779   3
  11  -4 -18 68.9713 30.0077   2
  11  -4 -19 175.663 53.1911   3
  11  -4 -19 16.1513 19.9009   2
  11  -4 -20 26.8589 46.1483   3
  11  -4 -20 49.2746 22.9615   2
  11  -4 -21 118.646 53.1632   3
  11  -4 -21 5.57530 20.4682   2
  11  -4 -22 136.488 56.5753   2
  11  -4 -22 232.942 73.5802   3
  11  -4 -23-5.80683 18.2992   2
  11  -4 -23-38.0877 48.2502   3
  11  -4 -24 83.8995 45.6104   2
  11  -4 -24 262.934 64.5559   3
  11  -4 -25 128.692 59.9018   2
  11  -4 -25 288.404 75.7238   3
  11  -4 -26 112.856 52.2994   2
  11  -4 -26 142.549 69.0073   3
  11  -4 -27 391.390 133.647   2
  11  -4 -27 375.539 139.345   3
  11  -4 -28 91.9566 34.7414   2
  11  -4 -28 21.3705 53.6563   3
  11  -4 -29 262.739 82.9190   3
  11  -4 -29 168.081 69.5598   2
  11  -3 -16 47.4180 24.3690   2
  11  -3 -17 42.4674 50.3778   3
  11  -3 -17 63.8118 26.5530   2
  11  -3 -18 25.7770 44.8719   3
  11  -3 -18 5.38123 15.2887   2
  11  -3 -19-26.1472 43.7614   3
  11  -3 -19 5.46050 14.9346   2
  11  -3 -20 97.4709 63.5286   3
  11  -3 -20 127.659 45.6835   2
  11  -3 -21 62.1734 27.3993   2
  11  -3 -21 27.1244 48.2461   3
  11  -3 -22 80.6930 37.9221   2
  11  -3 -22 129.084 58.5961   3
  11  -3 -23 118.850 43.1650   2
  11  -3 -23 75.3083 60.1913   3
  11  -3 -24 6.07144 22.0324   2
  11  -3 -24 86.5859 47.2866   3
  11  -3 -25 31.0348 24.8579   2
  11  -3 -25 49.0819 45.6769   3
  11  -3 -26 120.619 49.8461   2
  11  -3 -26 120.509 64.3819   3
  11  -3 -27 19.4845 27.4414   2
  11  -3 -27 82.2424 53.6108   3
  11  -3 -28 132.938 56.7871   2
  11  -3 -28 210.523 72.1374   3
  11  -3 -29 43.0981 43.9698   3
  11  -3 -29-20.4083 22.4430   2
  11  -2 -16 16.0694 13.9777   2
  11  -2 -17 143.319 59.5255   3
  11  -2 -17 64.8509 31.3147   2
  11  -2 -18-8.52287 44.6480   3
  11  -2 -18 5.46674 15.7987   2
  11  -2 -19 751.496 195.545   3
  11  -2 -19 499.060 188.951   2
  11  -2 -20 35.0980 46.6906   3
  11  -2 -20 11.2709 16.7602   2
  11  -2 -21 778.096 255.325   3
  11  -2 -21 734.215 251.004   2
  11  -2 -22 35.0821 28.7042   2
  11  -2 -22 127.604 53.7600   3
  11  -2 -23 180.776 67.7712   2
  11  -2 -23 204.621 80.9969   3
  11  -2 -24 61.5413 27.4791   2
  11  -2 -24 28.4955 49.4917   3
  11  -2 -25-6.28917 23.7576   2
  11  -2 -25-9.70844 44.9017   3
  11  -2 -26-12.8639 23.9549   2
  11  -2 -26 39.6088 49.1772   3
  11  -2 -27-6.57884 26.9317   2
  11  -2 -27-10.1298 46.5440   3
  11  -2 -28-6.72813 23.6266   2
  11  -2 -28-10.3617 44.3789   3
  11  -2 -29 6.88313 25.1003   2
  11  -2 -29 21.2059 41.1699   3
  11  -1 -16 76.3977 30.9307   2
  11  -1 -17 5.50258 17.7115   2
  11  -1 -18 936.733 234.139   3
  11  -1 -18 600.817 227.237   2
  11  -1 -19 51.2898 45.4777   3
  11  -1 -19-5.64029 17.4073   2
  11  -1 -20 1267.00 461.463   3
  11  -1 -20 1420.82 458.615   2
  11  -1 -21 5.82830 17.8405   2
  11  -1 -21 17.6795 41.9666   3
  11  -1 -22 1098.38 377.716   3
  11  -1 -22 1128.21 374.489   2
  11  -1 -23-6.11647 22.8302   2
  11  -1 -23-64.2704 45.8213   3
  11  -1 -24 206.036 69.0084   2
  11  -1 -24 140.560 81.2629   3
  11  -1 -25-19.1329 21.5229   2
  11  -1 -25 57.4319 44.5093   3
  11  -1 -26 6.51923 22.2515   2
  11  -1 -26-9.75714 41.0920   3
  11  -1 -27-53.3195 33.3299   2
  11  -1 -27-9.97545 51.9283   3
  11  -1 -28-6.81625 22.5429   2
  11  -1 -28-10.2027 48.0961   3
  11  -1 -29-20.9085 24.2725   2
  11  -1 -29 31.3033 46.3903   3
  11   0 -15 255.230 88.2299   2
  11   0 -16-5.57074 15.3474   2
  11   0 -17 650.992 219.138   2
  11   0 -18 8.34350 41.8121   3
  11   0 -18 11.3415 16.1868   2
  11   0 -19 1334.78 448.894   3
  11   0 -20-120.017 47.4769   3
  11   0 -20 5.83023 19.6174   2
  11   0 -21 1780.63 681.987   3
  11   0 -21 2181.76 680.052   2
  11   0 -22 6.03636 22.4407   2
  11   0 -22 35.5450 43.0887   3
  11   0 -23 577.903 209.365   2
  11   0 -23 724.652 214.781   3
  11   0 -24 38.0355 25.0769   2
  11   0 -24 27.7213 44.8075   3
  11   0 -25 181.222 59.8530   2
  11   0 -25 94.3443 70.7580   3
  11   0 -26-26.4487 22.9504   2
  11   0 -26-9.61556 41.4641   3
  11   0 -27-33.7810 30.3738   2
  11   0 -27 9.82608 53.2148   3
  11   0 -28-55.2269 29.7378   2
  11   0 -28-10.0415 43.2702   3
  11   0 -29 98.8128 41.6862   2
  11   0 -29 82.1203 53.6295   3
   1 -11  14 9.67246 40.8543   6
   1 -11  15 39.4434 44.1513   6
  11   1 -16 102.555 39.0871   2
  11   1 -17 11.4708 16.9672   2
  11   1 -18 683.578 183.151   3
  11   1 -18 463.115 177.033   2
  11   1 -19-66.7138 44.6641   3
  11   1 -19-5.85951 17.7591   2
  11   1 -20 1522.51 543.965   3
  11   1 -20 1675.86 541.729   2
  11   1 -21 18.1104 17.9175   2
  11   1 -21-25.8368 44.5045   3
  11   1 -22 1165.74 393.105   3
  11   1 -23 18.9531 19.9012   2
  11   1 -23 8.93175 46.1597   3
  11   1 -24 83.7520 46.3444   2
  11   1 -24 218.605 63.7700   3
  11   1 -25 26.2925 22.9124   2
  11   1 -25-37.1860 45.4901   3
  11   1 -26 40.2518 25.6255   2
  11   1 -26 18.9365 45.7712   3
  11   1 -27-13.7007 30.3601   2
  11   1 -27-67.7031 53.0169   3
  11   1 -28 6.99773 27.3094   2
  11   1 -28 108.720 49.2145   3
  11   1 -29 28.5904 27.9933   2
  11   1 -29 20.1982 46.2449   3
   2 -11  11 28.2930 41.7027   6
   2 -11  12 19.1997 42.4526   6
   2 -11  13 48.8526 45.6925   6
  11   2 -16 5.83963 14.8675   2
  11   2 -17 35.2291 22.3539   2
  11   2 -18 8.11989 40.9290   3
  11   2 -18 11.8423 17.9955   2
  11   2 -19 402.867 176.206   3
  11   2 -19 550.696 171.637   2
  11   2 -20-8.34111 45.5867   3
  11   2 -20 30.3233 19.7634   2
  11   2 -21 781.041 247.122   3
  11   2 -21 695.676 243.508   2
  11   2 -22 25.9165 45.1455   3
  11   2 -23 96.8145 54.0502   3
  11   2 -24 8.97347 46.6123   3
  11   2 -25-18.3123 44.8450   3
  11   2 -26-9.32600 43.4623   3
  11   2 -27-9.52013 43.5098   3
  11   2 -28-9.72556 49.4707   3
  11   2 -29 9.93412 41.9595   3
   3 -11  10-38.1780 42.7348   6
  11   3 -16 137.966 50.9521   2
  11   3 -17 36.1400 19.6255   2
  11   3 -18 7.99775 40.4348   3
  11   3 -18 6.06477 18.1878   2
  11   3 -19-8.09964 42.4335   3
  11   3 -19 6.12499 15.5038   2
  11   3 -20 164.366 67.5091   3
  11   3 -20 130.166 51.2629   2
  11   3 -21 25.0945 47.5096   3
  11   3 -21 94.2552 34.0066   2
  11   3 -22 57.4213 31.2980   2
  11   3 -22 93.6242 53.4817   3
  11   3 -23 123.259 34.8223   2
  11   3 -23-34.6848 52.4414   3
  11   3 -24 40.0092 26.9270   2
  11   3 -24 53.0361 46.1970   3
  11   3 -25 74.7129 33.9099   2
  11   3 -25 63.1242 49.5415   3
  11   3 -26 89.9678 42.9203   2
  11   3 -26 45.9016 52.6256   3
  11   3 -27 21.1679 25.2792   2
  11   3 -27 18.7449 41.5343   3
  11   3 -28 172.722 58.0263   2
  11   3 -28 95.7204 67.3882   3
  11   3 -29 136.852 64.0492   3
  11   4 -16 104.994 41.1146   2
  11   4 -17 43.3308 22.9210   2
  11   4 -18 15.7439 57.4772   3
  11   4 -18 168.085 47.4832   2
  11   4 -19 7.97505 40.3368   3
  11   4 -19-12.5528 17.3409   2
  11   4 -20 16.1826 45.8977   3
  11   4 -20 82.4681 31.1948   2
  11   4 -21-41.1954 42.9452   3
  11   4 -21 12.8483 23.9372   2
  11   4 -22 104.250 45.8048   2
  11   4 -22 150.930 59.0027   3
  11   4 -23 13.2345 25.4821   2
  11   4 -23 51.2536 43.1997   3
  11   4 -24 115.469 39.4258   2
  11   4 -24 26.1232 52.0048   3
  11   4 -25 248.817 82.6149   2
  11   4 -25 186.540 89.6621   3
  11   4 -26 189.956 69.6542   2
  11   4 -26 117.539 77.8282   3
  11   4 -27 315.298 109.139   2
  11   4 -27 304.599 115.340   3
  11   4 -28 36.5149 29.2475   2
  11   4 -28 65.9514 50.3157   3
  11   5 -17 153.133 56.6570   3
  11   5 -17 89.2727 43.3516   2
  11   5 -18-38.7195 42.0348   3
  11   5 -18 25.6054 17.3520   2
  11   5 -19 31.3896 47.0036   3
  11   5 -19 58.0000 28.0675   2
  11   5 -20 71.7016 50.6952   3
  11   5 -20 97.5465 37.8502   2
  11   5 -21 186.588 59.3707   3
  11   5 -21 85.4912 44.4891   2
  11   5 -22 49.5491 41.3388   3
  11   5 -22 13.3225 23.5991   2
  11   5 -23 168.914 63.7371   2
  11   5 -23 185.110 74.0698   3
  11   5 -24 20.5792 23.5719   2
  11   5 -24-17.1553 43.3975   3
  11   5 -25 98.5600 47.3084   2
  11   5 -25 131.254 59.9606   3
  11   5 -26 379.445 127.916   2
  11   5 -26 347.340 133.462   3
  11   5 -27 101.984 44.6641   2
  11   5 -27 118.178 55.3935   3
  11   5 -28 148.321 59.4819   2
  11   5 -28 157.727 68.5757   3
  11   6 -17 67.7126 39.5016   3
  11   6 -17-6.58409 17.3152   2
  11   6 -18 220.840 72.6434   3
  11   6 -18 151.734 60.9183   2
  11   6 -19 254.816 71.2699   3
  11   6 -19 119.340 55.9047   2
  11   6 -20 62.7454 59.8761   3
  11   6 -20 146.943 47.6236   2
  11   6 -21 71.9075 59.0871   3
  11   6 -21 128.132 44.6271   2
  11   6 -22 162.690 59.9138   3
  11   6 -22 102.300 44.7486   2
  11   6 -23 33.1598 40.1602   3
  11   6 -23 41.4354 26.6009   2
  11   6 -24 91.0709 46.3901   2
  11   6 -24 177.500 59.6994   3
  11   6 -25 28.4341 28.8480   2
  11   6 -25 43.1023 46.6578   3
  11   6 -26 80.2216 35.6903   2
  11   6 -26 70.2073 47.9358   3
  11   6 -27 163.043 60.5343   2
  11   6 -27 152.225 67.6324   3
  11   6 -28 191.983 79.2757   3
   7 -11  -1 308.637 114.520   6
   7 -11  -2 55.3203 47.3797   6
   7 -11  -3 126.975 62.7828   6
  11   7 -17 73.9210 50.0956   3
  11   7 -18 172.238 78.1277   3
  11   7 -18 204.476 69.6535   2
  11   7 -19 53.1925 54.3612   3
  11   7 -19 123.034 41.2060   2
  11   7 -20 348.145 110.398   3
  11   7 -20 274.934 104.220   2
  11   7 -21 94.4557 49.8261   3
  11   7 -21 48.4822 31.3222   2
  11   7 -22 128.274 95.0610   3
  11   7 -22 335.660 91.1037   2
  11   7 -23 8.17038 41.7234   3
  11   7 -23 42.4339 24.7440   2
  11   7 -24 33.3226 50.8523   3
  11   7 -24 57.2847 39.5783   2
  11   7 -25 43.5510 25.9027   2
  11   7 -25 25.4391 43.2808   3
  11   7 -26 29.4500 32.3740   2
  11   7 -26 103.839 44.5090   3
  11   7 -27 7.47245 23.8538   2
  11   7 -27 44.1561 37.7603   3
  11   7 -28 27.0340 40.1283   3
   8 -11  -3 76.0823 53.5531   6
   8 -11  -4 74.9663 52.7676   6
   8 -11  -5 469.450 164.705   6
  11   8 -16 35.8939 38.7077   3
  11   8 -17 58.1291 40.5571   3
  11   8 -18 14.7328 39.0795   3
  11   8 -19 321.602 86.1679   3
  11   8 -19 169.508 74.9256   2
  11   8 -20 45.7185 43.5718   3
  11   8 -20 42.5275 28.1808   2
  11   8 -21 364.572 91.9492   3
  11   8 -21 178.219 81.9268   2
  11   8 -22 15.8084 40.7629   3
  11   8 -22-7.18316 18.5232   2
  11   8 -23 153.071 76.3952   3
  11   8 -23 203.076 70.1159   2
  11   8 -24 49.3113 41.0130   3
  11   8 -24 14.6636 24.3731   2
  11   8 -25 16.7311 39.1553   3
  11   8 -25-14.8374 23.4612   2
  11   8 -26-8.53823 40.7792   3
  11   8 -26-7.51277 22.8661   2
  11   8 -27 7.61643 28.5636   2
  11   8 -27 95.8258 43.1840   3
  11   9 -16-28.1997 38.2691   3
  11   9 -17 42.8573 42.9186   3
  11   9 -18 108.735 51.1190   3
  11   9 -19 22.1433 38.1795   3
  11   9 -20 217.862 68.6934   3
  11   9 -20 131.843 58.9059   2
  11   9 -21-38.2521 39.2338   3
  11   9 -21-7.35175 20.1415   2
  11   9 -22 155.998 61.1586   3
  11   9 -22 103.536 47.9435   2
  11   9 -23-7.95334 37.5276   3
  11   9 -23-7.44942 23.9842   2
  11   9 -24-24.2895 40.0373   3
  11   9 -24-22.5537 23.6726   2
  11   9 -25 66.0872 39.8117   3
  11   9 -25 7.59543 24.4939   2
  11   9 -26 42.1550 39.9911   3
  11   9 -26-30.7285 24.0096   2
  11   9 -27-17.2064 35.5372   3
  11  10 -15 198.493 78.5618   3
  11  10 -16 34.6486 38.9339   3
  11  10 -17 7.03009 38.3463   3
  11  10 -18 21.4325 38.2696   3
  11  10 -21-7.60004 21.6889   2
  11  10 -22-61.0181 29.3526   2
  11  10 -23-15.3401 21.9607   2
  11  10 -24 15.4484 22.1157   2
  12  -6 -17 46.4830 51.5399   3
  12  -6 -18 9.39336 48.7933   3
  12  -6 -19-9.51247 48.3868   3
  12  -6 -20 232.196 66.4319   3
  12  -6 -20 79.5252 38.4273   2
  12  -6 -21-68.8601 50.7152   3
  12  -6 -21-5.76002 15.3833   2
  12  -6 -22 10.0213 48.9301   3
  12  -6 -22 17.5481 17.1674   2
  12  -6 -23-51.1025 60.3303   3
  12  -6 -23-53.5403 31.4376   2
  12  -6 -24-62.5957 53.5501   3
  12  -6 -24 6.05605 17.5494   2
  12  -6 -25-31.8995 50.0216   3
  12  -6 -25-12.3430 19.3876   2
  12  -6 -26 217.383 65.7990   3
  12  -6 -26 69.2186 37.3829   2
  12  -6 -27-55.5861 44.9592   3
  12  -6 -27-6.41889 20.8558   2
  12  -6 -28 65.5321 33.6689   2
  12  -6 -28 125.099 55.8403   3
  12  -5 -17 18.5837 49.7771   3
  12  -5 -18 18.7418 47.7161   3
  12  -5 -19-28.4323 57.1924   3
  12  -5 -19 51.0510 22.1435   2
  12  -5 -20 57.6498 55.1841   3
  12  -5 -20-5.74159 14.8659   2
  12  -5 -21-9.77572 49.3932   3
  12  -5 -21 34.9236 18.0966   2
  12  -5 -22-29.8372 48.2631   3
  12  -5 -22 5.91378 16.4719   2
  12  -5 -23 20.2564 48.9526   3
  12  -5 -23 18.0377 20.6941   2
  12  -5 -24 92.9874 83.5851   3
  12  -5 -24 195.911 65.9588   2
  12  -5 -25 21.0315 58.6906   3
  12  -5 -25 118.530 40.5966   2
  12  -5 -26-21.4827 48.9400   3
  12  -5 -26-50.8816 26.7344   2
  12  -5 -27 90.8424 48.2291   2
  12  -5 -27 252.351 68.2955   3
  12  -5 -28-13.2426 20.6108   2
  12  -5 -28-22.4342 47.1168   3
  12  -4 -18-65.3096 56.5249   3
  12  -4 -19-28.2777 52.9335   3
  12  -4 -19-11.4832 14.8843   2
  12  -4 -20 104.986 59.2089   3
  12  -4 -20 52.2990 27.0032   2
  12  -4 -21-67.9088 50.0849   3
  12  -4 -21-17.6755 20.0273   2
  12  -4 -22 39.4275 50.4202   3
  12  -4 -22 35.9016 20.6012   2
  12  -4 -23 10.0291 47.4710   3
  12  -4 -23 24.3422 18.1438   2
  12  -4 -24 40.8732 47.8678   3
  12  -4 -24 12.3912 20.1815   2
  12  -4 -25 10.4209 49.8651   3
  12  -4 -25-18.9363 25.2528   2
  12  -4 -26 218.759 83.7360   2
  12  -4 -26 318.158 99.5254   3
  12  -4 -27-19.6923 23.4358   2
  12  -4 -27-10.8270 45.9819   3
  12  -4 -28 254.566 92.2610   2
  12  -4 -28 276.444 103.743   3
  12  -3 -18-9.27204 49.3338   3
  12  -3 -18-5.76736 15.3264   2
  12  -3 -19 149.724 69.5365   3
  12  -3 -19 145.563 52.8484   2
  12  -3 -20-47.3283 53.3925   3
  12  -3 -20-5.89146 18.1322   2
  12  -3 -21 182.580 83.1128   3
  12  -3 -21 197.112 69.0479   2
  12  -3 -22 19.5181 47.3592   3
  12  -3 -22-6.06453 16.2832   2
  12  -3 -23 49.6025 53.5385   3
  12  -3 -23 61.6518 29.1310   2
  12  -3 -24-10.0992 50.4499   3
  12  -3 -24 31.3710 20.4594   2
  12  -3 -25 70.2953 41.4801   2
  12  -3 -25 102.907 60.8400   3
  12  -3 -26 6.51541 22.8036   2
  12  -3 -26-41.8644 48.6779   3
  12  -3 -27 106.303 41.7012   2
  12  -3 -27 53.3835 62.6890   3
  12  -3 -28 6.84527 20.2189   2
  12  -3 -28 10.8981 47.3686   3
  12  -2 -18 478.129 145.361   3
  12  -2 -18 374.953 134.980   2
  12  -2 -19 120.542 54.5662   3
  12  -2 -19-17.7401 15.2512   2
  12  -2 -20 974.698 298.494   3
  12  -2 -20 837.352 292.663   2
  12  -2 -21 9.49329 48.9711   3
  12  -2 -21-6.06162 18.3646   2
  12  -2 -22 621.354 195.762   2
  12  -2 -22 463.094 201.595   3
  12  -2 -23 68.6215 58.4515   3
  12  -2 -23 43.7690 24.8337   2
  12  -2 -24 129.621 61.8215   3
  12  -2 -24 95.4298 42.7575   2
  12  -2 -25-38.8710 29.6492   2
  12  -2 -25-40.6106 54.4816   3
  12  -2 -26-6.60269 19.8881   2
  12  -2 -26-41.3841 48.6186   3
  12  -2 -27 6.73066 22.8203   2
  12  -2 -27 10.5229 50.5206   3
  12  -2 -28-6.93311 22.0474   2
  12  -2 -28 96.6211 45.5719   3
  12  -1 -18-27.3026 44.6815   3
  12  -1 -18 5.96248 16.6120   2
  12  -1 -19 1669.46 534.423   3
  12  -1 -19 1558.03 531.092   2
  12  -1 -20-27.7989 46.1254   3
  12  -1 -20-6.08127 18.3941   2
  12  -1 -21 900.560 414.591   3
  12  -1 -21 1386.01 411.936   2
  12  -1 -22 28.5842 45.9632   3
  12  -1 -22-6.24875 18.3126   2
  12  -1 -23 1074.02 364.066   3
  12  -1 -24-49.1950 48.5810   3
  12  -1 -24 12.9119 21.2230   2
  12  -1 -25 170.847 57.5767   2
  12  -1 -25 100.127 71.1146   3
  12  -1 -26-6.69387 26.1725   2
  12  -1 -26 50.9768 51.4930   3
  12  -1 -27-6.82130 22.7215   2
  12  -1 -27 10.3637 44.6569   3
  12  -1 -28 7.02261 23.0883   2
  12  -1 -28-31.7018 52.1780   3
  12   0 -18 1246.32 416.715   2
  12   0 -19-54.3574 53.9699   3
  12   0 -19 6.12906 17.7352   2
  12   0 -20 1601.04 622.360   3
  12   0 -20 2006.19 620.403   2
  12   0 -21-83.3267 51.9623   3
  12   0 -21-6.26816 21.8576   2
  12   0 -22 958.861 409.710   3
  12   0 -22 1347.15 406.976   2
  12   0 -23-76.3402 54.0722   3
  12   0 -23 6.45146 20.6476   2
  12   0 -24 642.689 228.997   2
  12   0 -24 766.246 234.426   3
  12   0 -25-6.67118 24.0922   2
  12   0 -25 9.86626 47.6047   3
  12   0 -26 47.5447 30.7767   2
  12   0 -26 60.2502 51.8172   3
  12   0 -27-6.91767 24.9593   2
  12   0 -27-61.2171 49.4622   3
  12   0 -28 28.4749 25.2825   2
  12   0 -28 20.7968 46.3089   3
  12   1 -18 6.20838 15.1157   2
  12   1 -19 1188.40 516.800   3
  12   1 -19 1738.50 514.717   2
  12   1 -20 18.0446 45.5374   3
  12   1 -20 31.5632 21.5526   2
  12   1 -21 748.572 256.954   3
  12   1 -22-27.7996 47.6647   3
  12   1 -22-6.47041 17.7083   2
  12   1 -23 853.398 295.556   2
  12   1 -23 940.418 299.968   3
  12   1 -24-28.6585 49.6649   3
  12   1 -24-6.66634 20.8069   2
  12   1 -25 115.205 44.1830   2
  12   1 -25 67.9992 61.5653   3
  12   1 -26-13.7902 26.1615   2
  12   1 -26-19.7742 46.2409   3
  12   1 -27 56.1452 33.4354   2
  12   1 -27 120.510 58.8625   3
  12   1 -28-40.9254 49.7551   3
  12   2 -18 438.268 149.097   2
  12   2 -19-8.79999 46.4098   3
  12   2 -20 710.859 244.274   3
  12   2 -21 8.99061 48.1182   3
  12   2 -22 438.011 156.487   3
  12   2 -23 120.374 63.7742   3
  12   2 -24 169.333 74.0884   3
  12   2 -25-47.8227 56.7201   3
  12   2 -26 68.1032 54.0701   3
  12   2 -27 39.5173 49.4301   3
  12   2 -28-40.2487 48.3558   3
   3 -12   8 116.589 60.5684   6
  12   3 -18 6.51098 18.2622   2
  12   3 -19 190.469 80.2956   3
  12   3 -19 189.786 67.6864   2
  12   3 -20 69.9538 48.8105   3
  12   3 -20-6.59262 19.2681   2
  12   3 -21 230.052 102.328   3
  12   3 -21 279.518 93.0554   2
  12   3 -22 80.8341 45.8393   3
  12   3 -22 6.72925 21.0699   2
  12   3 -23 54.6803 51.2906   3
  12   3 -23 34.0724 25.1383   2
  12   3 -24 46.2754 48.9559   3
  12   3 -24 13.8210 20.7632   2
  12   3 -25 188.177 80.1363   3
  12   3 -25 147.276 66.4145   2
  12   3 -26-7.12449 24.0298   2
  12   3 -26 9.57260 49.1177   3
  12   3 -27 108.605 53.0590   2
  12   3 -27 174.932 65.9857   3
   4 -12   5 105.563 57.8419   6
   4 -12   6 184.923 77.1152   6
   4 -12   7-19.7344 44.2488   6
  12   4 -18-8.44105 42.4746   3
  12   4 -19 110.625 47.9394   3
  12   4 -19 6.71162 19.7739   2
  12   4 -20 17.1938 49.1461   3
  12   4 -20 87.7757 32.2003   2
  12   4 -21-26.1036 47.1548   3
  12   4 -21 6.80770 19.6333   2
  12   4 -22 17.6682 42.1374   3
  12   4 -22 13.7556 21.6772   2
  12   4 -23-17.9292 44.0540   3
  12   4 -23 13.9145 19.8169   2
  12   4 -24-18.2147 45.4767   3
  12   4 -24 7.04585 21.9419   2
  12   4 -25-37.0324 49.0666   3
  12   4 -25-28.5731 31.7641   2
  12   4 -26 75.3224 70.9296   3
  12   4 -26 210.229 63.9819   2
  12   4 -27-14.7220 21.6254   2
  12   4 -27 28.6761 48.5422   3
   5 -12   2-19.0463 42.1135   6
   5 -12   3 106.226 57.9830   6
   5 -12   4-29.3526 43.5699   6
   5 -12   5-39.6193 44.9569   6
  12   5 -18 33.1492 44.5611   3
  12   5 -19 8.35945 48.4346   3
  12   5 -19 75.8590 29.5287   2
  12   5 -20-25.3550 42.7951   3
  12   5 -20-13.8554 20.0733   2
  12   5 -21 59.8837 51.6797   3
  12   5 -21 69.7537 29.4169   2
  12   5 -22-17.3797 42.7603   3
  12   5 -22 21.1150 21.7956   2
  12   5 -23 61.7205 43.4971   3
  12   5 -23-7.11093 20.6030   2
  12   5 -24 134.401 81.3129   3
  12   5 -24 201.387 69.4795   2
  12   5 -25 109.309 64.3357   3
  12   5 -25 152.959 54.9472   2
  12   5 -26-37.0513 43.0713   3
  12   5 -26-7.38407 23.2050   2
  12   5 -27 253.878 98.3615   3
   6 -12   0 692.793 237.450   6
   6 -12   1-48.7659 46.1856   6
   6 -12   2 157.963 70.2640   6
  12   6 -18 89.4598 51.9227   3
  12   6 -19-16.4215 44.1974   3
  12   6 -20 99.6746 73.1368   3
  12   6 -20 220.788 65.2990   2
  12   6 -21-50.4699 43.4561   3
  12   6 -21-14.3208 22.1719   2
  12   6 -22 17.0900 45.9263   3
  12   6 -22 21.6347 20.1533   2
  12   6 -23-26.0268 43.8064   3
  12   6 -23 7.27603 23.9307   2
  12   6 -24 26.4376 43.5793   3
  12   6 -24-44.0995 25.5750   2
  12   6 -25-44.8026 47.7051   3
  12   6 -25-22.3026 24.2052   2
  12   6 -26 136.758 80.9359   3
  12   6 -26 240.890 75.4672   2
  12   6 -27-46.2606 44.0827   3
   7 -12   0-10.0013 49.7720   6
   7 -12  -1 197.671 82.4368   6
   7 -12  -2 9.75583 44.5870   6
  12   7 -18 7.98084 40.3780   3
  12   7 -19 290.331 108.600   3
  12   7 -20-16.3201 41.7718   3
  12   7 -21 223.699 90.4282   3
  12   7 -21 235.577 81.9148   2
  12   7 -22 25.2178 43.2419   3
  12   7 -22-22.2083 21.9284   2
  12   7 -23 42.6750 42.6916   3
  12   7 -23 37.2894 24.7911   2
  12   7 -24-60.7373 44.5604   3
  12   7 -24 37.6152 21.7856   2
  12   7 -25 88.1975 48.8127   3
  12   7 -25 30.3910 27.2948   2
  12   7 -26 8.95359 39.5205   3
  12   7 -26 7.68377 24.0773   2
   8 -12  -3-50.2511 48.7540   6
  12   8 -17-23.2807 45.4061   3
  12   8 -18 78.3394 49.7846   3
  12   8 -19-7.92127 41.7755   3
  12   8 -20 385.089 138.291   3
  12   8 -21 65.1921 48.4235   3
  12   8 -22 24.8170 45.7878   3
  12   8 -22 38.0661 24.9537   2
  12   8 -23 25.2036 39.3247   3
  12   8 -23-7.65758 20.9848   2
  12   8 -24-42.7053 39.5046   3
  12   8 -24 38.5552 22.6964   2
  12   8 -25 17.3743 38.9512   3
  12   8 -25-23.3339 21.5503   2
  12   8 -26 17.6359 41.4061   3
  12   9 -17 15.2214 39.9760   3
  12   9 -18-23.0747 39.9908   3
  12   9 -19 77.8490 48.4442   3
  12   9 -20 31.6196 40.6308   3
  12   9 -21 8.02093 37.8540   3
  12   9 -22 114.027 59.3966   3
  12   9 -23-7.87315 22.7156   2
  12   9 -23 24.8350 40.8843   3
  12   9 -24-15.8338 22.9851   2
  12   9 -24 58.9236 41.4147   3
  12   9 -25 31.8848 22.5920   2
  12   9 -25-8.56377 40.2474   3
  12  10 -16 66.5881 47.4106   3
  12  10 -17 67.2503 49.6271   3
  12  10 -18 30.2424 40.0650   3
  12  10 -19-7.65786 41.7705   3
  12  10 -20 46.6973 42.4373   3
  12  10 -24 65.1395 32.7678   2
  13  -6 -17-80.5999 58.2010   3
  13  -6 -18 111.412 63.1069   3
  13  -6 -19 81.6715 58.9748   3
  13  -6 -20 30.9488 54.9946   3
  13  -6 -21 83.7033 60.6923   3
  13  -6 -22 95.4918 66.5997   3
  13  -6 -23 6.24768 15.9427   2
  13  -6 -23 10.7770 50.1511   3
  13  -6 -24 126.739 48.2392   2
  13  -6 -24 153.414 75.7687   3
  13  -6 -25 102.965 40.6045   2
  13  -6 -25 111.554 65.6051   3
  13  -6 -26 58.8782 32.5331   2
  13  -6 -26 158.705 62.5994   3
  13  -6 -27 93.1343 44.5700   2
  13  -6 -27 196.478 67.5866   3
  13  -5 -18-40.4369 53.3057   3
  13  -5 -19 61.0631 59.0012   3
  13  -5 -20 41.0783 52.2287   3
  13  -5 -21 103.837 63.6851   3
  13  -5 -22-10.5373 54.3900   3
  13  -5 -22-6.23030 18.9775   2
  13  -5 -23 181.732 70.2940   3
  13  -5 -23 82.0751 38.1742   2
  13  -5 -24 108.573 63.4492   3
  13  -5 -24 102.484 40.9072   2
  13  -5 -25 121.447 61.6781   3
  13  -5 -25 91.0578 38.9312   2
  13  -5 -26 257.863 77.6774   3
  13  -5 -26 138.790 58.8041   2
  13  -5 -27 102.771 55.8336   3
  13  -5 -27-6.72385 20.2875   2
  13  -4 -18 40.2866 54.6720   3
  13  -4 -19-20.2499 54.7610   3
  13  -4 -20-81.6381 63.4296   3
  13  -4 -21 103.089 64.6079   3
  13  -4 -22 52.2393 55.5245   3
  13  -4 -22 69.3596 29.2712   2
  13  -4 -23 137.678 69.7361   3
  13  -4 -23 89.4204 42.2415   2
  13  -4 -24 64.4950 51.8881   3
  13  -4 -24-6.48030 17.4944   2
  13  -4 -25 76.4580 64.6194   3
  13  -4 -25 131.585 46.5215   2
  13  -4 -26 11.1047 50.3405   3
  13  -4 -26 6.68644 18.4544   2
  13  -4 -27 191.635 84.1110   3
  13  -3 -19-20.1022 54.6185   3
  13  -3 -20 70.8651 58.4897   3
  13  -3 -21-20.4350 49.2105   3
  13  -3 -21-12.6339 14.8382   2
  13  -3 -22 196.580 72.4204   3
  13  -3 -22 108.631 45.8762   2
  13  -3 -23 31.4355 56.4496   3
  13  -3 -23 32.3569 20.9572   2
  13  -3 -24-31.8854 53.0711   3
  13  -3 -24 6.56395 18.2818   2
  13  -3 -25-21.5785 52.4503   3
  13  -3 -25-6.66245 21.2743   2
  13  -3 -26 175.398 66.2141   3
  13  -3 -26 94.7857 43.3056   2
  13  -3 -27 77.8673 49.8736   3
  13  -3 -27 6.88247 22.6444   2
  13  -2 -19 358.550 135.037   3
  13  -2 -20 20.0433 54.7132   3
  13  -2 -21 414.404 163.962   3
  13  -2 -21 468.119 155.262   2
  13  -2 -22-20.4294 53.3052   3
  13  -2 -22-6.48243 18.2936   2
  13  -2 -23 176.052 67.9699   3
  13  -2 -23 91.8891 41.1365   2
  13  -2 -24-31.4764 52.6812   3
  13  -2 -24 6.65488 23.4986   2
  13  -2 -25-10.6490 49.5774   3
  13  -2 -25 13.5048 21.4992   2
  13  -2 -26 21.6252 50.8367   3
  13  -2 -26 13.7184 20.0916   2
  13  -2 -27-32.9632 51.9143   3
  13  -1 -19-19.6959 51.7275   3
  13  -1 -20 554.646 196.756   3
  13  -1 -21 9.98418 51.2892   3
  13  -1 -21 19.5535 19.0852   2
  13  -1 -22 837.053 274.333   3
  13  -1 -22 783.682 267.873   2
  13  -1 -23 10.2191 53.3012   3
  13  -1 -23 6.66474 16.9959   2
  13  -1 -24 155.291 86.5387   3
  13  -1 -24 189.120 67.1224   2
  13  -1 -25 41.9929 51.5491   3
  13  -1 -25-13.7068 22.2585   2
  13  -1 -26-10.6576 49.2356   3
  13  -1 -26 6.95616 20.4146   2
  13  -1 -27-21.6516 47.5338   3
  13   0 -19 1137.18 385.367   3
  13   0 -20-9.77265 50.7635   3
  13   0 -21 856.859 368.285   3
  13   0 -21 1193.87 364.692   2
  13   0 -22-39.7805 57.0333   3
  13   0 -22-6.69958 19.8149   2
  13   0 -23 594.354 224.541   3
  13   0 -23 664.064 217.999   2
  13   0 -24 51.0085 55.8473   3
  13   0 -24 61.7700 34.4814   2
  13   0 -25 206.818 61.5266   3
  13   0 -25 20.8731 28.3740   2
  13   0 -26 52.4682 52.1361   3
  13   0 -26-7.06073 22.6753   2
  13   0 -27 42.6187 52.7164   3
  13   1 -19 38.2998 54.3642   3
  13   1 -20 943.704 320.778   3
  13   1 -21-19.4066 55.8031   3
  13   1 -21 67.6135 25.7582   2
  13   1 -22 519.053 242.318   3
  13   1 -22 784.606 238.115   2
  13   1 -23 29.7644 49.8153   3
  13   1 -23-6.89812 17.0300   2
  13   1 -24 100.416 82.3051   3
  13   1 -24 209.394 68.2338   2
  13   1 -25 30.5276 50.5300   3
  13   1 -25-7.07369 20.3978   2
  13   1 -26-10.3233 54.2443   3
  13   1 -26-14.3426 22.4505   2
  13   2 -19 357.925 131.767   3
  13   2 -20-18.9481 51.2408   3
  13   2 -21 496.437 175.416   3
  13   2 -22-28.9157 49.0761   3
  13   2 -23 117.127 65.4455   3
  13   2 -24-69.1442 61.8429   3
  13   2 -25 70.0834 55.3922   3
  13   2 -26-71.0587 58.1607   3
   3 -13  11 31.7340 47.1048   6
  13   3 -19 27.7656 50.5263   3
  13   3 -20 186.230 78.2816   3
  13   3 -21-37.5390 50.0760   3
  13   3 -21 28.2097 20.1170   2
  13   3 -22 94.7312 58.9794   3
  13   3 -22 85.2682 36.1235   2
  13   3 -23 28.7801 52.2356   3
  13   3 -23-7.16910 23.2709   2
  13   3 -24 29.1364 48.6440   3
  13   3 -24 28.9779 25.6878   2
  13   3 -25-49.1991 49.1828   3
  13   3 -25 21.9828 19.7899   2
  13   3 -26 139.710 68.6790   3
   4 -13   8 83.5367 55.0868   6
  13   4 -19 36.3423 51.1404   3
  13   4 -20 18.2837 48.7365   3
  13   4 -21 110.600 61.0318   3
  13   4 -22-18.6181 51.1011   3
  13   4 -22 79.9199 28.6090   2
  13   4 -23 66.0016 53.7391   3
  13   4 -23 7.32241 25.7796   2
  13   4 -24 66.7980 52.9060   3
  13   4 -24 44.3523 26.7463   2
  13   4 -25 135.359 79.1232   3
  13   4 -25 201.667 67.7694   2
  13   4 -26-9.80541 45.9870   3
   5 -13   5 134.799 64.3980   6
   5 -13   6 125.787 63.2156   6
  13   5 -19 53.4658 49.0390   3
  13   5 -20 8.97101 45.8762   3
  13   5 -21 72.3871 52.9174   3
  13   5 -22-9.14143 48.0400   3
  13   5 -22 37.2049 24.1614   2
  13   5 -23 74.0928 66.9826   3
  13   5 -23 149.808 50.4729   2
  13   5 -24 84.3773 54.3301   3
  13   5 -24 60.4194 31.8415   2
  13   5 -25 114.003 51.1854   3
  13   5 -25 30.4919 28.6124   2
  13   6 -19 26.2077 44.0021   3
  13   6 -20-8.80058 47.7796   3
  13   6 -21 71.0512 52.1508   3
  13   6 -22 35.8952 47.0823   3
  13   6 -23-9.09504 47.3645   3
  13   6 -23 23.0138 21.4644   2
  13   6 -24 82.9136 69.6495   3
  13   6 -24 193.128 59.5618   2
  13   6 -25 9.33764 41.5284   3
  13   7 -19 51.3720 48.8122   3
  13   7 -20 129.478 62.5433   3
  13   7 -21 61.0166 49.3051   3
  13   7 -22 44.1281 46.6717   3
  13   7 -23 44.6668 45.8159   3
  13   7 -24 7.91358 19.7279   2
  13   7 -24 9.05221 42.7032   3
  13   7 -25 91.7606 53.5163   3
  13   8 -19 92.3242 56.9401   3
  13   8 -20-25.4059 45.1451   3
  13   8 -21 196.787 82.6015   3
  13   8 -22-8.67005 44.1017   3
  13   8 -23 8.77850 41.6861   3
  13   8 -24 62.2722 48.7709   3
  13   9 -19-24.6951 45.3545   3
  13   9 -20 132.977 64.5636   3
  13   9 -21 50.5035 45.0329   3
  13   9 -22 17.0420 43.8495   3
  13   9 -23-8.63173 42.2293   3
  13   9 -24 43.7471 42.9405   3
  13  10 -20-32.6526 47.1382   3
  14  -6 -19 109.514 68.6344   3
  14  -6 -20 55.0996 63.7879   3
  14  -6 -21 277.794 111.679   3
  14  -6 -22 22.4937 56.9614   3
  14  -6 -23 273.136 112.246   3
  14  -6 -24 80.7121 62.0366   3
  14  -6 -25 23.3955 55.9544   3
  14  -6 -26 118.818 67.2921   3
  14  -5 -19 98.3186 64.8545   3
  14  -5 -20 109.784 71.1887   3
  14  -5 -21-55.2921 63.4792   3
  14  -5 -22 178.811 86.8175   3
  14  -5 -23 11.2954 54.6175   3
  14  -5 -24 343.045 132.686   3
  14  -5 -25 57.9420 60.3643   3
  14  -5 -26 94.0681 66.2131   3
  14  -4 -19 43.4789 57.8841   3
  14  -4 -20 32.7416 58.1803   3
  14  -4 -21 21.9630 56.8061   3
  14  -4 -22-22.1420 55.1550   3
  14  -4 -23 44.7921 59.6324   3
  14  -4 -24 45.2952 57.8979   3
  14  -4 -25 41.1970 24.0772   2
  14  -4 -25 57.3259 54.2698   3
  14  -3 -20-43.3074 55.3569   3
  14  -3 -21 32.6535 58.8660   3
  14  -3 -22 10.9606 55.4538   3
  14  -3 -23-33.2491 53.9647   3
  14  -3 -24 33.5948 55.1593   3
  14  -3 -25 102.001 64.0939   3
  14  -3 -25 83.4472 36.0993   2
  14  -2 -20 364.311 136.740   3
  14  -2 -21 21.5300 53.3305   3
  14  -2 -22 292.642 117.469   3
  14  -2 -23-87.5896 70.2153   3
  14  -2 -24-11.0592 55.0936   3
  14  -2 -24-13.9375 19.2235   2
  14  -2 -25 22.3635 52.6424   3
  14  -2 -25-7.04821 18.9217   2
  14  -1 -20 63.5145 60.8619   3
  14  -1 -21 116.935 68.0997   3
  14  -1 -22-10.6982 58.8951   3
  14  -1 -23 75.5074 59.9486   3
  14  -1 -24-21.8086 53.3338   3
  14  -1 -24-7.07419 21.0100   2
  14  -1 -25-33.0753 52.4215   3
  14  -1 -25 35.7625 22.5303   2
  14   0 -20 594.953 208.147   3
  14   0 -21 62.8796 59.7463   3
  14   0 -22 105.438 69.2658   3
  14   0 -23-42.4962 55.4595   3
  14   0 -24-32.2232 59.0449   3
  14   0 -24 28.7644 19.8148   2
  14   0 -25 10.8562 53.4188   3
  14   1 -20 10.2762 52.2716   3
  14   1 -21 309.505 118.101   3
  14   1 -22 10.3787 55.2783   3
  14   1 -23 41.8250 58.3386   3
  14   1 -24 84.5559 56.8542   3
  14   1 -24-7.31598 19.6077   2
  14   1 -25 42.7065 53.1229   3
  14   2 -20 222.188 92.0002   3
  14   2 -21-50.7022 51.1783   3
  14   2 -22 132.621 74.8329   3
  14   2 -23 71.9447 60.1155   3
  14   2 -24-20.7769 53.4594   3
  14   2 -25-20.9851 55.6638   3
  14   3 -21-19.9142 50.4292   3
  14   3 -22-20.0306 52.8700   3
  14   3 -23-10.0945 50.5162   3
  14   3 -24 10.2003 52.1626   3
  14   4 -21 29.2961 52.3109   3
  14   4 -22 9.82977 51.0602   3
  14   4 -23 79.2492 57.4627   3
  14   4 -24-40.0437 49.2502   3
  14   5 -21 38.2939 50.2286   3
  14   5 -22 96.3621 59.7497   3
  14   5 -23 9.71782 46.9893   3
  14   5 -24 196.463 84.5029   3
  14   6 -21 281.377 106.913   3
  14   6 -22 37.7895 48.3038   3
  14   6 -23 104.990 60.9364   3
  14   7 -22 120.385 63.9658   3
  14   7 -23-28.0811 45.8423   3
  14   8 -22 154.335 71.8295   3
  14   8 -23 73.4381 55.3978   3
  14   9 -22 8.91922 42.6138   3
  15  -6 -22 166.633 84.7400   3
  15  -6 -23-24.0557 56.8326   3
  15  -6 -24 97.1669 70.1639   3
  15  -5 -22-23.6716 64.3166   3
  15  -5 -23 143.314 77.5712   3
  15  -5 -24-12.0510 58.6152   3
  15  -4 -22 11.7461 60.3847   3
  15  -4 -23 23.6494 57.9152   3
  15  -4 -24 83.5593 66.6383   3
  15  -3 -23 11.7034 58.8903   3
  15  -3 -24 94.4444 67.6295   3
  15  -2 -23 11.5592 57.2025   3
  15  -2 -24-34.9776 63.9453   3
  15  -1 -23-11.3998 56.4132   3
  15   0 -23-11.2264 57.4100   3
  15   1 -23 11.0411 57.9383   3
  15   2 -23-65.0579 63.1196   3
   0   0   0    0.00    0.00   0

TITL GKME_3_ in P4/mnc
REM P4/mnc (#128 in standard setting)
CELL 0.68890  19.079140  19.093100  32.905490  90.0914  90.0108  90.0380
ZERR   16.00   0.002970   0.002760   0.005130   0.0124   0.0130   0.0133
LATT  1
SYMM -x,-y, z
SYMM -y, x, z
SYMM  y,-x, z
SYMM -x+1/2, y+1/2,-z+1/2
SYMM  x+1/2,-y+1/2,-z+1/2
SYMM  y+1/2, x+1/2,-z+1/2
SYMM -y+1/2,-x+1/2,-z+1/2
SFAC C H O Hf
UNIT 704.00 576.00 128.00 16.00
TREF
HKLF 4
END
;
_shelx_hkl_checksum              49302
_shelx_shelxl_version_number     2014/7
_olex2_submission_special_instructions 'No special instructions were received'
_oxdiff_diffrn_reflns_filtered   10253
_oxdiff_exptl_absorpt_empirical_details
;
Empirical correction (ABSPACK) includes:
- Absorption correction using spherical harmonics
- Frame scaling
;
_oxdiff_exptl_absorpt_empirical_full_max 1.686
_oxdiff_exptl_absorpt_empirical_full_min 0.644
loop_
_space_group_symop_operation_xyz
'x, y, z'
'-x, -y, z'
'-y, x, z'
'y, -x, z'
'-x+1/2, y+1/2, -z+1/2'
'x+1/2, -y+1/2, -z+1/2'
'y+1/2, x+1/2, -z+1/2'
'-y+1/2, -x+1/2, -z+1/2'
'-x, -y, -z'
'x, y, -z'
'y, -x, -z'
'-y, x, -z'
'x-1/2, -y-1/2, z-1/2'
'-x-1/2, y-1/2, z-1/2'
'-y-1/2, -x-1/2, z-1/2'
'y-1/2, x-1/2, z-1/2'
loop_
_atom_site_label
_atom_site_type_symbol
_atom_site_fract_x
_atom_site_fract_y
_atom_site_fract_z
_atom_site_U_iso_or_equiv
_atom_site_adp_type
_atom_site_occupancy
_atom_site_site_symmetry_order
_atom_site_calc_flag
_atom_site_refinement_flags_posn
_atom_site_refinement_flags_adp
_atom_site_refinement_flags_occupancy
_atom_site_disorder_assembly
_atom_site_disorder_group
Hf1 Hf -0.04337(7) 0.12279(6) 0.0000 0.0482(4) Uani 1 2 d DS TU P . .
Hf2 Hf 0.0000 0.0000 0.07426(3) 0.0444(5) Uani 1 4 d DS TU P . .
O1 O -0.0257(4) 0.08974(18) 0.10993(17) 0.0349(19) Uiso 1 1 d D U . . .
O4 O -0.0862(7) 0.0303(6) 0.03494(18) 0.0325(19) Uiso 1 1 d . U . . .
O13 O -0.0558(8) 0.1653(6) 0.05866(9) 0.058(3) Uiso 1 1 d D U . . .
O19 O -0.1498(10) 0.1642(10) 0.0000 0.043(3) Uiso 1 2 d S TU P . .
O20 O 0.0054(10) 0.2240(10) 0.0000 0.047(3) Uiso 1 2 d S TU P . .
C3 C -0.07513(2) 0.31078(5) 0.19020(4) 0.076(5) Uiso 1 1 d D U . . .
C4 C -0.09055(7) 0.32616(11) 0.14988(6) 0.104(6) Uiso 1 1 d D U . . .
H4 H -0.1050 0.3710 0.1427 0.125 Uiso 1 1 calc R . . . .
C5 C -0.08434(6) 0.27460(9) 0.12025(6) 0.083(5) Uiso 1 1 d D U . . .
H5 H -0.0947 0.2850 0.0933 0.100 Uiso 1 1 calc R . . . .
C6 C -0.06266(2) 0.20748(5) 0.13094(4) 0.070(4) Uiso 1 1 d D U . . .
C7 C -0.04724(9) 0.19211(11) 0.17125(6) 0.057(4) Uiso 1 1 d D U . . .
H7 H -0.0327 0.1472 0.1784 0.068 Uiso 1 1 calc R . . . .
C8 C -0.05345(6) 0.24367(9) 0.20087(6) 0.109(7) Uiso 1 1 d D U . . .
H8 H -0.0431 0.2333 0.2278 0.131 Uiso 1 1 calc R . . . .
C9 C -0.08155(2) 0.36337(4) 0.22008(2) 0.064(4) Uiso 1 1 d D U . . .
C16 C -0.03122(3) 0.41580(4) 0.21715(3) 0.057(7) Uiso 0.5 1 d DG U . A -2
C15 C -0.03383(5) 0.47323(5) 0.24311(5) 0.013(5) Uiso 0.5 1 d DG U . A .
C10 C -0.13449(3) 0.36836(5) 0.24896(2) 0.099(9) Uiso 0.5 1 d DG U . A -1
C11 C -0.18652(8) 0.31413(8) 0.25199(6) 0.119(13) Uiso 0.5 1 d D U . A -1
H11A H -0.2070 0.3149 0.2786 0.178 Uiso 0.5 1 calc GR . . A -1
H11B H -0.1650 0.2694 0.2474 0.178 Uiso 0.5 1 calc GR . . A -1
H11C H -0.2223 0.3219 0.2320 0.178 Uiso 0.5 1 calc GR . . A -1
C12 C -0.05629(3) 0.15502(8) 0.10099(6) 0.065(4) Uiso 1 1 d D U . . .
C17 C 0.02261(5) 0.41781(6) 0.19082(3) 0.089(7) Uiso 1 1 d D U . A -2
H H 0.0598 0.3883 0.2005 0.133 Uiso 1 1 calc GR . . . .
HA H 0.0393 0.4651 0.1884 0.133 Uiso 1 1 calc GR . . . .
HB H 0.0072 0.4015 0.1647 0.133 Uiso 1 1 calc GR . . . .
loop_
_atom_site_aniso_label
_atom_site_aniso_U_11
_atom_site_aniso_U_22
_atom_site_aniso_U_33
_atom_site_aniso_U_23
_atom_site_aniso_U_13
_atom_site_aniso_U_12
Hf1 0.0600(9) 0.0297(8) 0.0548(3) 0.000 0.000 0.0060(7)
Hf2 0.0450(7) 0.0450(7) 0.0431(4) 0.000 0.000 0.000
loop_
_atom_type_symbol
_atom_type_description
_atom_type_scat_dispersion_real
_atom_type_scat_dispersion_imag
_atom_type_scat_source
C C 0.0030 0.0010 'International Tables Vol C Tables 4.2.6.8 and 6.1.1.4'
H H 0.0000 0.0000 'International Tables Vol C Tables 4.2.6.8 and 6.1.1.4'
Hf Hf -0.2930 6.1080 'International Tables Vol C Tables 4.2.6.8 and 6.1.1.4'
O O 0.0110 0.0060 'International Tables Vol C Tables 4.2.6.8 and 6.1.1.4'
loop_
_geom_angle_atom_site_label_1
_geom_angle_atom_site_label_2
_geom_angle_atom_site_label_3
_geom_angle
_geom_angle_site_symmetry_1
_geom_angle_site_symmetry_3
Hf1 Hf1 Hf1 90.0 11 3
Hf2 Hf1 Hf1 59.726(11) . 3
Hf2 Hf1 Hf2 89.05(4) 9 .
O4 Hf1 Hf1 89.4(3) . 11
O4 Hf1 Hf2 85.3(2) 10 .
O4 Hf1 O4 71.3(6) 4 .
O4 Hf1 O4 61.2(4) 10 .
O4 Hf1 O4 106.4(6) 11 .
O4 Hf1 O13 139.5(5) 11 .
O4 Hf1 O13 71.2(4) 4 .
O4 Hf1 O19 143.5(3) 4 .
O4 Hf1 O20 90.5(6) 4 .
O13 Hf1 Hf1 107.4(3) . 3
O13 Hf1 Hf1 105.5(4) . 11
O13 Hf1 Hf2 158.1(3) . 9
O13 Hf1 Hf2 69.1(3) . .
O13 Hf1 O4 78.1(4) . .
O13 Hf1 O4 136.6(4) 10 .
O13 Hf1 O13 132.7(6) . 10
O13 Hf1 O19 75.8(4) . .
O13 Hf1 O20 72.7(4) . .
O19 Hf1 Hf1 85.7(5) . 3
O19 Hf1 Hf1 175.7(5) . 11
O19 Hf1 Hf2 117.7(3) . .
O19 Hf1 O4 86.9(5) . .
O20 Hf1 Hf1 179.8(5) . 3
O20 Hf1 Hf1 89.8(5) . 11
O20 Hf1 Hf2 120.2(3) . .
O20 Hf1 O4 149.4(2) . .
O20 Hf1 O19 94.5(7) . .
Hf1 Hf2 Hf1 90.95(4) 9 .
Hf1 Hf2 Hf1 60.55(2) 3 .
O1 Hf2 Hf1 168.54(14) . 9
O1 Hf2 Hf1 110.48(16) . 11
O1 Hf2 Hf1 114.95(17) 4 .
O1 Hf2 Hf1 114.95(17) . 3
O1 Hf2 Hf1 110.48(16) 3 .
O1 Hf2 Hf1 168.54(14) 2 .
O1 Hf2 Hf1 77.97(14) . .
O1 Hf2 O1 113.2(3) . 2
O1 Hf2 O1 72.38(13) . 4
O1 Hf2 O4 86.6(3) . .
O1 Hf2 O4 77.4(3) 3 .
O1 Hf2 O4 77.4(3) . 4
O1 Hf2 O4 135.7(3) . 2
O1 Hf2 O4 151.0(3) 4 .
O1 Hf2 O4 151.0(3) . 3
O1 Hf2 O4 135.7(3) 2 .
O4 Hf2 Hf1 91.6(3) 3 .
O4 Hf2 Hf1 91.6(3) . 11
O4 Hf2 Hf1 30.2(3) 3 9
O4 Hf2 Hf1 39.0(3) . .
O4 Hf2 Hf1 86.6(2) 4 3
O4 Hf2 Hf1 86.6(2) . 9
O4 Hf2 Hf1 30.2(3) . 3
O4 Hf2 Hf1 30.2(3) 4 .
O4 Hf2 O4 69.2(2) 3 .
O4 Hf2 O4 106.8(5) 2 .
O4 Hf2 O4 69.2(2) 4 .
C12 O1 Hf2 133.7(4) . .
Hf1 O4 Hf1 113.2(3) 3 .
Hf1 O4 Hf2 115.6(5) 3 .
Hf2 O4 Hf1 103.7(5) . .
C12 O13 Hf1 148.7(7) . .
C4 C3 C8 119.88(14) . .
C4 C3 C9 119.80(11) . .
C8 C3 C9 120.32(13) . .
C3 C4 H4 119.9 . .
C5 C4 C3 120.13(17) . .
C5 C4 H4 119.9 . .
C4 C5 H5 120.0 . .
C4 C5 C6 119.97(17) . .
C6 C5 H5 120.0 . .
C5 C6 C12 120.16(14) . .
C7 C6 C5 119.89(15) . .
C7 C6 C12 119.94(13) . .
C6 C7 H7 119.9 . .
C8 C7 C6 120.13(17) . .
C8 C7 H7 119.9 . .
C3 C8 H8 120.0 . .
C7 C8 C3 119.99(17) . .
C7 C8 H8 120.0 . .
C16 C9 C3 113.8 . .
C10 C9 C3 126.1 . .
C15 C16 C9 120.0 . .
C17 C16 C9 126.36(7) . .
C17 C16 C15 113.63(7) . .
C16 C15 C15 132.60(10) . 8
C9 C10 C11 120.00(9) . .
C10 C11 H11A 109.5 . .
C10 C11 H11B 109.5 . .
C10 C11 H11C 109.5 . .
H11A C11 H11B 109.5 . .
H11A C11 H11C 109.5 . .
H11B C11 H11C 109.5 . .
O1 C12 C6 121.2(3) . .
O13 C12 O1 109.1(5) . .
O13 C12 C6 126.4(5) . .
C16 C17 H 109.5 . .
C16 C17 HA 109.5 . .
C16 C17 HB 109.5 . .
H C17 HA 109.5 . .
H C17 HB 109.5 . .
HA C17 HB 109.5 . .
loop_
_geom_bond_atom_site_label_1
_geom_bond_atom_site_label_2
_geom_bond_distance
_geom_bond_site_symmetry_2
Hf1 Hf1 3.5137(18) 3
Hf1 Hf2 3.4849(11) .
Hf1 O4 1.945(10) 4
Hf1 O4 2.259(10) .
Hf1 O13 2.107(5) .
Hf1 O19 2.180(19) .
Hf1 O20 2.14(2) .
Hf2 O1 2.133(4) .
Hf2 O4 2.171(11) .
O1 C12 1.407(4) .
O13 C12 1.407(4) .
C3 C4 1.390(2) .
C3 C8 1.3908(19) .
C3 C9 1.4102(14) .
C4 H4 0.9300 .
C4 C5 1.390(3) .
C5 H5 0.9300 .
C5 C6 1.391(2) .
C6 C7 1.390(2) .
C6 C12 1.410(2) .
C7 H7 0.9300 .
C7 C8 1.390(3) .
C8 H8 0.9300 .
C9 C16 1.3900 .
C9 C10 1.3900 .
C16 C15 1.3900 .
C10 C11 1.4373(15) .
C11 H11A 0.9600 .
C11 H11B 0.9600 .
C11 H11C 0.9600 .
C17 H 0.9600 .
C17 HA 0.9600 .
C17 HB 0.9600 .
loop_
_geom_torsion_atom_site_label_1
_geom_torsion_atom_site_label_2
_geom_torsion_atom_site_label_3
_geom_torsion_atom_site_label_4
_geom_torsion
Hf1 O13 C12 O1 14(2)
Hf1 O13 C12 C6 174.0(13)
Hf2 O1 C12 O13 -14.5(9)
Hf2 O1 C12 C6 -175.4(3)
C3 C4 C5 C6 -0.01(18)
C3 C9 C16 C15 176.07(6)
C3 C9 C16 C17 -3.92(9)
C3 C9 C10 C11 4.46(12)
C4 C3 C8 C7 -0.01(15)
C4 C3 C9 C16 -69.93(8)
C4 C3 C9 C10 105.86(9)
C4 C5 C6 C7 0.00(16)
C4 C5 C6 C12 180.00(10)
C5 C6 C7 C8 0.00(18)
C5 C6 C12 O1 171.4(3)
C5 C6 C12 O13 14.0(8)
C6 C7 C8 C3 0.01(19)
C7 C6 C12 O1 -8.6(3)
C7 C6 C12 O13 -166.0(8)
C8 C3 C4 C5 0.01(16)
C8 C3 C9 C16 110.06(7)
C8 C3 C9 C10 -74.15(7)
C9 C3 C4 C5 180.00(9)
C9 C3 C8 C7 180.00(10)
C12 C6 C7 C8 180.00(10)
