#------------------------------------------------------------------------------
#$Date: 2019-11-25 22:32:00 +0200 (Mon, 25 Nov 2019) $
#$Revision: 241968 $
#$URL: file:///home/coder/svn-repositories/cod/cif/4/13/18/4131860.cif $
#------------------------------------------------------------------------------
#
# This file is available in the Crystallography Open Database (COD),
# http://www.crystallography.net/
#
# All data on this site have been placed in the public domain by the
# contributors.
#
data_4131860
loop_
_publ_author_name
'Yan, Yong'
'O'Connor, Alice E'
'Kanthasamy, Gopikkaa'
'Atkinson, George'
'Allan, David R.'
'Blake, Alexander J.'
'Schr\"oder, Martin'
_publ_section_title
;
 Unusual and Tunable Negative Linear Compressibility in the Metal-Organic
 Framework MFM-133(M) (M = Zr, Hf).
;
_journal_issue                   11
_journal_name_full               'Journal of the American Chemical Society'
_journal_page_first              3952
_journal_page_last               3958
_journal_paper_doi               10.1021/jacs.7b11747
_journal_volume                  140
_journal_year                    2018
_chemical_formula_moiety         '0.25(C184 H136 O64 Zr12)'
_chemical_formula_sum            'C46 H34 O16 Zr3'
_chemical_formula_weight         1116.39
_space_group_crystal_system      tetragonal
_space_group_IT_number           128
_space_group_name_Hall           '-P 4 2n'
_space_group_name_H-M_alt        'P 4/m n c'
_atom_sites_solution_hydrogens   geom
_atom_sites_solution_primary     direct
_audit_creation_date             2016-08-31
_audit_creation_method
;
Olex2 1.2
(compiled 2016.08.25 svn.r3337 for OlexSys, GUI svn.r5221)
;
_cell_angle_alpha                90
_cell_angle_beta                 90
_cell_angle_gamma                90
_cell_formula_units_Z            4
_cell_length_a                   19.0042(19)
_cell_length_b                   19.0042(19)
_cell_length_c                   33.152(7)
_cell_measurement_reflns_used    1346
_cell_measurement_temperature    293.15
_cell_measurement_theta_max      22.0220
_cell_measurement_theta_min      2.0560
_cell_volume                     11973(3)
_computing_cell_refinement
;
CrysAlisPro, Agilent Technologies,
Version 1.171.37.34 (release 22-05-2014 CrysAlis171 .NET)
(compiled May 22 2014,16:03:01)
;
_computing_data_collection
;
CrysAlisPro, Agilent Technologies,
Version 1.171.37.34 (release 22-05-2014 CrysAlis171 .NET)
(compiled May 22 2014,16:03:01)
;
_computing_data_reduction
;
CrysAlisPro, Agilent Technologies,
Version 1.171.37.34 (release 22-05-2014 CrysAlis171 .NET)
(compiled May 22 2014,16:03:01)
;
_computing_molecular_graphics    'Olex2 (Dolomanov et al., 2009)'
_computing_publication_material  'Olex2 (Dolomanov et al., 2009)'
_computing_structure_refinement  'ShelXL (Sheldrick, 2015)'
_computing_structure_solution    'ShelXS (Sheldrick, 2008)'
_diffrn_ambient_temperature      293.15
_diffrn_detector                 Dectris
_diffrn_detector_area_resol_mean 5.81395
_diffrn_detector_type            'Pilatus 300K detector'
_diffrn_measured_fraction_theta_full 0.766
_diffrn_measured_fraction_theta_max 0.766
_diffrn_measurement_details
;
#__ type_ start__ end____ width___ exp.time_
  1 omega -105.00  -74.00   0.2000    0.9970
omega____ theta____ kappa____ phi______ frames
    -       20.0000   70.0000  155.7700 155

#__ type_ start__ end____ width___ exp.time_
  2 omega -105.00  -74.00   0.2000    0.9970
omega____ theta____ kappa____ phi______ frames
    -       20.0000   70.0000  -24.2300 155

#__ type_ start__ end____ width___ exp.time_
  3 omega -106.00  -66.00   0.2000    0.9970
omega____ theta____ kappa____ phi______ frames
    -      -20.0000  -70.0000 -155.7700 200

#__ type_ start__ end____ width___ exp.time_
  4 omega -106.00  -66.00   0.2000    0.9970
omega____ theta____ kappa____ phi______ frames
    -      -20.0000  -70.0000   24.2300 200

#__ type_ start__ end____ width___ exp.time_
  5 omega -150.00  -94.00   0.2000    0.9970
omega____ theta____ kappa____ phi______ frames
    -      -20.0000   70.0000  -24.2319 280

#__ type_ start__ end____ width___ exp.time_
  6 omega -150.00  -94.00   0.2000    0.9970
omega____ theta____ kappa____ phi______ frames
    -      -20.0000   70.0000  155.7681 280

#__ type_ start__ end____ width___ exp.time_
  7 omega  -96.00  -30.00   0.2000    0.9970
omega____ theta____ kappa____ phi______ frames
    -       20.0000  -70.0000   24.2300 330

#__ type_ start__ end____ width___ exp.time_
  8 omega  -96.00  -30.00   0.2000    0.9970
omega____ theta____ kappa____ phi______ frames
    -       20.0000  -70.0000 -155.7700 330
;
_diffrn_measurement_device       'k-geometry diffractometer'
_diffrn_measurement_device_type
'Newport 4-circle kappa geometry diffractometer'
_diffrn_measurement_method       'oscillation method'
_diffrn_orient_matrix_UB_11      0.0025373000
_diffrn_orient_matrix_UB_12      0.0325057000
_diffrn_orient_matrix_UB_13      0.0090748000
_diffrn_orient_matrix_UB_21      -0.0174375000
_diffrn_orient_matrix_UB_22      -0.0127979000
_diffrn_orient_matrix_UB_23      0.0166801000
_diffrn_orient_matrix_UB_31      0.0316661000
_diffrn_orient_matrix_UB_32      -0.0095723000
_diffrn_orient_matrix_UB_33      0.0084798000
_diffrn_radiation_collimation    '0.5 mm pinhole'
_diffrn_radiation_monochromator  'Si 111 double-crystal monochromator'
_diffrn_radiation_probe          x-ray
_diffrn_radiation_wavelength     0.6889
_diffrn_reflns_av_R_equivalents  0.8995
_diffrn_reflns_av_unetI/netI     0.6777
_diffrn_reflns_Laue_measured_fraction_full 0.766
_diffrn_reflns_Laue_measured_fraction_max 0.766
_diffrn_reflns_limit_h_max       20
_diffrn_reflns_limit_h_min       -20
_diffrn_reflns_limit_k_max       13
_diffrn_reflns_limit_k_min       -13
_diffrn_reflns_limit_l_max       35
_diffrn_reflns_limit_l_min       -35
_diffrn_reflns_number            24580
_diffrn_reflns_point_group_measured_fraction_full 0.766
_diffrn_reflns_point_group_measured_fraction_max 0.766
_diffrn_reflns_theta_full        22.676
_diffrn_reflns_theta_max         22.676
_diffrn_reflns_theta_min         2.066
_diffrn_source                   'Synchrotron U21 undulator'
_diffrn_source_type              'Synchrotron Diamond Light Source'
_exptl_absorpt_coefficient_mu    0.262
_exptl_absorpt_correction_T_max  0.4268
_exptl_absorpt_correction_T_min  0.2309
_exptl_absorpt_correction_type   multi-scan
_exptl_absorpt_process_details
'SADABS-2014/5 (Bruker,2014/5) was used for absorption correction. wR2(int) was 0.1628 before and 0.1201 after correction. The Ratio of minimum to maximum transmission is 0.5410. The \l/2 correction factor is Not present.'
_exptl_crystal_colour            'clear colourless'
_exptl_crystal_colour_lustre     clear
_exptl_crystal_colour_primary    colourless
_exptl_crystal_density_diffrn    0.619
_exptl_crystal_description       octahedral
_exptl_crystal_F_000             2232
_exptl_crystal_size_max          0.046
_exptl_crystal_size_mid          0.046
_exptl_crystal_size_min          0.033
_refine_diff_density_max         0.584
_refine_diff_density_min         -0.586
_refine_diff_density_rms         0.089
_refine_ls_extinction_method     none
_refine_ls_goodness_of_fit_ref   1.071
_refine_ls_hydrogen_treatment    constr
_refine_ls_matrix_type           full
_refine_ls_number_parameters     155
_refine_ls_number_reflns         3450
_refine_ls_number_restraints     291
_refine_ls_restrained_S_all      1.075
_refine_ls_R_factor_all          0.3408
_refine_ls_R_factor_gt           0.1411
_refine_ls_shift/su_max          0.001
_refine_ls_shift/su_mean         0.000
_refine_ls_structure_factor_coef Fsqd
_refine_ls_weighting_details
'w=1/[\s^2^(Fo^2^)+(0.2000P)^2^] where P=(Fo^2^+2Fc^2^)/3'
_refine_ls_weighting_scheme      calc
_refine_ls_wR_factor_gt          0.3478
_refine_ls_wR_factor_ref         0.4666
_reflns_Friedel_coverage         0.000
_reflns_number_gt                859
_reflns_number_total             3450
_reflns_threshold_expression     'I > 2\s(I)'
_cod_data_source_file            ZrMOF_All.cif
_cod_data_source_block           42.8kbar
_cod_database_code               4131860
_chemical_oxdiff_formula         'C46 H42 O16 Zr3'
_shelx_space_group_comment
;
The symmetry employed for this shelxl refinement is uniquely defined
by the following loop, which should always be used as a source of
symmetry information in preference to the above space-group names.
They are only intended as comments.
;
_reflns_odcompleteness_completeness 74.77
_reflns_odcompleteness_iscentric 1
_reflns_odcompleteness_theta     22.88
_olex2_refinement_description
;
1. Fixed Uiso
 At 1.2 times of:
  All C(H) groups
 At 1.5 times of:
  All C(H,H,H) groups
2. Restrained distances
 C12-C11 = C8-C11 = C9-C8 = C5-C4 = C7-C6 = C7-C2 = C3-C2
 1.39 with sigma of 0.01
 C6-C5
 1.39 with sigma of 0.01
 C2-C1 = C8-C5 = C13-C11 = C9-C10
 1.5 with sigma of 0.01
 C12-C11 = C8-C11 = C9-C8
 1.39 with sigma of 0.01
 C5-C6
 1.39 with sigma of 0.01
 C6-C7
 1.39 with sigma of 0.01
 C7-C2
 1.39 with sigma of 0.01
 C2-C3
 1.39 with sigma of 0.01
 C3-C4
 1.39 with sigma of 0.01
 C4-C5
 1.39 with sigma of 0.01
 C12-C12_$3
 1.5 with sigma of 0.01
 C13-C11
 1.5 with sigma of 0.01
3. Restrained planarity
 C1, C2, C3, C4, C5, C6, C7, C8, C11_$1, C13_$1
 with sigma of 0.1
 C1_$1, C2_$1, C7_$1, C3_$1, C6_$1, C5_$1, C4_$1, C8_$1, C11, C13
 with sigma of 0.1
 C1_$2, C2_$2, C3_$2, C7_$2, C6_$2, C4_$2, C5_$2, C8_$2, C11_$3, C13_$3
 with sigma of 0.1
 C1_$3, C2_$3, C3_$3, C4_$3, C5_$3, C6_$3, C7_$3, C8_$3, C11_$2, C13_$2
 with sigma of 0.1
 C10, C9, C12, C12_$3, C9_$3, C10_$3
 with sigma of 0.1
4. Uiso/Uaniso restraints and constraints
All non-hydrogen atoms have similar U: within 2A with sigma of 0.02 and sigma
for terminal atoms of 0.04
5. Rigid body (RIGU) restrains
 All non-hydrogen atoms
 with sigma for 1-2 distances of 0.004 and sigma for 1-3 distances of 0.004
6. Others
 Fixed Sof: H10A(0.5) H10B(0.5) H10C(0.5)
7.a Me refined with riding coordinates:
 C10(H10A,H10B,H10C)
7.b Aromatic/amide H refined with riding coordinates:
 C3(H3), C4(H4), C7(H7), C6(H6)
7.c Idealised Me refined as rotating group:
 C13(H13A,H13B,H13C)
;
_shelx_res_file
;
    42.8kbar.res created by SHELXL-2014/7

TITL g2yy_12xnew in P4/mnc
CELL 0.6889 19.00417 19.00417 33.15248 90 90 90
ZERR 4 0.00185 0.00185 0.00718 0 0 0
LATT 1
SYMM -X,-Y,+Z
SYMM -Y,+X,+Z
SYMM +Y,-X,+Z
SYMM 0.5-X,0.5+Y,0.5-Z
SYMM 0.5+X,0.5-Y,0.5-Z
SYMM 0.5+Y,0.5+X,0.5-Z
SYMM 0.5-Y,0.5-X,0.5-Z
SFAC C H O Zr
DISP C 0.003 0.001 10.848
DISP H -0 0 0.623
DISP O 0.011 0.006 30.192
DISP Zr -11.605 0.551 2275.752
UNIT 184 136 64 12
EQIV $1 -0.5+Y,0.5+X,0.5-Z
EQIV $2 0.5-Y,0.5-X,0.5-Z
EQIV $3 -X,1-Y,+Z
DFIX 1.39 0.01 C12 C11 C8 C11 C9 C8 C5 C4 C7 C6 C7 C2 C3 C2
DFIX 1.39 0.01 C6 C5
DFIX 1.5 0.01 C2 C1 C8 C5 C13 C11 C9 C10
DFIX 1.39 0.01 C12 C11 C8 C11 C9 C8
DFIX 1.39 0.01 C5 C6
DFIX 1.39 0.01 C6 C7
DFIX 1.39 0.01 C7 C2
DFIX 1.39 0.01 C2 C3
DFIX 1.39 0.01 C3 C4
DFIX 1.39 0.01 C4 C5
DFIX 1.5 0.01 C12 C12_$3
DFIX 1.5 0.01 C13 C11
FLAT C1 C2 C3 C4 C5 C6 C7 C8 C11_$1 C13_$1
FLAT C1_$1 C2_$1 C7_$1 C3_$1 C6_$1 C5_$1 C4_$1 C8_$1 C11 C13
FLAT C1_$2 C2_$2 C3_$2 C7_$2 C6_$2 C4_$2 C5_$2 C8_$2 C11_$3 C13_$3
FLAT C1_$3 C2_$3 C3_$3 C4_$3 C5_$3 C6_$3 C7_$3 C8_$3 C11_$2 C13_$2
FLAT C10 C9 C12 C12_$3 C9_$3 C10_$3
SIMU 0.02 0.04 2
RIGU

L.S. 5 0 199
PLAN  20
TEMP 20
BOND
MORE -1
BOND $H
CONF
ABIN
fmap 2
acta
REM <olex2.extras>
REM <HklSrc "%.\\42.8kbar.hkl">
REM </olex2.extras>

WGHT    0.200000
FVAR       0.22330
ZR1   4    0.124262    0.044554    0.000000    10.50000    0.06172    0.09323 =
         0.03315    0.00000    0.00000   -0.00232
ZR2   4    0.000000    0.000000    0.073543    10.25000    0.06456    0.06456 =
         0.02272    0.00000    0.00000    0.00000
O5    3   -0.028198    0.091388    0.108133    11.00000    0.12392    0.11351 =
         0.07717   -0.03286    0.01946    0.01634
O2    3    0.174096    0.061894   -0.059712    11.00000    0.11150    0.16339 =
         0.07303    0.02171    0.01366   -0.04011
O4    3    0.040411    0.083862    0.036596    11.00000    0.12018    0.12389 =
         0.07985    0.03681    0.01705    0.02637
O3    3    0.168779    0.151581    0.000000    10.50000    0.15411    0.13953 =
         0.13413    0.00000    0.00000   -0.03877
O1    3    0.224456   -0.016769    0.000000    10.50000    0.10240    0.19533 =
         0.12758    0.00000    0.00000    0.01625
C11   1   -0.026233    0.415814    0.222844    11.00000    0.17296    0.16495 =
         0.11354   -0.04335    0.04490   -0.00068
C3    1   -0.050108    0.195762    0.170400    11.00000    0.32092    0.17090 =
         0.14649   -0.06129   -0.02318    0.04568
AFIX  43
H3    2   -0.034066    0.150291    0.175189    11.00000   -1.20000
AFIX   0
C12   1   -0.028025    0.471975    0.250000    10.50000    0.15266    0.15266 =
         0.09118   -0.02806    0.02806    0.00620
C1    1   -0.059780    0.151785    0.100221    11.00000    0.21127    0.13392 =
         0.11485   -0.04960   -0.00825    0.05322
C4    1   -0.055259    0.238824    0.204499    11.00000    0.29528    0.17085 =
         0.15271   -0.06287   -0.00594    0.02820
AFIX  43
H4    2   -0.046289    0.225353    0.230973    11.00000   -1.20000
AFIX   0
C8    1   -0.079460    0.365710    0.221124    11.00000    0.17734    0.15908 =
         0.13292   -0.04301    0.04071   -0.00420
C13   1    0.034288    0.412385    0.193112    11.00000    0.19712    0.21510 =
         0.13807   -0.06060    0.06395   -0.01685
AFIX 137
H13A  2    0.042459    0.458305    0.181990    11.00000   -1.50000
H13B  2    0.022787    0.380194    0.171792    11.00000   -1.50000
H13C  2    0.075939    0.396485    0.206728    11.00000   -1.50000
AFIX   0
C2    1   -0.065603    0.211288    0.130219    11.00000    0.30595    0.15447 =
         0.14047   -0.07127   -0.02272    0.06009
C5    1   -0.076268    0.305652    0.191724    11.00000    0.24170    0.16983 =
         0.14650   -0.05345    0.01508    0.01826
C7    1   -0.086618    0.278384    0.118074    11.00000    0.34703    0.16005 =
         0.15744   -0.06639   -0.01975    0.07131
AFIX  43
H7    2   -0.095534    0.291898    0.091601    11.00000   -1.20000
AFIX   0
C9    1   -0.132230    0.367770    0.250000    10.50000    0.17806    0.17806 =
         0.13982   -0.04513    0.04513   -0.01126
C6    1   -0.092187    0.321998    0.151680    11.00000    0.31589    0.16653 =
         0.15623   -0.06226   -0.00498    0.04877
AFIX  43
H6    2   -0.108435    0.367396    0.146888    11.00000   -1.20000
AFIX   0
C10   1   -0.188115    0.311885    0.250000    10.50000    0.21573    0.21573 =
         0.16396   -0.07017    0.07017   -0.04846
PART -1
AFIX  33
H10A  2   -0.179481    0.279438    0.228365    10.50000   -1.50000
H10B  2   -0.187180    0.287137    0.275238    10.50000   -1.50000
H10C  2   -0.233403    0.333361    0.246396    10.50000   -1.50000
AFIX   0
HKLF 4

REM  g2yy_12xnew in P4/mnc
REM R1 =  0.1411 for     859 Fo > 4sig(Fo)  and  0.3408 for all    3450 data
REM    155 parameters refined using    291 restraints

END

WGHT      0.2000      0.0000

REM Highest difference peak  0.584,  deepest hole -0.586,  1-sigma level  0.089
Q1    1   0.1235  0.0265  0.0000  10.50000  0.05    0.58
Q2    1   0.1041  0.0439  0.0000  10.50000  0.05    0.57
Q3    1   0.0000  0.0000  0.0620  10.25000  0.05    0.51
Q4    1   0.1329  0.0942  0.0000  10.50000  0.05    0.49
Q5    1   0.0000  0.0000  0.0880  10.25000  0.05    0.46
Q6    1   0.1939  0.1951  0.0238  11.00000  0.05    0.46
Q7    1   0.1754  0.1819 -0.0218  11.00000  0.05    0.46
Q8    1   0.1547  0.0293  0.0000  10.50000  0.05    0.45
Q9    1   0.2190  0.1241  0.0000  10.50000  0.05    0.43
Q10   1   0.1182  0.2247  0.0000  10.50000  0.05    0.43
Q11   1   0.2105  0.1838  0.0301  11.00000  0.05    0.42
Q12   1   0.2767 -0.0098 -0.0207  11.00000  0.05    0.42
Q13   1   0.1223  0.1482  0.0000  10.50000  0.05    0.38
Q14   1   0.1952  0.0387  0.0000  10.50000  0.05    0.37
Q15   1   0.0605  0.1586  0.0511  11.00000  0.05    0.36
Q16   1  -0.0012  0.2620  0.2304  11.00000  0.05    0.33
Q17   1   0.2032 -0.0623 -0.0200  11.00000  0.05    0.33
Q18   1  -0.0209  0.2648  0.0711  11.00000  0.05    0.32
Q19   1  -0.1469  0.2447  0.1330  11.00000  0.05    0.32
Q20   1  -0.0403  0.3647  0.2669  11.00000  0.05    0.31
;
_shelx_res_checksum              40499
_shelx_hkl_file
;
   2   0   0   -1.29    1.71
  -2   1   0  385.56   83.28
   2  -1   0  305.28   91.13
   2  -1   0  418.91   81.68
   2  -1   0  329.26   77.20
   3   1   0   76.02   17.45
   3   0   0    1.17    4.14
   3   0   0    6.20   13.80
   3  -1   0   51.78   22.28
  -3   1   0   84.33   17.90
   3  -1   0   58.10   15.65
   3  -1   0   51.02   14.92
  -3   1   0   58.34   13.66
   3  -1   0   65.48   14.09
  -3   2   0   10.08    9.78
   3  -2   0   15.27    8.75
   3  -2   0    6.89   14.17
   4   1   0 1768.40  383.26
   4   0   0  103.52   24.24
   4   0   0  115.88   23.83
  -4   0   0   98.54   33.27
   4   0   0  100.82   32.76
   4   0   0   86.97   24.49
   4  -1   0 1776.56  374.45
  -4   1   0 1290.54  347.12
   4  -1   0 1238.20  334.17
  -4   1   0 1543.02  326.50
   4  -1   0 1535.79  342.79
   4  -1   0 1595.65  332.40
   4  -2   0  207.86   55.17
  -4   2   0  293.23   57.22
   4  -2   0  204.99   64.73
   4  -3   0    4.36   22.50
   5   2   0 1514.97  351.82
   5   1   0   38.97   15.33
   5   1   0  100.91   22.62
   5   0   0   -9.56   28.85
   5   0   0   -1.67    9.60
  -5   0   0   -2.95   25.30
   5   0   0    3.47   10.16
  -5   0   0   12.83   19.49
  -5   0   0   -5.99    5.22
   5   0   0    2.05    9.17
   5  -1   0   76.67   14.34
  -5   1   0   45.69   12.91
   5  -1   0   39.62   15.17
   5  -1   0   44.63   34.41
   5  -1   0   51.54   16.05
  -5   1   0   59.69   23.17
   5  -2   0 1955.26  440.01
  -5   2   0 1292.55  379.77
  -5   2   0 1911.31  408.94
   5  -2   0 2202.75  413.78
  -6  -3   0   -1.03   14.92
   6   2   0  715.34  155.35
   6   1   0 2149.04  445.05
   6   1   0 1772.74  455.36
   6   0   0   -0.48   13.72
   6   0   0   13.48   12.62
   6   0   0   -1.16   39.38
  -6   0   0   -2.93   36.33
  -6   0   0    0.82    7.57
  -6   1   0 1850.77  403.43
   6  -1   0 2039.68  417.13
  -6   1   0 1753.12  483.74
   6  -1   0 1893.76  412.13
   6  -1   0 1643.39  456.18
   6  -2   0  556.85  130.52
   6  -2   0  536.48  122.67
   6  -2   0  542.17  147.58
   6  -3   0  283.25   53.91
  -6   3   0  229.74   56.71
   6  -3   0  191.80   68.00
  -6   4   0    9.86   26.66
   6  -4   0   21.82   42.77
  -7  -1   0  245.30   52.19
   7   1   0  225.13   57.26
   7   1   0  220.49   60.24
   7   1   0  270.52   75.95
   7   0   0   -5.48   47.42
   7   0   0    2.68   14.31
  -7   0   0   29.24   35.05
   7   0   0  -12.23   16.58
   7   0   0    7.53   16.49
  -7   0   0  -12.33   42.58
  -7   0   0    8.74    8.36
   7  -1   0  248.30   62.05
   7  -1   0  265.78   62.19
  -7   1   0  219.49   82.09
   7  -1   0  301.33   83.56
   7  -1   0  289.27   62.21
  -7   1   0  311.04   71.17
   7  -2   0  873.43  154.48
   7  -2   0  479.20  129.44
   7  -2   0  477.37  132.27
  -7   2   0  540.44  125.68
   7  -2   0  591.07  129.99
  -7   2   0  609.94  138.32
  -7   3   0  730.30  176.86
   7  -3   0 1048.95  192.16
   7  -3   0  572.16  177.54
   7  -4   0  277.75   65.32
  -7   4   0  193.74   70.73
   7  -4   0  324.33   86.33
   8   4   0  841.76  191.17
   8   3   0   72.12   26.52
   8   2   0  479.94  137.28
   8   2   0  581.79  143.54
   8   2   0  636.00  127.45
   8   1   0   46.39   53.88
  -8  -1   0   -4.73   10.16
   8   1   0   13.47   20.59
   8   1   0   45.41   19.59
   8   0   0  130.65   36.61
  -8   0   0  243.83   55.16
  -8   0   0   89.87   31.10
   8   0   0  159.33   35.14
  -8   0   0  124.03   30.68
  -8   0   0  154.06   60.72
   8   0   0  164.82   34.30
   8   0   0  127.50   65.28
   8  -1   0   22.65   15.26
  -8   1   0   17.45   40.04
  -8   1   0   16.47   49.79
   8  -1   0   53.17   58.69
  -8   1   0   24.05   10.28
   8  -1   0   31.60   19.42
   8  -1   0   48.57   22.97
  -8   2   0  649.75  118.72
   8  -2   0  498.68  108.84
   8  -2   0  352.82  109.48
   8  -2   0  442.85  138.21
   8  -2   0  423.24  108.48
  -8   2   0  509.72  104.72
   8  -3   0   -9.78   28.68
   8  -3   0  138.90   76.65
   8  -3   0   22.24   27.88
  -8   3   0   65.02   45.51
   8  -4   0  702.86  213.69
   8  -4   0  825.24  183.82
  -8   4   0  851.74  192.53
   8  -5   0  -42.51   67.77
   9   4   0  132.60   39.78
   9   3   0 1283.94  289.06
   9   2   0   16.55   65.51
  -9  -2   0   57.43   14.62
   9   2   0   33.09   23.11
  -9  -1   0   67.95   20.72
   9   1   0   92.56   67.58
   9   1   0   88.81   29.54
   9   0   0    1.84   16.18
  -9   0   0   -2.60    9.32
   9   0   0    7.86   23.61
   9   0   0   11.26   24.49
   9   0   0  -20.09   68.98
  -9   0   0  -28.09   48.23
  -9   0   0   11.48   54.65
  -9   0   0  -11.97   12.82
   9  -1   0   60.22   28.99
   9  -1   0   78.16   23.00
  -9   1   0   71.91   50.11
  -9   1   0   65.95   19.20
   9  -1   0   94.16   28.27
   9  -1   0  159.15   74.04
  -9   1   0   35.60   62.91
  -9   2   0   31.52   10.71
   9  -2   0   14.10   24.96
  -9   2   0  107.00   43.53
   9  -2   0    4.09   16.45
   9  -2   0   27.04   21.12
  -9   2   0    1.12   56.58
   9  -2   0   59.83   72.27
  -9   3   0 1402.40  300.51
   9  -3   0 1541.50  327.86
   9  -3   0 1238.19  285.56
   9  -3   0 1046.58  293.61
   9  -4   0  249.11   83.92
   9  -4   0   58.96   39.71
  -9   4   0  103.99   53.30
  -9   5   0  482.18  126.54
   9  -5   0  485.98  118.85
   9  -5   0  638.26  147.41
   9  -5   0  468.68  128.64
  10   4   0  678.65  159.94
  10   3   0    5.07   28.14
  10   2   0  346.82   76.17
  10   2   0  200.19  102.98
 -10  -2   0  319.90   67.20
  10   1   0   34.86   25.40
 -10  -1   0    2.96   63.74
  10   1   0  -70.34   77.57
 -10  -1   0    7.56   13.91
  10   0   0   20.69   75.62
  10   0   0  -24.07   28.50
 -10   0   0   -4.60   13.10
 -10   0   0   16.29   60.17
  10  -1   0   23.42   29.42
 -10   1   0   17.77   57.03
 -10   1   0   26.20   14.70
  10  -1   0  -72.58   83.15
  10  -2   0  311.45   80.45
 -10   2   0  313.71   95.89
  10  -2   0  430.82  119.28
 -10   3   0    9.68   49.83
  10  -3   0   41.04   32.66
  10  -3   0  116.04   90.04
 -10   4   0  673.23  176.54
  10  -4   0  828.95  201.24
  10  -4   0  688.90  165.72
  10  -5   0  172.47   95.00
  10  -5   0   37.78   42.72
 -10   5   0   19.39   55.27
  10  -6   0  198.07  108.27
  11   4   0   19.67   34.29
  11   3   0  449.27  116.88
  11   3   0  297.68   86.88
  11   2   0   29.19   34.82
  11   2   0   25.39   83.63
 -11  -2   0   18.67   16.43
 -11  -1   0   -3.37   73.59
  11   1   0   40.20   31.17
  11   1   0   90.03   85.86
 -11  -1   0   20.47   17.10
  11   0   0   30.08   88.27
  11   0   0   -1.86   32.84
 -11   0   0   24.91   70.62
 -11   0   0   33.28   17.14
 -11   1   0    3.49   16.15
  11  -1   0   13.23   34.27
 -11   1   0    2.89   63.94
  11  -1   0   31.17   93.93
  11  -2   0   17.91   35.47
  11  -2   0   54.71   96.97
 -11   2   0   33.02   60.67
 -11   3   0  267.74   94.64
  11  -3   0  286.76   77.92
  11  -3   0  375.11  129.66
 -11   4   0   -8.48   57.83
  11  -4   0 -162.31  106.61
  11  -4   0   -9.84   42.56
  11  -5   0   77.59   50.89
  11  -5   0   71.60  108.92
 -11   5   0  126.55   65.20
  11  -6   0  142.24  113.16
  12   4   0  260.35   73.36
 -12  -3   0   18.07   19.79
  12   3   0   -7.61   93.19
  12   3   0   27.53   38.46
 -12  -2   0   -1.90   17.69
  12   2   0   66.36   39.63
  12   2   0 -156.27  104.42
 -12  -1   0  -75.92   88.63
  12   1   0  190.96  100.78
 -12  -1   0   59.31   22.64
  12   1   0   37.21   37.08
  12   0   0    8.39   45.98
 -12   0   0  128.50   35.04
 -12   0   0  173.40   92.93
  12   0   0  460.67  114.94
 -12   1   0   36.06   74.57
  12  -1   0   82.97   42.78
 -12   1   0   41.61   24.29
  12  -2   0   13.67   40.82
 -12   2   0  -24.80   68.61
  12  -2   0 -173.94  109.79
 -12   3   0   39.24   70.65
  12  -3   0   53.05   44.25
  12  -3   0   60.64  111.85
  12  -4   0  315.32  140.68
 -12   4   0  339.14   97.49
  12  -4   0  275.63   83.18
  12  -5   0   39.44   47.95
  12  -5   0  -85.65  120.92
 -12   5   0   19.66   69.78
  12  -6   0  199.07  130.78
 -12   6   0  145.49   81.11
  13   2   0   32.49   43.52
 -13  -2   0  103.83  109.59
 -13  -1   0  -77.35  100.18
 -13  -1   0   49.26   23.11
  13   1   0   23.52   40.09
 -13   0   0   24.61   21.71
  13   0   0  -21.19   46.32
  13   0   0  391.91  107.49
 -13   0   0  -43.94   96.62
  13  -1   0    8.86  117.56
 -13   1   0   -7.43   87.74
  13  -1   0   46.29   44.74
 -13   1   0   33.45   24.81
  13  -2   0  554.97  126.03
 -13   2   0   52.15   88.64
  13  -2   0   78.91   53.96
 -13   2   0  112.57   36.05
 -13   3   0  127.95   85.50
  13  -4   0    2.97   51.29
 -13   4   0   44.53   75.23
  13  -7   0  360.20  180.08
  14   4   0  122.33   52.20
 -14  -4   0   -2.60   29.03
  14   3   0   15.42  118.24
 -14  -3   0   29.62   23.80
  14   3   0    2.65   46.71
 -14  -2   0  216.63  117.96
  14   2   0  126.67   45.95
  14   2   0   78.14  121.23
 -14  -2   0    4.74   22.03
 -14  -1   0   16.34   23.54
  14   1   0   -2.63   42.13
 -14  -1   0   -4.88   87.09
  14   1   0   44.50  125.35
 -14   0   0    2.48   24.86
  14   0   0   15.63  129.34
 -14   1   0  -20.21   24.13
  14  -1   0 -146.40  133.97
  14  -2   0    3.35  135.23
 -14   2   0    2.58   24.78
  14  -3   0   -2.97   42.75
  14  -3   0  135.71  138.92
  14  -4   0  127.33   60.07
 -14   4   0  246.02   86.06
  14  -4   0 -514.92  162.24
 -14   5   0   19.54   83.88
  14  -5   0   21.85   66.49
 -14   6   0   42.10   94.29
  14  -6   0  164.98   69.13
  14  -6   0  104.30  156.99
  14  -7   0  258.11  172.23
  15   4   0  -13.86  130.76
 -15  -4   0  -28.69   28.24
  15   4   0    2.97   46.48
 -15  -3   0  -19.20   24.47
  15   3   0  128.98  132.91
 -15  -3   0  263.82  150.35
  15   3   0    2.95   51.52
 -15  -2   0   21.17   25.96
  15   2   0   14.99   50.02
 -15  -2   0   82.36  139.20
  15   2   0   58.33  136.12
  15   1   0   26.93   54.51
  15   1   0   24.63  140.37
 -15  -1   0  -18.28   26.05
 -15  -1   0    5.49  124.14
 -15   0   0    5.40   23.49
 -15   0   0   50.12  119.23
  15   0   0  -36.19   53.75
  15   0   0    3.47  139.66
 -15   1   0  -74.29  110.52
  15  -1   0   32.06  140.63
 -15   1   0   50.93   27.49
  15  -1   0 -218.84   60.44
 -15   2   0    4.38   96.59
  15  -2   0    3.69  150.79
 -15   2   0   23.06   28.41
  15  -2   0   25.23   54.93
 -15   3   0  135.02   37.86
  15  -3   0   99.10  157.06
 -15   3   0    4.20   96.07
  15  -3   0  115.35   66.69
  15  -4   0 -142.11  156.66
 -15   4   0   29.34   91.69
  15  -4   0   46.74   59.88
  15  -5   0   78.25  167.36
  15  -5   0   95.80   68.05
 -15   5   0   34.27   93.62
  15  -6   0  -11.91   67.88
 -15   6   0    4.55   94.19
  15  -6   0   -8.53  174.64
  15  -7   0  157.26  179.06
  16   4   0  -11.43  142.58
 -16  -4   0  454.94  178.23
  16   4   0   63.51   63.52
 -16  -4   0    3.17   31.89
 -16  -3   0  -71.59  169.83
 -16  -3   0  -70.13   31.67
  16   3   0   52.32  147.30
  16   3   0    3.33   59.62
  16   2   0 -102.10  148.17
 -16  -2   0   -6.64  153.86
  16   2   0 -149.40   59.63
 -16  -2   0   32.47   31.43
 -16  -1   0   -2.90   30.70
 -16  -1   0   61.50  142.63
  16   1   0   69.48  152.46
  16   1   0  -53.25   60.52
 -16   0   0  -90.13  134.93
  16   0   0   24.12   60.93
  16   0   0 -244.04  160.48
 -16   0   0   11.97   31.81
 -16   1   0   15.88   32.67
  16  -1   0  112.97  156.97
  16  -1   0 -155.62   60.30
 -16   1   0 -178.83  121.46
  16  -2   0   76.84  173.15
 -16   2   0   67.96  110.46
  16  -2   0  115.69   67.16
 -16   2   0   32.43   38.99
 -16   3   0  -26.77   35.94
  16  -3   0   24.98  175.70
 -16   3   0   18.76  106.46
  16  -3   0   60.14   68.47
 -16   4   0 -223.43  102.46
  16  -4   0   31.70   71.84
  16  -4   0   68.92  179.18
  16  -5   0 -370.72  194.06
 -16   5   0  -94.15  102.76
  16  -5   0   16.78   77.28
  16  -6   0 -258.87   84.61
 -16   6   0   -4.95  112.21
  16  -6   0 -512.52  201.32
  16  -7   0   62.55  203.83
  17   4   0  -62.85  159.82
 -17  -4   0 -239.31  205.37
  17   4   0   15.08   68.74
 -17  -4   0  -17.53   37.86
  17   3   0   98.06   70.50
  17   3   0    4.11  159.74
 -17  -3   0   95.21  187.18
 -17  -3   0  -23.75   32.25
  17   2   0    3.77   72.92
  17   2   0  -45.76  169.34
 -17  -2   0  246.61  176.83
 -17  -2   0   62.52   33.77
  17   1   0   87.60   73.01
 -17  -1   0   55.30  168.75
 -17  -1   0   32.41   35.56
  17   1   0  122.87  169.39
  17   0   0  791.10  195.44
  17   0   0  266.44   98.36
 -17   0   0   -6.36  157.73
  17  -1   0   46.14   76.11
 -17   1   0    5.82  130.79
  17  -1   0  433.05  185.23
 -17   1   0  -31.60   37.03
  17  -2   0 -236.68   75.58
 -17   2   0    3.63   36.96
 -17   2   0 -211.89  130.13
 -17   3   0  -94.31  116.91
 -17   3   0  -29.84   37.37
  17  -3   0 -114.13  194.92
  17  -3   0 -104.35   74.99
 -17   4   0   -5.18  116.49
 -17   4   0   -7.78   41.40
  17  -4   0 -139.89   79.19
  17  -4   0  250.00  196.60
  17  -5   0  185.25  206.07
  17  -5   0 -143.36   88.97
 -17   5   0  -15.56  114.60
  17  -6   0   25.30  204.76
 -17   6   0 -135.21  117.74
  17  -6   0 -103.44   82.15
  17  -7   0 -257.22  227.27
 -18  -4   0  -34.91   38.82
  18   4   0  -46.16  166.84
  18   4   0   12.58   78.29
 -18  -4   0 -245.54  223.36
  18   3   0  -63.39  173.42
 -18  -3   0  -37.77   37.01
 -18  -3   0  232.30  210.35
  18   3   0 -100.03   76.31
 -18  -2   0   11.04   35.99
  18   2   0  205.97  182.34
  18   2   0   12.54   78.83
 -18  -2   0 -474.28  202.46
  18   1   0  398.71  195.49
  18   1   0  156.06   79.03
 -18  -1   0   10.83   41.44
 -18  -1   0  -91.62  191.16
 -18   0   0   42.21  163.19
 -18   0   0   -7.28   40.80
  18   0   0  161.27  191.92
  18   0   0   -4.38   77.32
  18  -1   0 -173.19  185.95
  18  -1   0   21.87   76.64
 -18   1   0    6.52  155.81
 -18   1   0  -30.44   40.54
  18  -2   0  187.33  200.27
 -18   2   0  -36.60   40.18
  18  -2   0  -17.90   80.01
 -18   2   0  -12.24  140.72
  18  -3   0  -88.00   85.60
 -18   3   0  105.51  133.82
 -18   3   0  -41.90   40.81
  18  -3   0  -99.73  206.39
  18  -4   0 -323.51  211.27
 -18   4   0   91.32   46.39
 -18   4   0  115.76  128.34
  18  -4   0  -86.83   83.66
  18  -5   0 -324.84   98.23
  18  -5   0 -260.21  222.18
 -18   5   0   45.71   48.09
 -18   5   0 -459.17  127.30
  18  -6   0  614.68  259.08
 -18   6   0  439.57  172.97
  18  -7   0  -34.15  235.22
 -19  -4   0  137.11  248.35
  19   4   0   51.88   79.58
 -19  -4   0  -30.23   43.03
 -19  -3   0   75.96   42.55
  19   3   0 -583.19  209.09
  19   3   0    9.45   86.04
 -19  -3   0 -320.35  245.65
  19   2   0 -387.19   94.23
 -19  -2   0 -373.83  230.57
 -19  -2   0   70.14   41.01
  19   1   0  306.88  114.75
 -19  -1   0  284.14  225.04
 -19   0   0  598.21  310.26
  19   0   0 1349.93  252.44
 -19   2   0  -94.38   51.70
 -19   2   0 -661.69  183.85
 -19   3   0  140.38   53.25
  19  -3   0   41.24   96.51
 -19   3   0   39.28  141.87
  19  -4   0   -5.61  235.87
 -19   4   0   -6.48  139.24
  19  -4   0  -93.36   97.33
 -19   4   0  -77.92   55.14
  19  -5   0 -386.79  251.02
  19  -5   0   46.07  103.96
 -19   5   0  -20.29   49.69
 -19   5   0 -127.47  149.72
 -19   6   0   53.43   53.34
  19  -6   0 -129.71   99.29
  19  -6   0  232.62  261.01
 -19   6   0  111.52  145.19
  19  -7   0 -363.61  271.40
  20   3   0    5.40   98.97
 -20  -3   0   33.47  252.68
 -20  -2   0  123.70  244.87
  20   2   0  -79.38   96.69
 -20  -1   0  104.65   51.57
  20   1   0  156.12  231.78
  20   1   0  100.52  100.78
 -20  -1   0  -85.63  226.25
 -20   0   0    8.84  198.96
  20   0   0 -522.58  242.40
 -20   0   0  -18.14   45.77
  20   0   0    5.37   98.40
  20  -1   0  185.90  248.21
  20  -1   0    5.41   96.86
 -20   1   0  -36.94   46.74
 -20   1   0  -32.66  198.55
 -20   2   0  -68.20   47.60
 -20   2   0 -285.65  177.43
  20  -2   0 -120.57  247.21
  20  -2   0   80.28  100.74
 -20   3   0  -41.80   55.03
  20  -3   0  240.94  253.07
  20  -3   0   82.94  103.34
 -20   3   0 -258.53  178.09
 -20   4   0  157.88   57.54
 -20   4   0   36.35  158.25
  20  -4   0    6.08  109.92
  20  -4   0   30.53  258.23
  20  -5   0 -100.89  114.79
 -20   5   0 -156.48  159.27
  20  -5   0   18.94  216.20
  -1   1  -1   -0.18    0.42
  -1   1  -1    1.19    1.40
   1  -1   1    0.19    0.36
   1  -1   1    0.19    1.90
   2   1  -1  594.48  192.87
  -2  -1  -1   -0.34  161.25
   2   1  -1 1077.53  169.54
  -2  -1   1 1077.82  157.60
   2   0  -1    0.29    2.50
  -2   0  -1   -0.25    1.51
   2   0   1    2.53    7.85
   2   0   1   -1.25    1.56
  -2   0   1    0.45    4.29
  -2   1  -1 1049.62  219.74
   2  -1  -1 1115.85  218.21
   2  -1   1 1004.03  218.63
   2  -1   1  933.26  213.59
   2  -1   1  861.80  235.12
   2  -1   1  990.41  213.45
   3   2  -1   -0.79   17.12
  -3  -2   1    4.74    3.13
   3   1  -1  420.18   83.23
   3   1  -1  285.92   91.55
  -3  -1  -1  394.67   78.80
   3   1   1  322.88   94.85
  -3  -1   1  414.16   77.86
   3   0  -1  214.10   46.32
  -3   0  -1  213.12   58.43
  -3   0  -1  227.60   43.88
   3   0   1  221.23   46.46
   3   0   1  166.14   53.49
  -3   0   1  197.20   49.78
   3   0   1  186.81   48.22
   3  -1  -1  372.31   93.94
  -3   1  -1  383.51   85.59
   3  -1  -1  387.15   82.41
  -3   1  -1  355.08   80.14
   3  -1   1  333.57   93.24
   3  -1   1  424.83   83.22
  -3   1   1  323.05   85.70
   3  -1   1  320.12   81.50
  -3   2  -1   -1.16    3.49
  -3   2  -1   -2.04    9.72
   3  -2  -1   -6.04    9.10
   3  -2  -1    3.95   14.16
  -3   2   1    2.32    9.41
   3  -2   1   -0.62   15.99
   3  -2   1    2.15    7.48
   3  -2   1   -0.72    4.37
   4   2  -1  388.71  107.35
   4   2  -1  418.57   93.99
   4   1  -1   33.30   12.34
  -4  -1  -1   60.92   10.44
   4   1   1   33.54   12.50
   4   1   1   35.15   24.21
  -4   0  -1   -2.58    3.66
   4   0  -1    2.26    6.26
  -4   0  -1   -8.04   21.64
   4   0   1    0.52    6.61
  -4   0   1   -6.43   14.66
   4   0   1    2.01    8.67
   4   0   1    3.67   19.65
   4   0   1   -4.31    9.60
   4  -1  -1   71.32   14.95
  -4   1  -1   34.31   12.63
   4  -1  -1   53.67   26.77
  -4   1  -1   50.91   18.31
   4  -1   1   55.54   14.37
  -4   1   1   45.39   19.16
   4  -1   1   48.70   25.83
   4  -1   1   61.28   14.45
   4  -1   1   67.89   14.31
   4  -2  -1  433.97  101.40
  -4   2  -1  417.25   95.50
  -4   2  -1  451.16  103.91
   4  -2  -1  463.91  113.18
   4  -2   1  509.25   97.57
   4  -2   1  382.89  103.61
   4  -2   1  412.07  114.75
  -4   2   1  450.37  103.92
  -4   3  -1   37.19   17.02
   4  -3   1   22.06   24.41
   5   1  -1 1753.24  335.44
   5   1   1 1450.62  320.02
   5   1   1 1559.14  338.06
   5   1   1 1219.06  343.81
   5   0  -1   51.59   12.00
   5   0  -1   27.32   12.57
  -5   0  -1   42.97   32.61
   5   0  -1   35.71   13.49
  -5   0  -1   39.61   10.51
   5   0   1   47.81   15.41
  -5   0   1   46.69   23.76
   5   0   1   45.91   16.02
   5   0   1   33.50   29.91
  -5   0   1   46.86   10.16
  -5   0   1   33.57   23.10
   5   0   1   51.23   13.52
   5  -1  -1 1231.66  283.98
  -5   1  -1 1285.88  339.96
  -5   1  -1 1339.55  282.22
   5  -1  -1  932.35  322.20
  -5   1  -1 1454.94  298.21
   5  -1  -1 1362.19  294.58
  -5   1   1 1194.90  273.08
   5  -1   1 1178.62  321.61
  -5   1   1 1379.85  298.57
   5  -1   1 1422.02  292.24
  -5   2  -1  233.77   78.35
   5  -2  -1  414.91   74.86
  -5   2  -1  352.82   70.86
   5  -2   1  258.40   72.99
   5  -2   1  307.26   73.40
  -5   2   1  345.25   78.58
   5  -2   1  333.15   76.76
   5  -2   1  348.76   88.21
  -5   3  -1  818.16  215.39
   5  -3   1 1038.55  210.86
   6   3  -1    2.73   42.48
   6   3  -1   16.29   14.68
  -6  -3   1   12.03    8.57
   6   2  -1 1993.58  459.58
  -6  -2   1 2298.74  436.66
   6   2   1 1994.37  489.67
   6   2   1 2174.70  460.01
   6   1  -1  137.76   45.55
  -6  -1  -1  212.85   41.08
   6   1   1  233.01   50.87
   6   1   1  204.06   59.79
   6   0  -1    7.77   11.29
   6   0  -1   -0.97    8.91
   6   0  -1    8.39   41.95
  -6   0  -1    3.60   41.43
   6   0   1    2.59   15.46
  -6   0   1   -1.08    4.86
   6   0   1   -4.70   15.89
  -6   0   1   -3.40   29.92
   6  -1  -1  176.34   35.97
   6  -1  -1  169.50   60.08
   6  -1  -1  129.04   37.14
  -6   1  -1  184.27   36.02
  -6   1  -1  170.93   57.72
   6  -1   1  152.08   38.86
  -6   1   1  137.36   34.49
   6  -1   1  155.93   38.52
  -6   2  -1 1757.19  404.12
   6  -2  -1 1873.46  436.39
   6  -2  -1 1975.40  460.07
   6  -2   1 1875.48  420.21
   6  -2   1 1803.94  416.03
   6  -3  -1   24.91   21.75
  -6   3  -1   12.56    8.79
   6  -3  -1    9.46   43.91
   6  -3   1   -6.64   44.20
   6  -3   1   -1.31   16.86
  -6   3   1   -1.50   25.64
   6  -3   1    1.58   19.93
   6  -4  -1  -15.12   42.76
  -6   4  -1  -14.28   26.90
   6  -4   1  -12.52   22.84
   6  -4   1   27.40   44.78
   7   3  -1    9.03   17.46
   7   3  -1    7.54   49.09
  -7  -3   1   12.42    9.65
   7   3   1    5.73   17.93
   7   2  -1  505.65  112.53
   7   2   1  491.29  128.55
   7   1  -1   76.92   26.38
  -7  -1  -1  138.35   22.54
   7   1  -1   70.16   25.87
   7   1   1   88.77   27.03
   7   1   1  127.97   32.93
   7   1   1   69.35   49.71
   7   0  -1   31.03   50.54
   7   0  -1   28.47   17.64
  -7   0  -1   26.15    9.32
   7   0  -1   14.27   11.35
  -7   0  -1   20.81   35.21
  -7   0  -1   37.94   49.72
   7   0  -1   20.01   15.00
   7   0   1   45.69   46.47
  -7   0   1   15.55    7.48
   7   0   1   26.34   19.45
  -7   0   1   23.88    9.57
   7   0   1   24.32   18.05
   7   0   1   31.71   16.91
  -7   0   1   18.36   36.74
  -7   0   1   17.07   34.31
   7  -1  -1   62.34   22.12
  -7   1  -1   72.31   19.12
   7  -1  -1   57.58   25.07
   7  -1  -1   64.18   55.67
  -7   1  -1   85.76   51.28
  -7   1  -1  112.72   38.41
   7  -1  -1   57.30   19.66
   7  -1   1  111.04   23.15
  -7   1   1   92.43   37.63
   7  -1   1  105.00   24.42
  -7   1   1   69.12   17.92
  -7   1   1   80.64   42.10
   7  -1   1   64.79   24.55
   7  -1   1  143.52   51.59
   7  -2  -1  500.46  130.53
  -7   2  -1  450.77  104.22
   7  -2  -1  535.41  106.98
   7  -2  -1  392.96  110.78
  -7   2  -1  394.90  114.47
   7  -2   1  527.69  129.14
   7  -2   1  383.64  107.42
  -7   2   1  437.74  114.32
   7  -2   1  538.20  105.87
   7  -2   1  560.27  108.39
  -7   3  -1   22.97   31.40
  -7   3  -1    5.06    9.28
   7  -3  -1   14.35   51.14
   7  -3  -1    3.14   24.20
   7  -3   1  -15.33   54.88
  -7   3   1    3.47   31.04
   7  -3   1    8.49   21.47
   7  -3   1  -10.08   20.84
   7  -4  -1  424.57  103.51
   7  -4  -1  630.08  123.38
  -7   4  -1  411.98  109.12
   7  -4   1  420.11  124.96
  -7   4   1  332.71  109.40
   7  -4   1  448.06  103.50
   7  -5   1   30.11   57.38
   8   4  -1   79.82   33.20
  -8  -4   1  127.39   26.66
   8   3  -1  672.82  170.31
   8   3  -1  842.84  187.63
   8   3   1  781.64  190.36
   8   3   1  735.73  170.80
   8   2  -1   47.06   37.89
   8   2  -1  111.44   32.37
  -8  -2  -1  131.06   25.68
   8   2   1  119.89   46.35
   8   2   1  110.74   31.48
   8   2   1  134.13   61.89
  -8  -1  -1   28.67   10.46
   8   1  -1   -2.59   15.03
   8   1  -1   15.71   20.79
   8   1   1    8.37   17.99
   8   1   1   24.57   53.55
   8   1   1   56.89   25.83
  -8   0  -1   -4.09   41.99
   8   0  -1   -9.82   59.39
  -8   0  -1   -5.72    9.69
   8   0  -1   -8.35   16.46
  -8   0  -1  -13.22   56.67
   8   0  -1    8.27   12.09
   8   0  -1   -1.23   18.31
  -8   0   1   14.13   40.57
   8   0   1  -11.84   19.48
  -8   0   1  -24.18   42.24
   8   0   1  -15.61   54.66
  -8   0   1   -1.16   10.40
  -8   0   1   -5.25    7.29
   8   0   1   -4.00   22.39
   8   0   1   -2.37   18.14
  -8   1  -1   -9.60   40.13
   8  -1  -1   18.91   61.70
  -8   1  -1   29.07   55.58
   8  -1  -1   28.00   22.31
  -8   1  -1   -3.02   10.78
   8  -1  -1   16.51   11.37
   8  -1  -1   16.03   16.29
  -8   1   1   53.89   38.44
   8  -1   1   12.21   19.29
   8  -1   1    6.11   16.67
   8  -1   1  114.74   60.77
   8  -1   1   18.50   20.48
  -8   1   1   19.51   44.91
  -8   1   1   15.12    7.92
   8  -2  -1   73.96   24.35
  -8   2  -1   51.64   19.90
   8  -2  -1  112.62   29.16
   8  -2  -1   63.51   72.29
  -8   2  -1  136.60   41.91
  -8   2  -1   57.86   60.85
   8  -2   1   17.54   31.61
  -8   2   1   96.95   42.76
   8  -2   1   98.68   27.69
   8  -2   1   78.67   23.42
   8  -2   1 -166.06   78.55
   8  -3  -1  796.18  166.14
  -8   3  -1  669.73  165.85
   8  -3  -1  671.32  156.05
   8  -3  -1  843.39  186.02
   8  -3   1  658.16  160.15
   8  -3   1  478.05  191.20
   8  -3   1  674.26  154.68
  -8   3   1  652.14  164.98
  -8   4  -1   26.31   45.60
   8  -4  -1  162.56   41.74
   8  -4  -1   99.20   72.91
   8  -4   1  143.23   73.19
  -8   4   1  130.88   48.15
   8  -4   1  150.20   39.70
   8  -5  -1  413.19  112.50
  -8   5  -1  331.09  100.59
   8  -5   1  460.82  116.22
   8  -5   1  369.73   98.80
   9   4  -1 1313.15  279.74
   9   4  -1 1180.28  299.50
  -9  -4   1 1291.14  264.98
   9   3  -1   20.68   24.56
  -9  -3  -1   -2.95   12.91
   9   3   1   22.65   61.86
   9   3   1   -6.02   25.67
  -9  -3   1    4.28   13.41
   9   2  -1  344.79   85.99
  -9  -2  -1  327.36   79.58
   9   2   1  465.45   86.38
   9   2   1  465.10  109.21
   9   2   1  268.64   95.20
   9   1  -1   19.86   64.43
  -9  -1  -1  -17.10   11.70
   9   1  -1   -6.96   22.01
   9   1   1  -70.12   60.84
   9   1   1  -16.67   25.99
   9   1   1   11.00   22.60
  -9  -1   1   -2.77   13.47
  -9  -1   1   50.78   52.01
  -9   0  -1  -30.80   48.67
   9   0  -1   -3.73   66.25
  -9   0  -1   -9.29   12.19
   9   0  -1   -1.42   23.08
  -9   0  -1   14.71   61.49
  -9   0   1   -1.26    7.79
   9   0   1    2.32   19.91
  -9   0   1  -14.29   47.28
  -9   0   1    1.35   12.25
  -9   0   1  -25.90   47.42
   9   0   1   -4.56   25.09
   9   0   1   51.80   64.40
   9   0   1    8.24   21.81
   9  -1  -1  -38.80   69.48
  -9   1  -1   20.17   62.57
  -9   1  -1  -11.91   11.00
  -9   1  -1   -5.25   11.98
  -9   1  -1  -42.49   48.46
   9  -1  -1   -1.53   24.05
   9  -1   1    8.71   24.27
  -9   1   1  -19.99   45.96
   9  -1   1    7.37   68.77
   9  -1   1    0.72   17.46
   9  -1   1   18.58   24.17
  -9   1   1    6.07    7.82
  -9   1   1   19.27   54.24
  -9   2  -1  274.35   76.41
   9  -2  -1  395.95  113.72
  -9   2  -1  291.86  112.18
   9  -2  -1  329.36   78.46
   9  -2  -1  323.89   80.14
  -9   2  -1  227.13   92.04
  -9   2   1  384.85   90.64
   9  -2   1  361.83   79.58
   9  -2   1  455.91  111.26
   9  -2   1  286.06   80.75
  -9   2   1  377.72  106.10
   9  -2   1  442.43   79.82
  -9   3  -1   16.91   43.52
   9  -3  -1   13.45   23.99
   9  -3  -1   -7.45   30.02
   9  -3  -1  -45.85   75.06
  -9   3   1  -26.39   43.83
   9  -3   1   17.16   27.97
   9  -3   1    2.03   74.13
   9  -4  -1 1117.63  254.92
   9  -4  -1 1183.38  291.83
  -9   4  -1  884.24  267.59
  -9   4   1 1155.36  267.10
   9  -4   1 1217.54  297.52
   9  -4   1  977.98  269.75
   9  -4   1 1275.78  254.12
   9  -5  -1  191.03   83.38
  -9   5  -1   99.09   57.22
   9  -5   1  203.99   51.95
  -9   5   1  130.98   58.83
   9  -5   1  153.96   87.82
   9  -5   1  102.22   48.64
   9  -6   1   90.29   85.49
  10   4  -1   48.03   73.89
  10   4  -1   17.46   29.20
 -10  -4   1   52.01   17.24
  10   4   1   14.21   31.13
 -10  -3  -1  712.48  138.99
  10   3  -1  657.98  149.28
  10   3   1  653.93  169.90
  10   3   1  521.12  149.81
  10   2  -1  -35.63   27.31
 -10  -2  -1    7.58   13.70
  10   2   1  -26.23   28.90
  10   2   1  -63.29   73.23
  10   1  -1   71.11   74.66
  10   1  -1   12.93   29.21
 -10  -1  -1   32.84   14.94
  10   1   1   23.78   27.14
 -10  -1   1   18.88   15.28
 -10  -1   1   72.74   61.17
  10   1   1  115.13   74.66
 -10   0  -1   10.65   14.31
 -10   0  -1   -5.43   58.38
  10   0  -1    4.96   28.98
  10   0  -1  -56.97   78.42
  10   0   1  -17.63   28.08
  10   0   1   84.62   74.22
 -10   0   1  -16.27   58.42
 -10   0   1    3.10   15.02
  10  -1  -1  -19.07   30.18
 -10   1  -1   36.01   56.94
 -10   1  -1    4.49   14.56
  10  -1  -1  104.95   83.46
  10  -1   1  121.35   83.81
 -10   1   1   22.90   54.10
  10  -1   1   38.20   28.42
 -10   2  -1    2.44   49.11
  10  -2  -1 -100.39   85.30
  10  -2  -1   -1.84   31.06
  10  -2   1    3.49   28.08
  10  -2   1   -6.54   85.06
 -10   2   1  -24.49   50.55
  10  -3  -1  629.14  159.06
  10  -3  -1  856.93  195.20
 -10   3  -1  682.23  169.49
  10  -3   1 1097.97  197.81
  10  -3   1  670.75  158.58
 -10   3   1  431.05  171.10
  10  -4  -1  -16.49   35.75
 -10   4  -1   35.10   50.18
  10  -4  -1  -74.38   89.17
 -10   4   1   -2.61   53.29
  10  -4   1    7.12   87.03
  10  -4   1   52.76   36.71
 -10   5  -1  217.03   83.80
  10  -5  -1  292.30   74.98
  10  -5  -1  315.05  114.97
  10  -5   1  213.72   77.12
 -10   5   1  272.41   85.31
  10  -5   1  423.98  118.17
  10  -5   1  274.65   74.62
  10  -6   1  137.95   57.11
  10  -6   1  169.91  100.61
  11   4  -1  348.14   79.57
 -11  -4  -1  293.39   71.68
  11   4  -1  307.45  113.65
 -11  -4   1  356.22   71.56
  11   4   1  293.81   80.59
 -11  -3  -1   23.70   16.96
  11   3  -1   -9.43   32.39
  11   3   1   38.98   76.89
  11   3   1   -9.54   29.55
  11   2  -1   53.43   31.83
 -11  -2  -1   10.21   17.20
  11   2   1   22.23   32.56
  11   2   1   61.46   84.76
 -11  -1  -1   61.85   77.89
 -11  -1  -1   45.54   17.55
  11   1  -1   40.39   33.03
  11   1  -1  -11.38   88.49
 -11  -1   1   51.35   18.32
  11   1   1   29.54   84.61
  11   1   1   10.79   30.87
 -11  -1   1   39.61   71.94
 -11   0  -1   13.94   17.99
  11   0  -1   89.96   91.15
  11   0  -1   39.27   33.57
 -11   0  -1   31.29   69.31
  11   0   1   70.09   89.32
 -11   0   1   46.08   18.60
  11   0   1   36.31   32.07
 -11   0   1   33.97   68.90
  11  -1  -1   52.67   33.41
 -11   1  -1   26.45   62.95
 -11   1  -1   44.60   19.96
  11  -1  -1   85.40   91.91
 -11   1   1   69.65   61.25
 -11   1   1   23.32   18.31
  11  -1   1    2.34   94.38
  11  -1   1   11.29   33.25
  11  -2  -1   14.44   34.73
 -11   2  -1   55.57   58.85
  11  -2  -1   96.69   93.19
  11  -2   1  -51.21   92.64
 -11   2   1   71.83   59.47
  11  -2   1    1.97   33.38
  11  -3  -1   10.55  100.35
  11  -3  -1  -13.69   39.36
 -11   3  -1   24.24   59.24
  11  -3   1   49.06   37.92
  11  -3   1 -118.09   95.87
 -11   3   1  -19.26   58.04
 -11   4  -1  254.39   91.72
  11  -4  -1  287.93   80.37
  11  -4  -1  399.55  131.55
  11  -4   1  222.45   78.78
 -11   4   1  448.15   93.67
  11  -4   1  269.03  127.71
  11  -5  -1   71.86  105.63
  11  -5  -1  -11.20   44.36
 -11   5  -1   -5.90   61.73
 -11   5   1   64.89   62.24
  11  -5   1   19.22   45.84
  11  -5   1  -96.87  110.67
  11  -6  -1  -56.67  103.96
 -11   6  -1   39.65   63.35
  11  -6   1  130.79  105.41
  12   5  -1  116.74   40.27
 -12  -5   1   -2.23   22.16
 -12  -4  -1   25.78   19.39
  12   4  -1    8.64   35.26
  12   4   1   22.02   36.95
 -12  -4   1  -12.71   20.81
  12   4   1   50.52   90.11
  12   3  -1   97.35   45.82
 -12  -3  -1   99.05   31.72
  12   3   1  113.79   97.84
  12   3   1  160.73   45.40
 -12  -2  -1   19.04   17.97
  12   2  -1  -75.59   98.85
  12   2  -1  -22.78   40.12
  12   2   1   24.61   38.26
 -12  -2   1   43.89   19.34
 -12  -2   1 -168.28   98.77
  12   2   1  -63.20   97.94
  12   1  -1  247.93  106.74
 -12  -1  -1  -38.86   88.45
 -12  -1  -1   -7.40   18.70
  12   1  -1   10.51   38.83
 -12  -1   1    5.84   18.05
 -12  -1   1  -86.00   90.43
  12   1   1  160.48  103.70
  12   1   1   43.31   38.82
  12   0  -1  -10.53   43.80
 -12   0  -1   25.41   22.59
 -12   0  -1   67.88   90.58
  12   0  -1  413.09  114.27
  12   0   1  220.93  106.22
 -12   0   1   70.05   93.82
 -12   0   1  128.69   27.79
  12   0   1   -2.09   40.37
 -12   1  -1   19.73   76.30
  12  -1  -1   24.05   41.51
 -12   1  -1   40.74   21.10
  12  -1  -1  278.42  116.74
 -12   1   1   40.30   22.71
 -12   1   1  -23.02   76.01
  12  -1   1   -2.12   38.42
  12  -1   1  109.70  106.43
 -12   2  -1  -12.57   73.66
  12  -2  -1   50.72   40.87
  12  -2  -1  -70.16  115.15
 -12   2  -1   55.70   22.80
  12  -2   1 -224.56  112.72
  12  -2   1   22.03   39.82
 -12   2   1  -27.98   69.95
 -12   3  -1  177.75   74.17
  12  -3  -1  148.53  116.62
  12  -3  -1  113.68   51.22
  12  -3   1   59.36   47.33
 -12   3   1   85.84   73.24
  12  -3   1   82.30  115.32
  12  -4  -1  -38.37   46.32
 -12   4  -1  -42.80   67.57
  12  -4  -1  -80.79  124.89
  12  -4   1   61.10   45.81
  12  -4   1   77.30  119.54
 -12   4   1    6.36   68.06
 -12   5  -1  170.57   77.82
  12  -5  -1  113.10   62.37
  12  -5  -1  239.48  125.10
  12  -5   1  332.15  127.99
 -12   5   1  298.00   83.57
  12  -5   1  117.94   65.00
 -12   6  -1    3.56   74.30
  12  -6  -1  452.50  118.73
  12  -6   1  -12.42   52.37
  12  -6   1   -3.16  130.05
 -12   6   1  -11.10   73.60
  12  -7   1  483.55  175.77
  13   5  -1   -2.48   35.21
 -13  -5   1   -7.36   22.37
 -13  -2  -1   24.18  105.49
  13   2  -1    7.07   45.14
  13   2   1   46.64   42.92
 -13  -2   1  -46.12  100.79
  13   1  -1   58.73   46.65
 -13  -1  -1   99.49   23.99
 -13  -1  -1   78.44   97.51
 -13  -1   1    4.26   98.12
  13   1   1    4.72   45.17
 -13   0  -1    4.36   23.86
 -13   0  -1 -125.25   97.90
  13   0  -1   26.75   42.53
 -13   0   1   99.49   22.98
  13   0   1   40.02   45.16
 -13   0   1  -43.62   93.07
  13   0   1  -47.71  114.75
 -13   1  -1  141.10   88.79
 -13   1  -1   70.47   27.74
  13  -1  -1    9.74   44.81
 -13   1   1   82.08   27.87
  13  -1   1   48.80   48.95
 -13   1   1   32.80   86.83
  13  -1   1  147.75  117.77
 -13   2  -1   -8.89   21.54
 -13   2  -1   17.39   80.20
  13  -2  -1  -23.09   47.17
  13  -2   1    4.93   45.11
  13  -2   1   32.84  118.53
 -13   2   1   -6.99   77.58
  13  -3  -1  -25.16   51.53
 -13   3  -1  -57.22   77.05
  13  -3   1  427.27  126.00
  13  -3   1    2.64   43.63
 -13   3   1  -37.54   74.26
 -13   4  -1   94.65   72.75
  13  -4   1   -3.28  116.08
 -13   4   1   -3.50   72.76
  13  -4   1   93.55   49.22
 -13   5  -1   -3.52   76.53
  13  -5   1   69.61   55.57
  13  -6  -1  310.63  158.94
  13  -7   1 -260.28  159.21
  14   5  -1   58.05   48.10
 -14  -5   1   18.89   26.69
 -14  -4  -1  -15.65   25.57
  14   4  -1   -2.68   50.83
  14   4   1  -51.80   51.31
  14   3  -1   34.30   48.30
  14   3  -1   25.14  120.85
 -14  -3  -1    4.97   22.74
 -14  -3   1  197.01  131.76
  14   3   1    2.62   47.51
  14   3   1  -12.26  111.56
 -14  -2  -1  -11.87   24.00
  14   2  -1  -66.78  123.60
 -14  -2  -1  286.47  123.68
  14   2  -1  -66.06   45.45
  14   2   1 -172.55  111.53
 -14  -2   1   -7.15   25.48
  14   2   1   84.80   48.14
 -14  -2   1 -200.69  120.31
  14   1  -1  195.76   62.28
  14   1  -1   28.30  132.83
  14   1   1  -56.55  124.45
 -14  -1   1  722.02  115.48
 -14   0  -1   19.00   20.63
  14   0  -1 -175.86  129.10
  14   0  -1   -2.71   37.92
 -14   0   1   17.86   26.78
  14   0   1 -173.01  121.89
  14  -1  -1  175.57  134.01
 -14   1  -1   17.33   25.19
 -14   1   1   17.89   25.27
  14  -1   1   -3.18  131.76
 -14   2  -1  -15.06   25.93
  14  -2  -1   -2.85   45.95
  14  -2  -1  -34.10  137.49
 -14   2   1   55.28   28.10
  14  -2   1   59.45  131.02
  14  -3  -1   42.15  141.99
 -14   3  -1   23.50   31.16
 -14   3   1  277.25   83.50
  14  -3   1   10.28  139.94
  14  -4  -1  -69.36   57.39
 -14   4   1  -23.12   82.71
  14  -5  -1   14.63   66.65
 -14   5  -1   -3.85   86.09
  14  -5  -1 -161.90  154.69
  14  -5   1   17.24   60.85
  14  -5   1  -78.57  157.12
 -14   5   1   59.59   85.17
 -14   6  -1   20.62   85.67
  14  -6  -1   83.86  154.59
  14  -6  -1   29.76   63.10
 -14   6   1   -8.61   88.20
  14  -6   1   -3.62   66.06
  14  -6   1  244.02  158.86
  14  -7   1   23.88  155.64
  15   5  -1   12.27   51.58
 -15  -5   1   -2.97   29.65
 -15  -4  -1    2.87   27.31
  15   4  -1   38.95   54.21
  15   4   1  166.18   58.53
  15   4   1   38.20  124.14
 -15  -3  -1   19.28   29.41
  15   3  -1  -26.85   55.74
  15   3  -1   -3.46  136.92
 -15  -3  -1   98.84  148.66
  15   3   1    2.97   48.39
  15   3   1    3.37  127.47
 -15  -3   1   18.83  144.68
 -15  -3   1    2.75   27.46
 -15  -2  -1   29.07   27.60
  15   2  -1   53.61   56.97
  15   2  -1   76.88  135.90
 -15  -2  -1  102.37  134.53
  15   2   1  -56.23   48.31
 -15  -2   1 -110.17  138.33
 -15  -2   1  -26.54   24.99
  15   2   1   64.57  138.08
  15   1  -1 -110.14  146.20
 -15  -1  -1  -10.30   26.04
 -15  -1  -1   50.17  131.96
  15   1  -1   29.85   57.23
  15   1   1    9.00   56.10
 -15  -1   1    5.38  119.32
  15   1   1   -3.46  136.55
 -15  -1   1  -10.56   25.80
  15   0  -1   40.30   59.22
 -15   0  -1  -15.41  120.18
  15   0  -1 -360.60  148.91
 -15   0  -1    2.64   28.04
  15   0   1   48.44   58.20
 -15   0   1  -33.87   26.35
 -15   0   1 -222.93  118.92
  15   0   1 -361.60  138.52
 -15   1  -1 -195.13  107.24
 -15   1  -1   11.14   28.20
  15  -1  -1  -71.69   55.47
  15  -1  -1    3.63  145.86
 -15   1   1   18.63  105.82
  15  -1   1    9.05   52.75
 -15   1   1    2.89   29.15
  15  -1   1  101.28  146.88
 -15   2  -1   39.34   99.88
 -15   2  -1   25.42   29.96
  15  -2  -1   15.87   57.76
  15  -2  -1    3.73  149.12
 -15   2   1  -14.77   32.22
 -15   2   1   30.32   98.58
  15  -2   1  -34.57   57.63
  15  -2   1  236.24  148.90
  15  -3  -1 -215.26  163.82
 -15   3  -1 -133.05   93.23
 -15   3  -1   -8.69   29.84
  15  -3  -1   -3.43   59.23
 -15   3   1  -59.19   92.56
  15  -3   1   16.30   57.80
  15  -3   1 -194.92  154.96
  15  -4  -1   98.04   69.76
  15  -4  -1 -115.10  165.07
 -15   4  -1  -57.97   98.38
  15  -4   1  163.42   65.00
 -15   4   1   63.90   97.39
  15  -4   1  426.77  164.93
 -15   5  -1   -4.26   91.06
  15  -5  -1  115.05  166.23
  15  -5  -1  100.04   73.96
  15  -5   1  139.31  170.82
 -15   5   1   17.39   91.78
  15  -5   1    7.54   65.65
  15  -6  -1 -303.52  168.22
 -15   6  -1   62.64   93.79
  15  -6  -1    8.05   66.10
  15  -6   1  196.22  180.34
  15  -6   1   70.64   73.00
 -15   6   1   97.58   97.32
  15  -7  -1   12.91  168.33
  15  -7   1 -101.12  181.45
  16   5  -1   16.69   57.16
  16   4  -1   26.57   58.08
 -16  -4  -1   18.99   32.85
 -16  -4   1 -202.96  181.71
  16   4   1   20.23   58.83
  16   4   1  171.44  140.09
  16   3  -1  196.12  146.03
 -16  -3  -1   42.74   34.03
  16   3  -1   36.62   59.71
 -16  -3  -1    7.32  166.12
  16   3   1  -18.56  138.10
 -16  -3   1   55.70  162.07
 -16  -3   1   79.60   34.09
  16   3   1 -100.52   64.30
 -16  -2  -1   20.21  154.64
  16   2  -1   96.12  156.33
  16   2  -1   13.52   62.46
 -16  -2  -1    5.89   31.16
 -16  -2   1  -23.72   30.42
  16   2   1   37.40  145.06
  16   2   1  -73.52   59.71
 -16  -2   1  -78.47  154.22
 -16  -1  -1   22.97   32.36
 -16  -1  -1    6.24  142.18
  16   1  -1   34.22   65.81
  16   1  -1   35.32  154.93
 -16  -1   1   35.43   33.16
  16   1   1  478.20  159.51
 -16  -1   1   24.28  140.48
  16   1   1   20.04   61.40
 -16   0  -1  -11.46   29.59
  16   0  -1    6.85   63.65
  16   0  -1 -104.38  159.84
 -16   0  -1  -51.25  136.15
  16   0   1 -211.91  163.23
 -16   0   1   -6.14   32.08
  16   0   1   53.79   60.88
 -16   0   1   89.56  132.32
 -16   1  -1    6.15   32.35
  16  -1  -1   51.89   65.63
 -16   1  -1    5.25  119.81
  16  -1  -1   43.64  161.74
 -16   1   1   26.09   32.04
 -16   1   1   56.69  120.37
  16  -1   1   11.46  145.93
  16  -1   1   62.62   60.59
 -16   2  -1  162.10  113.09
  16  -2  -1  -18.14   68.08
  16  -2  -1  -94.16  169.78
 -16   2  -1   38.00   31.58
 -16   2   1    3.30   33.23
 -16   2   1  -96.93  110.66
  16  -2   1 -119.25  165.67
  16  -2   1   62.88   63.07
  16  -3  -1   49.34   65.92
 -16   3  -1  116.33  105.50
 -16   3  -1  -13.01   34.48
  16  -3  -1  295.12  183.28
 -16   3   1  -61.30  103.35
 -16   3   1    3.42   34.81
  16  -3   1  -45.35  172.45
  16  -3   1  -18.09   65.91
  16  -4  -1 -121.47  177.61
 -16   4  -1  -34.07   36.63
  16  -4  -1 -131.88   68.75
 -16   4  -1   64.34  103.51
  16  -4   1  -98.40  179.29
 -16   4   1   23.63  100.78
  16  -4   1  129.49   69.00
 -16   5  -1  -51.08  101.22
  16  -5  -1  131.25   77.10
  16  -5  -1  175.36  188.31
 -16   5   1   -4.77  102.50
  16  -5   1  -90.91   77.40
  16  -5   1 -333.81  197.66
 -16   6  -1    4.87  108.98
  16  -6  -1  -30.58   81.69
  16  -6  -1 -555.88  196.72
  16  -6   1 -179.70   83.78
  16  -6   1 -596.24  203.54
 -16   6   1   50.52  109.79
  16  -7  -1 -161.40  193.87
  16  -7   1  289.84  195.06
  17   5  -1    7.52   68.76
 -17  -5   1    8.86  202.24
 -17  -4  -1    7.01   32.03
 -17  -4  -1 -130.97  217.96
  17   4  -1 -306.56  167.98
  17   4  -1   41.20   66.96
 -17  -4   1   -3.52   28.99
 -17  -4   1    8.35  201.11
  17   4   1  -89.59   62.01
  17   3  -1   -4.15  159.50
  17   3  -1   63.58   70.38
 -17  -3  -1  235.09  202.37
 -17  -3  -1  -13.53   32.03
  17   3   1  -36.67  159.71
  17   3   1 -100.77   68.10
 -17  -3   1   57.75   34.24
 -17  -3   1  156.45  187.45
 -17  -2  -1   16.40   33.55
 -17  -2  -1  -60.76  183.91
  17   2  -1 -122.11  164.73
  17   2  -1    3.75   72.41
 -17  -2   1   46.45   34.54
 -17  -2   1  -36.51  176.77
  17   2   1 -477.12  163.39
  17   2   1 -102.25   69.36
  17   1  -1  258.09  180.89
  17   1  -1    3.79   70.69
 -17  -1  -1 -105.33  169.82
 -17  -1  -1  -51.07   34.05
 -17  -1   1  -36.12   33.70
 -17  -1   1  -13.44  153.62
  17   1   1  174.85  173.28
  17   1   1    7.65   69.91
 -17   0  -1    6.41  149.30
 -17   0  -1   -3.20   35.55
  17   0  -1  586.72  182.30
  17   0  -1   11.36   71.16
  17   0   1  229.99   75.41
 -17   0   1   20.40   37.13
 -17   0   1  142.34  145.03
 -17   1  -1   47.60  138.93
  17  -1  -1    3.94   72.46
  17  -1  -1  712.17  191.74
 -17   1  -1  -23.35   32.38
  17  -1   1  450.25  180.26
  17  -1   1 -103.69   73.58
 -17   1   1    5.77  129.60
 -17   1   1   -3.61   39.50
 -17   2  -1   -5.45  132.51
 -17   2  -1  -24.94   38.78
  17  -2  -1 -326.18  193.70
  17  -2  -1   24.26   75.30
  17  -2   1 -167.09   76.47
 -17   2   1  -40.94   37.45
 -17   2   1   65.40  124.53
 -17   3  -1   54.65   36.16
  17  -3  -1 -205.88   75.02
 -17   3  -1 -219.18  127.20
  17  -3  -1 -165.34  184.37
 -17   3   1   15.34   38.50
  17  -3   1  -37.31   74.03
 -17   3   1   -5.26  113.82
  17  -3   1 -207.78  189.69
 -17   4  -1   79.54   41.73
  17  -4  -1  -92.37   76.13
 -17   4  -1   61.32  123.39
  17  -4  -1   94.59  202.24
 -17   4   1   96.61   41.84
  17  -4   1 -199.64   81.90
 -17   4   1  215.36  120.05
  17  -4   1 -181.87  194.71
  17  -5  -1  619.61  205.85
 -17   5  -1   97.27  115.10
 -17   5  -1   12.00   42.46
  17  -5  -1  -86.04   86.06
  17  -5   1  -86.32   80.88
 -17   5   1  136.76  117.53
  17  -5   1   63.00  207.99
  17  -6  -1   47.57   84.67
 -17   6  -1  233.95  118.75
  17  -6  -1 -151.82  212.05
 -17   6   1  -82.78  120.98
  17  -6   1   88.66   86.03
  17  -6   1  403.29  219.06
  17  -7  -1 -140.60  213.61
  17  -7   1  -47.36  222.71
  18   5  -1   55.06   76.97
 -18  -5   1  333.76  245.69
 -18  -4  -1  -30.98   36.08
 -18  -4  -1  164.38  234.06
  18   4  -1   88.01  176.15
  18   4  -1 -139.81   77.89
  18   4   1   46.31   76.40
 -18  -4   1   46.18  220.31
 -18  -4   1  -31.22   41.38
 -18  -3  -1 -317.23  221.21
  18   3  -1  -50.83   77.88
  18   3  -1   59.31  177.45
 -18  -3  -1   11.30   37.46
 -18  -3   1 -175.66  211.68
  18   3   1 -356.71   81.06
 -18  -3   1   22.75   32.76
  18   3   1  224.63  173.60
  18   2  -1  152.91  178.12
 -18  -2  -1 -424.12  204.63
 -18  -2  -1  -18.25   35.08
  18   2  -1    8.58   79.22
  18   2   1  370.98  172.91
  18   2   1   -4.20   77.60
 -18  -2   1   14.83   34.01
 -18  -2   1   41.04  195.48
 -18  -1  -1 -134.16  193.75
  18   1  -1   21.57   81.68
  18   1  -1 -249.52  194.76
 -18  -1  -1  107.29   36.70
  18   1   1 -140.01   77.76
 -18  -1   1   -7.54  176.84
 -18  -1   1    3.67   35.14
  18   1   1 -209.29  184.16
  18   0  -1 -191.15   80.94
 -18   0  -1    3.56   35.04
  18   0  -1    4.79  194.65
 -18   0  -1  162.67  162.32
  18   0   1    4.23   73.42
 -18   0   1   33.31   36.74
 -18   0   1  -83.98  161.24
  18   0   1  -83.96  185.52
 -18   1  -1 -111.67  149.21
 -18   1  -1    3.70   38.57
  18  -1  -1  294.15  199.39
  18  -1  -1   87.51   81.10
  18  -1   1   12.85   77.93
 -18   1   1    6.49  149.19
 -18   1   1    3.91   38.72
  18  -1   1   60.31  193.21
 -18   2  -1  274.73  140.12
  18  -2  -1   -4.50   77.62
  18  -2  -1 -296.81  208.11
 -18   2  -1  -70.64   41.65
 -18   2   1   -6.13  138.06
  18  -2   1    9.44  198.49
  18  -2   1   48.96   78.55
 -18   2   1  -79.60   44.19
 -18   3  -1 -110.93  132.18
  18  -3  -1  -40.19  214.84
  18  -3  -1  135.37   86.63
 -18   3  -1  -81.55   44.94
  18  -3   1  -19.66  215.80
 -18   3   1  -42.99   43.10
 -18   3   1    5.86  128.59
  18  -3   1  -73.71   85.50
  18  -4  -1    4.99   84.50
 -18   4  -1   45.66  124.31
  18  -4  -1   92.66  223.66
 -18   4  -1  117.90   44.78
 -18   4   1   -5.86  133.50
  18  -4   1  -35.76  218.11
 -18   4   1   35.80   44.18
  18  -4   1   19.20   89.50
 -18   5  -1  -28.34  119.50
  18  -5  -1  -41.89   89.96
 -18   5  -1   -4.40   46.81
  18  -5  -1  132.70  235.20
 -18   5   1  -23.27  126.30
 -18   5   1  -42.46   46.67
  18  -5   1  386.89  226.47
  18  -5   1   45.05   91.79
  18  -6  -1  135.16  116.39
  18  -6  -1  311.94  242.65
 -18   6  -1  396.47  158.82
  18  -6   1  756.01  253.68
  18  -6   1   86.78  113.67
 -18   6   1  641.58  167.52
  18  -7  -1  153.19  239.68
  18  -7   1    5.68  241.29
 -19  -4  -1 -234.79  248.12
 -19  -4  -1    4.28   39.69
  19   4  -1 -138.07  206.17
  19   4  -1   23.41   86.85
 -19  -4   1  322.04  258.27
  19   4   1    4.76   87.79
 -19  -4   1   30.36   44.60
  19   3  -1 -160.98  192.71
 -19  -3  -1  345.72  260.60
 -19  -3  -1  -41.90   39.09
  19   3  -1    4.70   90.49
 -19  -3   1   29.66   43.16
  19   3   1  -44.66  193.88
 -19  -3   1  322.48  246.82
  19   3   1   -4.75   87.71
 -19  -2  -1  -16.32   43.11
 -19  -2  -1   66.50  227.54
 -19  -2   1   64.60  219.83
 -19  -2   1  -33.23   40.82
 -19  -1  -1   86.84  220.22
  19   1  -1  447.07  116.48
 -19  -1   1   91.52  212.03
  19   1   1   86.93  109.33
  19   0  -1 1209.95  222.58
 -19   0  -1  767.39  283.14
 -19   0   1  629.60  277.68
 -19   1  -1  346.46  216.18
  19  -1  -1  656.57  147.28
 -19   1   1  281.86  203.93
 -19   2  -1  -12.77   49.02
 -19   2  -1 -482.20  187.20
  19  -2   1 -432.78  101.06
 -19   2   1 -129.74   53.80
 -19   2   1 -403.42  169.77
  19  -3  -1    5.35   95.96
 -19   3  -1   78.54  145.62
  19  -3  -1 -595.60  250.21
 -19   3  -1  -50.28   50.21
  19  -3   1   -5.12   89.68
 -19   3   1    9.63   48.12
  19  -3   1   -5.34  228.85
 -19   3   1  -52.76  142.20
 -19   4  -1  -61.49   49.47
 -19   4  -1  147.38  143.01
  19  -4  -1 -191.48  235.19
  19  -4  -1   66.27   92.52
  19  -4   1   26.57   89.81
  19  -4   1 -283.82  235.39
 -19   4   1  -19.92   51.40
 -19   4   1 -254.96  145.16
 -19   5  -1  -24.56   51.91
 -19   5  -1   56.63  141.04
  19  -5  -1 -178.38  101.02
  19  -5  -1 -342.34  248.79
  19  -5   1 -172.43  100.70
  19  -5   1  -34.58  239.52
 -19   5   1   93.48   51.92
 -19   5   1  -71.18  140.63
 -19   6  -1   -6.43  145.40
  19  -6  -1 -205.21  100.62
  19  -6  -1 -291.72  257.15
 -19   6  -1   15.42   54.98
 -19   6   1 -160.23  149.66
  19  -6   1  111.64   94.92
  19  -6   1   47.82  251.98
  19  -7  -1 -374.11  269.86
  19  -7   1 -117.46  269.59
  20   3  -1   48.39   97.55
 -20  -3  -1  180.64  269.55
  20   3   1  -21.08   95.40
 -20  -3   1 -406.39  261.41
 -20  -2  -1 -159.81  258.00
  20   2  -1  160.49  223.68
  20   2  -1    5.41   98.02
 -20  -2  -1   36.54   47.10
 -20  -2   1 -203.43  236.58
 -20  -2   1   -9.31   39.05
  20   2   1 -239.63   97.12
  20   2   1 -124.64  211.04
 -20  -1  -1  -71.88   48.09
  20   1  -1  157.76  237.30
  20   1  -1   -5.46   99.69
 -20  -1  -1   39.19  226.32
  20   1   1   22.02  218.05
  20   1   1 -250.52   97.91
 -20  -1   1   -9.23   45.55
 -20  -1   1   18.85  231.50
  20   0  -1   11.52  229.16
 -20   0  -1   26.67   42.44
 -20   0  -1  508.29  208.30
  20   0  -1   21.91   96.82
  20   0   1    5.59  228.44
  20   0   1 -144.81   93.87
 -20   0   1  -50.95   48.16
 -20   0   1   17.48  208.80
  20  -1  -1   29.22  245.00
  20  -1  -1  -89.18   99.11
 -20   1  -1  221.82  203.26
 -20   1  -1   22.51   44.71
  20  -1   1    5.41   94.88
  20  -1   1   74.74  229.64
 -20   1   1  -94.40   47.86
 -20   1   1  227.74  193.72
  20  -2  -1    5.75  100.85
 -20   2  -1  176.92  182.26
 -20   2  -1   66.08   50.77
  20  -2  -1  371.75  249.26
  20  -2   1 -194.15   96.57
  20  -2   1 -154.22  238.99
 -20   2   1   10.04   46.44
 -20   2   1 -224.00  171.86
 -20   3  -1    7.33  171.14
 -20   3  -1   20.15   50.19
  20  -3  -1  238.36  105.57
  20  -3  -1 -356.21  256.95
 -20   3   1  259.90  171.57
 -20   3   1  -43.28   55.03
  20  -3   1 -228.42  103.22
  20  -3   1  240.76  255.33
 -20   4  -1   69.12   53.14
 -20   4  -1  -57.61  165.49
  20  -4  -1 -153.39  112.37
  20  -4   1    6.06  107.14
  20  -4   1  253.89  262.61
 -20   4   1 -138.99  157.56
 -20   5  -1   16.46   58.13
 -20   5  -1  -77.13  157.09
  20  -5  -1 -234.22  112.01
 -20   5   1  -21.68  155.97
  20  -5   1 -182.28  259.58
  20  -5   1 -220.99  114.66
 -20   6  -1   49.90  164.45
  20  -6   1 -380.95  114.83
  -1   0  -2   -0.43    3.67
   0   1  -2   -1.24    1.53
   0   1  -2    0.23    0.59
   0  -1   2    0.20    0.57
   0  -1   2   -0.23    2.39
   1   0   2   -0.28    1.36
   1   0   2   -5.40    5.29
   0  -1   2    0.43    0.73
   2   1  -2   54.50   19.72
   2   1  -2   69.71   15.29
   2   0  -2  723.91  160.96
  -2   0  -2  802.71  153.69
  -2   0  -2  755.65  191.96
   2   0  -2  610.19  180.31
   2   0   2  706.10  168.10
   2   0   2  695.60  182.18
  -2   0   2  675.39  167.89
   2   0   2  799.45  161.84
   2   0   2  707.80  163.53
  -2   1  -2   68.56   15.85
   2  -1  -2   38.98   17.52
  -2   1  -2   69.19   17.80
   2  -1   2   90.21   16.89
   2  -1   2   85.96   20.36
  -2   1   2   69.65   17.50
   2  -1   2   72.28   16.09
   2  -1   2   64.61   16.75
  -2   2  -2   55.46   20.52
   2  -2   2  104.45   21.24
  -2  -2   2  124.80   20.46
   2  -2   2   93.64   25.12
   3   2  -2  721.80  159.36
  -3  -2   2  624.75  139.96
  -3  -1  -2   29.85    6.73
   3   1  -2   28.01    8.00
   3   1  -2   33.30   17.09
  -3  -1   2   24.97    6.60
   3   1   2   18.97   17.50
   3   0  -2   -6.24   16.41
  -3   0  -2   -3.28   19.86
   3   0  -2    0.93    5.59
  -3   0  -2    1.57    2.48
   3   0   2   -2.54    7.31
   3   0   2   -1.53    3.95
   3   0   2   -3.76   14.14
  -3   0   2   -0.71   10.02
   3   0   2   -0.70   10.05
  -3   1  -2   22.99   12.12
   3  -1  -2   15.33    8.92
  -3   1   2   26.06   11.12
   3  -1   2   19.28    8.95
   3  -1   2   28.25    7.57
   3  -1   2   36.69    9.33
   3  -1   2   26.99   16.47
  -3   2  -2  524.57  124.00
  -3   2  -2  658.72  115.96
   3  -2   2  515.98  137.77
   3  -2   2  433.74  121.79
   3  -2   2  470.65  124.03
   3  -2   2  545.15  118.59
  -3   3  -2    6.18    5.06
   3  -3   2   -0.50    6.28
   4   2  -2  202.54   49.62
   4   2  -2  199.46   59.24
  -4  -2   2  222.94   45.54
   4   1  -2   14.28   20.86
  -4  -1  -2    0.58    3.69
   4   1  -2   20.07    8.07
   4   1   2   -0.84   20.69
   4   1   2    1.15    6.85
  -4  -1   2   -1.69    3.96
  -4   0  -2   26.37    7.92
  -4   0  -2   29.71   27.43
   4   0  -2   27.98   10.54
   4   0   2   35.71    9.94
  -4   0   2   36.81   16.83
   4   0   2   33.92   21.39
   4   0   2   51.70   15.20
   4   0   2   36.11   12.71
   4  -1  -2    2.99    9.62
  -4   1  -2    1.70   14.37
  -4   1  -2    4.19   24.84
  -4   1   2    8.41   14.15
   4  -1   2    5.81    9.10
   4  -1   2    3.75    6.78
   4  -1   2   10.32   21.79
   4  -1   2    4.64    9.98
   4  -2  -2  182.20   62.06
   4  -2  -2  187.73   55.24
  -4   2  -2  236.53   51.50
  -4   2  -2  211.94   56.54
   4  -2   2  262.41   53.11
   4  -2   2  233.51   55.28
   4  -2   2  250.49   64.01
  -4   2   2  206.90   56.31
   4  -2   2  319.04   53.57
  -4   3  -2  413.42  118.66
  -4   3  -2  617.08  128.83
   4  -3   2  547.62  141.90
   4  -3   2  669.84  126.75
   4  -3   2  537.69  120.81
   5   2  -2  897.32  198.47
   5   1  -2   64.42   15.70
  -5  -1  -2   37.47   11.86
   5   1   2   65.04   27.96
   5   1   2   53.30   14.97
   5   1   2   49.96   30.61
   5   0  -2   -3.73   10.48
  -5   0  -2   -4.69    5.29
  -5   0  -2    0.92   35.61
  -5   0   2   -8.33   19.61
   5   0   2   -2.39   13.65
   5   0   2    1.82   27.27
   5   0   2    4.09   15.63
   5   0   2   -1.99    9.44
  -5   1  -2   87.25   24.24
   5  -1  -2   38.36   18.03
  -5   1  -2   46.94   35.56
  -5   1   2   66.49   23.91
   5  -1   2   45.07   33.30
   5  -1   2   68.62   17.51
   5  -1   2   49.60   17.73
   5  -1   2   69.76   16.49
  -5   2  -2  794.17  191.50
  -5   2  -2  649.36  179.34
   5  -2   2  852.13  208.82
   5  -2   2  830.54  181.75
   5  -2   2  958.25  184.52
   5  -2   2  830.46  186.89
  -5   3  -2  162.50   35.00
  -5   3  -2  159.07   42.74
   5  -3   2  201.74   41.27
   5  -3   2  170.72   53.97
   5  -3   2  188.18   39.62
   5  -3   2   91.35   36.65
   6   3  -2 1121.60  273.41
   6   3  -2 1140.87  253.62
  -6  -3   2 1148.75  240.03
  -6  -2  -2   60.40   14.27
   6   2  -2   31.87   18.15
   6   2  -2   57.01   42.57
  -6  -2   2   74.39   14.01
   6   2   2   33.31   41.13
   6   2   2   41.89   18.26
   6   1  -2  126.71   29.75
   6   1  -2   83.50   50.81
  -6  -1  -2  141.62   26.24
   6   1   2   95.17   41.06
  -6  -1   2  109.02   25.90
   6   1   2   75.58   47.80
  -6   0  -2   97.38   52.97
   6   0   2  101.71   27.41
   6   0   2   72.06   27.89
   6  -1  -2  133.04   31.62
  -6   1  -2   79.70   55.88
   6  -1  -2  169.21   33.59
   6  -1  -2  128.16   54.71
  -6   1  -2  142.59   30.13
   6  -1   2   87.61   33.74
   6  -1   2  136.15   32.98
  -6   1   2  142.51   39.90
  -6   2  -2   65.50   14.80
   6  -2  -2   20.12   45.92
   6  -2  -2   69.77   22.86
   6  -2   2   50.52   20.22
  -6   2   2   57.52   29.53
   6  -2   2   28.32   17.75
   6  -3  -2 1199.02  244.32
   6  -3  -2  881.36  268.92
   6  -3   2 1073.03  241.08
   6  -3   2 1312.87  276.93
   6  -3   2  830.39  252.09
  -6   3   2 1170.27  251.30
  -6   4  -2   74.82   31.09
   6  -4   2    4.52   24.90
   6  -4   2   79.40   46.67
   7   4  -2    7.00   19.23
  -7  -4   2   -6.29    9.93
  -7  -3  -2  264.36   54.12
   7   3  -2  287.35   76.12
   7   3  -2  203.18   58.57
  -7  -3   2  252.67   53.40
   7   2  -2   48.18   23.04
  -7  -2  -2   65.61   17.00
   7   2  -2  101.46   51.28
   7   2   2   96.17   50.07
  -7  -2   2   73.53   16.51
   7   2   2   60.45   22.35
   7   1  -2   -4.76    8.38
   7   1  -2    9.40   16.05
  -7  -1  -2    8.76    8.68
  -7  -1   2   -1.03    9.22
   7   1   2    8.02   30.54
   7   1   2    5.50   43.70
   7   1   2   10.35   14.07
  -7   0  -2    6.13   53.09
   7   0  -2    1.41    5.56
   7   0  -2    2.09   10.30
  -7   0  -2    4.88    9.18
   7   0  -2   -1.09   16.69
  -7   0   2  -15.31   27.21
   7   0   2   -5.65   21.23
  -7   0   2    3.46   34.27
  -7   0   2   -1.09    3.64
   7   0   2   -0.97   14.02
   7   0   2   22.32   44.02
   7   0   2   15.87   20.48
   7  -1  -2    1.17   18.51
   7  -1  -2  -13.72   52.82
  -7   1  -2   -3.16    9.98
  -7   1  -2   -8.13   32.72
  -7   1  -2  -12.31   47.92
   7  -1  -2   -0.32   11.05
  -7   1   2  -14.90   32.23
   7  -1   2   -3.71   15.95
   7  -1   2   -6.19   18.51
   7  -1   2    1.01   15.62
   7  -1   2  -28.32   46.83
   7  -2  -2   70.67   53.15
  -7   2  -2   73.21   15.66
  -7   2  -2   -3.14   36.04
   7  -2  -2   46.32   24.20
   7  -2  -2   53.96   19.99
  -7   2  -2  -31.99   59.39
   7  -2   2   38.14   22.83
   7  -2   2   65.72   23.61
   7  -2   2   -8.63   57.42
  -7   2   2   36.86   33.08
   7  -2   2   32.52   19.20
  -7   3  -2  216.71   59.72
   7  -3  -2  135.55   54.37
   7  -3  -2  172.65   76.36
  -7   3   2  226.93   60.18
   7  -3   2  224.49   77.27
   7  -3   2  233.53   52.46
   7  -3   2  232.77   54.05
   7  -4  -2   -8.17   50.19
  -7   4  -2   24.30   34.05
   7  -4   2    8.62   27.09
   7  -4   2  -37.06   55.32
  -7   4   2   -3.96   34.39
   7  -5   2  -64.19   60.66
   7  -5   2   -3.84   30.96
   8   4  -2  879.70  193.74
   8   4  -2  817.43  212.64
   8   3  -2   44.05   24.86
  -8  -3  -2   70.00   16.82
   8   3  -2   37.10   64.21
   8   3   2  -15.98   65.61
   8   3   2   51.99   23.90
  -8  -3   2   77.49   17.17
   8   2  -2   38.22   25.85
  -8  -2  -2   92.81   19.32
   8   2  -2   93.43   27.42
   8   2  -2   70.30   61.60
   8   2   2   -1.91   48.70
  -8  -2   2   70.51   19.24
   8   2   2  117.82   27.07
   8   2   2   19.53   65.33
  -8  -1  -2  -15.74    9.34
   8   1  -2    1.22   18.76
   8   1  -2   -2.69    9.64
   8   1   2  -30.53   29.04
   8   1   2    8.47   19.00
   8   1   2   17.36   54.42
  -8  -1   2   77.92   47.31
   8   0  -2   38.20   24.32
  -8   0  -2   95.99   16.60
   8   0  -2   46.44   15.58
  -8   0  -2   73.15   63.58
   8   0  -2   54.78   19.05
  -8   0  -2   53.84   44.47
   8   0   2   73.27   27.57
   8   0   2   57.94   24.39
   8   0   2   39.64   54.48
  -8   0   2   63.05   13.88
   8   0   2   68.23   25.38
  -8   0   2   37.03   35.51
  -8   0   2   85.44   43.08
   8  -1  -2  -28.21   64.11
   8  -1  -2    0.79   13.62
  -8   1  -2   -9.61   41.14
  -8   1  -2   -6.65   10.18
  -8   1  -2  -59.70   60.75
  -8   1  -2   -4.12   10.58
   8  -1  -2  -40.46   23.79
  -8   1   2   13.40   36.68
   8  -1   2   -0.79   22.37
   8  -1   2   14.47   17.83
   8  -1   2  -45.55   56.72
   8  -1   2  -25.35   20.39
  -8   1   2   -5.94   36.92
   8  -2  -2   84.12   27.40
  -8   2  -2    8.88   68.72
   8  -2  -2   58.67   19.89
   8  -2  -2   28.87   72.35
  -8   2  -2   58.47   40.65
  -8   2  -2   21.40   15.07
   8  -2   2  -30.85   28.26
   8  -2   2   18.37   29.21
   8  -2   2   -0.80   23.76
  -8   2   2   53.45   41.23
   8  -3  -2   21.54   33.80
   8  -3  -2 -167.60   73.10
   8  -3  -2   34.10   25.54
  -8   3  -2  -18.51   43.54
  -8   3   2    6.02   43.66
   8  -3   2  -56.72   30.29
   8  -4  -2  905.19  216.09
   8  -4  -2  836.71  190.24
  -8   4  -2  962.14  200.86
   8  -4   2  910.39  224.33
  -8   4   2  457.79  199.34
   8  -4   2  918.73  190.20
  -8   5  -2  431.67  119.11
   8  -5   2  600.71  136.25
   8  -5   2  477.61  110.91
   8  -5   2  409.53  117.32
   9   4  -2   17.76   65.65
   9   4  -2   24.44   26.79
  -9  -4   2   -4.64   12.78
   9   3  -2  565.87  133.95
   9   3  -2  695.56  154.08
  -9  -3  -2  626.42  126.44
   9   3   2  599.95  152.95
   9   3   2  564.29  134.65
  -9  -3   2  508.73  124.44
   9   2  -2   46.44   67.90
   9   2  -2  -15.74   22.18
  -9  -2  -2   -1.37   11.53
   9   2   2  -36.42   60.87
   9   2   2  -20.27   22.27
   9   2   2   49.28   42.69
  -9  -2   2   -6.83    9.92
  -9  -1  -2   -5.14   11.13
   9   1  -2    1.43   24.39
   9   1   2   12.43   23.41
  -9  -1   2   12.51   51.60
   9   1   2   19.72   63.06
   9   1   2   13.64   30.31
  -9   0  -2  -16.77   66.68
   9   0  -2   15.30   69.52
  -9   0  -2   17.31   11.60
  -9   0  -2  -21.64   51.95
   9   0  -2  -17.57   25.42
   9   0   2   -9.33   27.44
   9   0   2   -8.70   60.44
   9   0   2    6.55   22.42
  -9   0   2   35.29   46.78
   9   0   2   19.15   22.44
  -9   1  -2   -7.08   68.28
  -9   1  -2   -2.24   50.28
   9  -1  -2   21.55   25.58
  -9   1  -2    8.15   12.15
  -9   1  -2    2.56   11.26
   9  -1  -2   48.02   73.81
   9  -1   2   25.56   26.12
   9  -1   2   -8.39   23.84
  -9   1   2   63.83   44.45
   9  -1   2    4.18   19.97
   9  -1   2  -30.49   68.49
   9  -2  -2   -3.34   26.00
   9  -2  -2   41.12   75.51
  -9   2  -2  -37.91   43.42
  -9   2  -2   26.83   65.62
  -9   2   2    2.17   42.78
   9  -2   2  -60.52   74.74
   9  -2   2    8.84   24.38
  -9   3  -2  356.41  142.18
   9  -3  -2  462.39  140.07
   9  -3  -2  826.13  163.16
   9  -3  -2  654.76  134.77
   9  -3   2  630.84  132.91
   9  -3   2  540.61  135.62
   9  -3   2  759.63  166.05
  -9   3   2  591.58  143.19
  -9   4  -2  -28.83   44.29
   9  -4  -2   27.83   75.24
   9  -4  -2   41.16   35.49
   9  -4   2   60.57   33.77
   9  -4   2   14.51   74.83
   9  -4   2    6.75   30.72
  -9   4   2   19.16   46.10
   9  -5  -2  161.58   96.77
  -9   5  -2  160.10   77.85
   9  -5   2  237.34   72.98
   9  -5   2  368.70   69.54
   9  -5   2  391.79  106.27
   9  -6   2  471.35  124.21
   9  -6   2  290.77   94.15
  10   5  -2  134.24   56.89
 -10  -5   2  279.73   49.25
  10   4  -2  227.65   80.75
  10   4  -2  426.91  108.44
 -10  -4   2  364.15   72.56
 -10  -3  -2   45.24   17.48
  10   3  -2   38.54   30.75
  10   3  -2   98.80   77.90
  10   3   2   32.89   30.42
 -10  -3   2   34.73   16.74
  10   3   2   56.85   71.31
  10   2  -2   70.31   32.48
 -10  -2  -2   84.78   21.51
  10   2   2   77.21   73.03
  10   2   2   64.01   31.76
  10   1  -2  -22.85   27.67
 -10  -1  -2   -8.75   12.76
 -10  -1   2   54.23   61.24
  10   1   2  -10.11   72.50
  10   1   2   -9.42   24.53
 -10   0  -2   42.42   17.25
 -10   0  -2   16.59   59.61
  10   0  -2   33.33   28.87
  10   0  -2   58.06   79.48
  10   0   2   21.65   72.04
 -10   0   2   36.01   16.79
 -10   0   2   88.69   58.29
  10   0   2    9.42   26.27
 -10   1  -2  -30.77   53.48
 -10   1  -2   28.59   78.72
  10  -1  -2 -142.94   82.42
  10  -1  -2  -24.39   29.15
 -10   1  -2   29.61   14.70
  10  -1   2  -55.01   78.48
 -10   1   2  -75.48   52.41
  10  -1   2    1.60   26.27
  10  -2  -2   65.51   34.55
  10  -2  -2   67.44   89.65
 -10   2  -2   60.27   52.53
  10  -2   2   95.65   81.96
 -10   2   2   85.88   52.13
  10  -2   2   30.15   30.78
  10  -3  -2   27.47   36.24
 -10   3  -2   42.70   17.35
 -10   3  -2  158.71   78.84
  10  -3  -2   49.43   87.38
 -10   3  -2   85.03   53.27
  10  -3   2   52.44   32.24
 -10   3   2    2.49   53.64
  10  -3   2   26.79   29.81
  10  -3   2   25.60   23.61
  10  -3   2   47.25   87.02
 -10   4  -2  260.13   91.77
  10  -4  -2  416.35   83.58
  10  -4  -2  303.42  118.06
  10  -4   2  333.80   79.16
  10  -4   2  239.70   79.47
 -10   4   2  324.47   90.47
  10  -4   2  377.43  124.23
  10  -5  -2  378.91  105.12
 -10   5  -2  180.01   74.95
  10  -5  -2  186.18   64.34
  10  -5   2  191.01   64.41
  10  -5   2  388.51  107.50
  10  -5   2  172.83   62.53
 -10   5   2  163.39   76.50
  10  -6   2  -22.84   46.59
  10  -6   2  105.11   97.89
  11   5  -2  106.19   50.72
 -11  -5   2  190.57   39.42
 -11  -4  -2    5.90   18.57
  11   4  -2    1.93   31.23
  11   4  -2    7.12   83.26
 -11  -4   2  -17.04   18.40
  11   4   2  -36.18   35.38
  11   3  -2  154.49   91.86
 -11  -3  -2   77.68   25.04
  11   3  -2   86.88   39.67
 -11  -3   2   58.36   22.82
  11   3   2  113.02   82.48
  11   3   2   85.41   37.69
 -11  -2  -2   22.43   17.10
  11   2  -2   38.74   29.21
  11   2   2  -31.64   84.71
  11   2   2    9.28   33.40
 -11  -2   2   -7.12   78.03
 -11  -1  -2   60.88   20.40
  11   1  -2   13.13   32.44
 -11  -1   2   -3.25   69.95
  11   1   2   86.58   33.72
  11   1   2  120.16   86.07
 -11   0  -2   -8.52   16.50
 -11   0  -2  -28.27   68.96
  11   0  -2  -67.58   93.21
  11   0  -2   13.59   33.20
 -11   0   2   -8.97   16.19
  11   0   2  -30.95   33.20
  11   0   2  -22.03   84.49
 -11   0   2   43.08   67.94
  11  -1  -2    7.84   34.22
 -11   1  -2   -5.89   64.60
  11  -1  -2  -37.41   97.86
 -11   1  -2   26.91   16.93
 -11   1   2   48.68   62.71
  11  -1   2   37.48   33.44
  11  -1   2 -116.90   92.41
  11  -2  -2   46.02   33.52
 -11   2  -2   19.20   60.06
 -11   2  -2   11.98   16.41
  11  -2  -2   36.27   99.49
 -11   2   2    8.28   58.65
  11  -2   2    1.97   33.15
  11  -2   2  -90.36   92.59
 -11   3  -2   92.89   60.00
  11  -3  -2   67.53   43.19
  11  -3  -2  129.54  105.62
  11  -3   2   80.41  102.03
 -11   3   2  131.04   62.88
  11  -3   2   54.44   43.33
 -11   4  -2  -10.88   58.76
  11  -4  -2  -15.77   46.86
  11  -4  -2  -29.70  105.07
 -11   4   2  -17.61   59.72
  11  -4   2 -103.30  102.51
  11  -4   2   49.80   39.11
  11  -5  -2  191.98   63.79
 -11   5  -2  188.17   76.91
  11  -5  -2   90.29  115.15
 -11   5   2  119.76   73.65
  11  -5   2  230.25  118.63
  11  -5   2  199.56   61.40
 -11   6  -2   42.21   70.07
  11  -6   2   97.70  114.00
  11  -7   2 -101.22  118.86
  12   5  -2   15.61   36.43
 -12  -5   2   -2.23   19.54
  12   4  -2    7.83   90.08
  12   4  -2  -43.22   40.93
 -12  -4  -2   41.23   19.00
 -12  -4   2   48.22   21.80
  12   4   2   29.15   36.77
  12   3  -2  -18.75   38.59
 -12  -3  -2    2.05   19.74
  12   3   2   12.89   36.90
  12   3   2  -65.81   87.40
 -12  -3   2   15.82   19.58
 -12  -2  -2   23.08   19.18
  12   2  -2   -4.21   38.18
 -12  -2   2  -36.15   92.87
  12   2   2   20.85   37.39
  12   2   2   70.09   94.64
  12   1  -2  -54.31  106.37
 -12  -1  -2   -1.85   16.95
  12   1  -2  -18.93   37.21
 -12  -1  -2   43.63   91.83
 -12  -1   2 -141.24   94.00
  12   1   2   83.39   94.40
  12   1   2  -18.30   38.75
 -12  -1   2   -2.03   21.44
 -12   0  -2   65.48   25.84
  12   0  -2   52.37   45.01
  12   0  -2  317.01  116.97
 -12   0  -2   82.78   87.97
 -12   0   2    6.97   85.43
  12   0   2  161.01  100.76
 -12   0   2  101.14   27.28
  12   0   2   49.22   43.88
 -12   1  -2  -13.39   78.89
 -12   1  -2   42.26   20.47
  12  -1  -2  -15.96   39.48
  12  -1  -2  -41.43  109.26
  12  -1   2  -12.70   37.84
 -12   1   2  -31.10   22.72
 -12   1   2  -80.98   78.48
  12  -1   2 -153.30  101.13
 -12   2  -2  -26.93   20.19
 -12   2  -2   -6.21   72.21
  12  -2  -2   11.66   42.08
  12  -2  -2  -20.02  114.17
  12  -2   2 -183.24  105.69
  12  -2   2  -44.08   38.93
 -12   2   2  -65.06   70.52
  12  -3  -2 -100.24  114.96
 -12   3  -2   -2.98   65.33
  12  -3  -2   15.43   47.24
  12  -3   2   42.09   39.81
 -12   3   2  -37.21   67.93
  12  -3   2  121.96  112.42
  12  -4  -2  159.10  119.80
 -12   4  -2   48.14   64.99
  12  -4  -2  -22.92   44.86
  12  -4   2   15.19   42.98
 -12   4   2   80.86   66.43
  12  -4   2 -152.03  114.24
  12  -5  -2  -21.30  115.57
 -12   5  -2   19.00   68.25
  12  -5  -2  -27.76   53.33
  12  -5   2  -31.43   47.80
  12  -5   2 -229.32  120.04
 -12   5   2    3.43   67.15
 -12   6  -2   24.38   71.85
  12  -6   2 -191.10  133.29
  12  -6   2  -48.89   54.91
  12  -7   2  235.42  142.18
  13   5  -2   -2.45   36.09
 -13  -5   2   12.27   22.02
  13   2  -2   -2.36   40.43
 -13  -2   2  -99.07  104.25
  13   2   2   37.59   42.26
 -13  -1  -2   31.24  104.24
  13   1  -2  -14.44   47.68
 -13  -1  -2   22.63   22.48
  13   1   2  307.50  104.13
 -13  -1   2  -46.37   97.09
  13   1   2   25.58   43.50
 -13   0  -2   37.64   20.38
  13   0  -2   12.18   44.27
 -13   0  -2    4.10   95.63
  13   0   2   16.50   42.60
  13   0   2   32.90  104.98
 -13   0   2 -132.01   87.77
 -13   1  -2   11.21   87.89
  13  -1  -2   32.95   47.25
 -13   1  -2   41.10   22.40
 -13   1   2    3.66   83.74
  13  -1   2   54.59   42.84
  13  -1   2  110.18  110.97
 -13   2  -2    3.52   77.33
 -13   2  -2    6.53   22.47
  13  -2  -2   18.17   48.39
 -13   2   2  -31.22   77.62
  13  -2   2 -123.23  114.54
  13  -2   2   -2.46   44.08
  13  -3  -2  -53.96   49.63
 -13   3  -2  -13.32   77.20
  13  -3   2 -336.45  128.03
 -13   3   2 -161.92   76.11
  13  -3   2   18.24   45.42
 -13   4  -2 -123.25   75.93
  13  -4   2  664.35  132.79
  13  -4   2   33.52   53.38
 -13   5  -2   90.88   81.09
  13  -5   2   93.21   56.05
  13  -6  -2   72.45  134.76
  14   5  -2   65.52   53.68
 -14  -5   2   62.14   29.15
 -14  -4  -2   68.32   26.24
  14   4  -2   -5.28   46.73
  14   4  -2 -189.63  127.17
  14   4   2  -44.27   51.56
 -14  -4   2   30.91   24.78
 -14  -3  -2    5.00   24.25
  14   3  -2   13.40   48.56
  14   3   2    3.05  108.18
  14   3   2   -2.67   47.21
 -14  -3   2    5.49  124.21
  14   2  -2  -10.71   53.69
 -14  -2  -2  536.21  127.89
 -14  -2  -2    9.53   28.57
  14   2   2  175.63   44.38
 -14  -2   2   -5.06  116.93
  14   2   2  146.46  117.83
  14   1  -2   75.13   45.24
 -14  -1  -2   -2.30   22.21
  14   1  -2    6.36  122.79
  14   1   2 -117.29  121.85
 -14  -1   2  -32.13   25.80
 -14  -1   2  146.24  102.90
  14   0  -2  231.76   70.45
  14   0  -2   -3.26  140.66
 -14   0   2  497.74  107.58
  14  -1  -2  275.45  149.11
  14  -1  -2  210.81   72.59
 -14   1   2  438.94  104.17
  14  -2  -2 -251.28  141.03
  14  -2  -2  133.42   53.31
 -14   2   2  271.16   85.26
 -14   2   2   24.41   31.16
  14  -3  -2    6.27   51.43
 -14   3  -2   57.85   26.12
  14  -3  -2 -361.05  147.79
 -14   3   2 -130.20   85.69
  14  -4  -2 -237.48  153.94
  14  -4  -2   58.47   60.89
 -14   4   2   35.33   86.66
  14  -4   2 -148.08  154.95
  14  -5  -2 -132.16   65.98
  14  -5  -2 -432.89  153.96
  14  -5   2 -186.11  159.57
 -14   5   2    4.05   84.29
 -14   6  -2   64.84   86.43
  14  -6  -2  273.81  150.43
  14  -6   2  140.27  166.67
  14  -6   2   -3.58   65.86
 -14   6   2  238.13   95.36
  14  -7   2 -149.10  165.81
  15   5  -2   48.27   51.86
 -15  -5   2  -14.89   27.90
  15   4  -2  -14.89   52.79
 -15  -4  -2   54.89   26.75
 -15  -4   2 -105.50  147.30
  15   4   2  -33.74   57.23
 -15  -4   2   57.09   31.12
 -15  -3  -2   61.06   28.48
  15   3  -2   20.87   54.04
  15   3   2   23.93   55.34
 -15  -3   2    6.12  143.71
  15   3   2  -63.79  125.27
  15   2  -2   38.68   54.86
 -15  -2  -2 -104.85  143.28
 -15  -2  -2   34.46   25.47
  15   2  -2  152.88  142.09
 -15  -2   2  -21.45   26.25
 -15  -2   2  -22.90  136.32
  15   2   2    8.91   53.01
  15   2   2  -50.40  132.49
 -15  -1  -2    5.11   25.71
  15   1  -2 -120.07   58.94
 -15  -1  -2  -45.18  132.80
  15   1  -2 -189.84  147.28
 -15  -1   2  -53.29  124.68
  15   1   2  -61.95   54.53
  15   1   2    3.39  133.66
 -15  -1   2  -16.48   29.87
  15   0  -2    3.57  150.01
  15   0  -2  -64.93   57.25
 -15   0  -2   32.89   26.89
 -15   0  -2    5.20  117.92
 -15   0   2    2.90   30.53
  15   0   2  127.53  142.60
  15   0   2    6.07   54.92
 -15   0   2   -4.93  113.07
 -15   1  -2   28.58  110.87
 -15   1  -2   26.96   25.99
  15  -1  -2   36.92  145.34
  15  -1  -2  -21.91   59.92
 -15   1   2   96.05  104.22
  15  -1   2  -92.09  143.09
  15  -1   2 -176.01   57.17
 -15   1   2   52.98   30.91
 -15   2  -2  -83.26   96.46
  15  -2  -2 -177.90   61.61
  15  -2  -2  -30.11  155.39
 -15   2  -2  -11.04   26.77
  15  -2   2  -92.54  144.69
  15  -2   2  -18.40   54.32
 -15   2   2 -195.22  100.06
 -15   2   2   18.06   33.07
  15  -3  -2  -89.26  159.46
 -15   3  -2  -70.96   96.57
  15  -3  -2  -24.25   61.74
 -15   3  -2  -11.29   29.73
 -15   3   2    8.51   94.33
  15  -3   2   32.32   61.04
  15  -3   2 -233.03  155.91
 -15   4  -2   38.50   30.19
 -15   4  -2   65.49   91.36
  15  -4  -2  132.18  158.89
  15  -4  -2  -79.25   69.58
 -15   4   2   -4.33   89.12
  15  -4   2    3.86  161.42
  15  -4   2    3.41   60.82
 -15   5  -2  -12.62   94.30
  15  -5  -2  -24.05   70.65
  15  -5  -2   -4.12  167.40
  15  -5   2  149.61  165.74
 -15   5   2  132.68   93.48
  15  -5   2   59.50   67.07
  15  -6  -2   71.38  172.19
 -15   6  -2  -88.11   93.64
  15  -6   2  -31.32   63.02
 -15   6   2  -61.99   98.08
  15  -6   2   89.56  170.03
  15  -7   2   22.21  186.30
  16   5  -2    3.37   60.99
 -16  -5   2   -6.57   31.60
  16   4  -2   10.08   61.32
 -16  -4  -2   34.93   31.47
 -16  -4   2   87.95  172.88
  16   4   2    3.34   61.72
 -16  -3  -2    7.48  187.58
  16   3  -2  -97.63   61.40
 -16  -3  -2    6.13   30.61
 -16  -3   2    6.82  166.46
  16   3   2   16.59   58.04
  16   3   2   73.83  137.29
  16   2  -2 -113.15  149.18
  16   2  -2   23.62   65.57
 -16  -2  -2   20.51  161.09
 -16  -2  -2    8.84   30.71
  16   2   2 -223.14  138.93
 -16  -2   2  -51.43  146.63
  16   2   2   47.19   57.48
 -16  -2   2    5.98   28.66
  16   1  -2  153.63   64.05
 -16  -1  -2  133.67  148.16
 -16  -1  -2  -11.36   27.95
  16   1  -2  122.90  162.10
 -16  -1   2   32.90   32.37
  16   1   2 -279.71  149.41
 -16  -1   2  -30.01  142.70
  16   1   2    6.72   62.22
 -16   0  -2  -56.48   29.53
  16   0  -2 -105.86   63.87
  16   0  -2   15.76  160.96
 -16   0  -2 -122.86  136.34
  16   0   2 -101.43   65.32
 -16   0   2 -103.52  126.20
 -16   0   2   19.26   32.42
  16   0   2  -76.24  152.58
  16  -1  -2 -110.27   64.25
 -16   1  -2    2.93   31.05
  16  -1  -2 -534.89  165.97
 -16   1  -2  -78.96  121.05
  16  -1   2   11.31  152.20
  16  -1   2    3.36   58.26
 -16   1   2   -3.31   33.23
 -16   1   2  127.91  116.33
  16  -2  -2  106.27   68.95
  16  -2  -2   16.53  170.83
 -16   2  -2  137.40  111.56
 -16   2  -2   90.16   33.80
 -16   2   2   48.69  109.60
  16  -2   2 -116.75  158.77
 -16   2   2  -10.14   33.88
  16  -2   2  -24.44   64.01
  16  -3  -2    3.83   69.45
 -16   3  -2  -23.37  106.84
 -16   3  -2   -9.44   32.29
  16  -3  -2 -237.08  173.83
 -16   3   2   24.71   35.95
  16  -3   2 -320.96  167.23
  16  -3   2   68.35   61.33
 -16   3   2  -85.00  100.14
  16  -4  -2   17.40  174.43
 -16   4  -2   45.77   32.58
  16  -4  -2  169.88   76.30
 -16   4  -2   40.92   98.49
 -16   4   2   95.92  105.51
  16  -4   2    3.89   67.77
  16  -4   2 -207.62  184.57
  16  -5  -2   13.16   78.15
  16  -5  -2 -143.95  192.75
 -16   5  -2   69.40  100.82
  16  -5   2 -632.02  193.99
  16  -5   2  -73.46   79.05
 -16   5   2  -87.36   99.61
  16  -6  -2  -26.56   76.59
 -16   6  -2  -52.71  105.63
  16  -6  -2   83.25  194.24
 -16   6   2  -36.19  107.99
  16  -6   2   29.90   75.28
 -16   7  -2 -118.49  103.57
  16  -7   2  -86.91  194.70
  17   5  -2    3.73   64.25
 -17  -5   2  -32.66   35.43
 -17  -5   2   -8.64  207.68
  17   4  -2   -3.74   65.02
 -17  -4  -2   -6.99   32.41
 -17  -4  -2 -231.51  217.58
 -17  -4   2  154.19  195.74
  17   4   2    3.76   67.80
 -17  -3  -2   23.74   33.21
  17   3  -2   37.74  170.44
  17   3  -2   11.17   66.99
 -17  -3  -2  -99.57  214.90
 -17  -3   2  153.84  186.13
  17   3   2 -219.45  164.20
  17   3   2   22.48   69.75
 -17  -2  -2  -53.88  188.84
  17   2  -2  -82.32   65.79
  17   2  -2 -218.28  180.23
 -17  -2  -2  -26.09   30.81
  17   2   2   18.65   68.53
  17   2   2 -192.86  162.40
 -17  -2   2 -110.03   35.43
 -17  -2   2   -7.18  168.07
 -17  -1  -2  -44.38   32.21
  17   1  -2   74.34  181.01
 -17  -1  -2 -177.23  170.96
  17   1  -2    3.89   70.43
  17   1   2  -78.36   70.60
  17   1   2   61.26  163.90
 -17  -1   2   -3.34   36.84
 -17  -1   2    6.61  158.82
 -17   0  -2  -53.31   29.39
 -17   0  -2    6.45  153.98
  17   0  -2  541.32  187.65
  17   0  -2   43.15   75.17
 -17   0   2   27.88   38.18
 -17   0   2 -258.51  144.79
  17   0   2 -158.28   66.76
  17   0   2  401.26  170.76
 -17   1  -2 -113.00  142.37
 -17   1  -2  -84.21   36.12
  17  -1  -2 -280.42  185.74
  17  -1  -2 -122.52   78.19
 -17   1   2  -45.95  134.02
  17  -1   2  -30.98   73.08
  17  -1   2 -220.13  185.64
 -17   1   2   55.76   37.73
  17  -2  -2 -236.25   76.88
  17  -2  -2 -289.39  201.60
 -17   2  -2    5.52  130.86
 -17   2  -2    3.43   33.63
 -17   2   2 -185.86  125.07
  17  -2   2    3.88   68.77
  17  -2   2 -293.20  179.47
 -17   2   2   18.97   41.50
 -17   3  -2   14.18   35.90
  17  -3  -2 -275.89   78.48
 -17   3  -2  -41.43  122.50
  17  -3  -2 -249.12  186.24
  17  -3   2  -83.97   72.67
 -17   3   2    5.27  116.57
  17  -3   2 -128.87  186.95
 -17   3   2   23.58   40.55
 -17   4  -2   32.93   38.50
 -17   4  -2   50.61  115.99
  17  -4  -2 -236.87  206.60
  17  -4  -2   27.36   81.88
  17  -4   2  110.86  199.00
  17  -4   2   12.91   74.37
 -17   4   2   21.27  114.86
  17  -5  -2    4.79   81.05
 -17   5  -2  -91.78  112.75
  17  -5  -2  180.28  202.19
 -17   5  -2    3.84   39.35
 -17   5   2  -42.74  115.46
  17  -5   2  -86.72  195.56
  17  -5   2    4.49   82.05
 -17   6  -2   36.65  114.24
  17  -6  -2  176.54  205.08
  17  -6  -2   24.09   83.41
  17  -6   2 -231.25  210.89
  17  -6   2   74.61   82.65
 -17   6   2   33.88  115.19
 -17   7  -2  -27.86  114.14
  17  -7   2    5.26  220.15
  17  -8   2 -234.32  230.75
  18   5  -2    4.21   76.81
 -18  -5   2 -201.27  238.73
 -18  -5   2  -88.29   39.81
 -18  -4  -2 -216.47  228.56
  18   4  -2    4.20   78.06
 -18  -4  -2   19.23   38.15
 -18  -4   2  109.00  207.88
  18   4   2   50.85   77.98
 -18  -3  -2   15.01   35.88
  18   3  -2    4.61  173.77
  18   3  -2    8.44   80.08
 -18  -3  -2    9.17  227.72
  18   3   2 -210.54  173.31
  18   3   2   21.18   74.80
 -18  -3   2  -15.24   36.15
 -18  -3   2   68.96  208.45
  18   2  -2 -175.19   78.25
 -18  -2  -2  155.47  209.37
  18   2  -2  262.34  192.18
 -18  -2  -2   76.35   37.52
 -18  -2   2 -274.28  189.07
  18   2   2 -119.36  172.17
  18   2   2 -190.33   79.25
 -18  -2   2  -82.38   39.48
  18   1  -2  114.89  194.39
 -18  -1  -2   63.76  193.92
 -18  -1  -2  -17.71   34.26
  18   1  -2 -162.95   82.06
  18   1   2 -107.76  182.70
 -18  -1   2   89.55  178.17
 -18  -1   2   18.61   36.53
  18   1   2   -4.27   78.90
 -18   0  -2   17.48   35.37
 -18   0  -2   -7.28  173.52
  18   0  -2    4.73  194.79
  18   0  -2   77.79   78.94
 -18   0   2  -27.08   41.23
 -18   0   2  244.03  157.73
  18   0   2   81.09   79.37
  18   0   2   22.90  180.68
 -18   1  -2 -121.24  159.90
  18  -1  -2   21.92   78.40
  18  -1  -2  -81.07  201.63
 -18   1  -2  -21.12   37.56
  18  -1   2    4.28   78.10
 -18   1   2   69.69   41.20
  18  -1   2  -70.25  195.45
 -18   1   2  210.83  150.22
 -18   2  -2   51.96   37.88
 -18   2  -2  159.05  142.80
  18  -2  -2 -135.68   73.89
  18  -2  -2   68.80  204.62
 -18   2   2    4.25   45.09
 -18   2   2 -364.82  139.59
  18  -2   2   56.13  190.83
  18  -2   2  172.76   82.10
 -18   3  -2  -87.26  131.92
  18  -3  -2  116.14  206.34
 -18   3  -2   11.95   41.89
  18  -3  -2   -4.86   85.63
 -18   3   2   21.90   43.94
 -18   3   2  130.02  135.28
  18  -3   2   -4.84  205.04
  18  -3   2    9.17   84.32
  18  -4  -2  -93.27  212.76
 -18   4  -2 -101.51  127.58
  18  -4  -2 -156.22   89.09
 -18   4  -2   -8.18   41.92
  18  -4   2   -5.05  205.50
 -18   4   2   73.04   49.29
  18  -4   2   38.18   80.70
 -18   4   2 -112.29  130.47
  18  -5  -2   47.28   91.63
 -18   5  -2  -72.41   46.78
 -18   5  -2  287.51  131.75
  18  -5  -2   26.57  225.78
 -18   5   2 -100.48  125.11
  18  -5   2 -136.27  227.27
  18  -5   2 -108.88   84.99
 -18   6  -2  580.45  173.15
  18  -6  -2  226.28  130.60
  18  -6  -2  839.73  261.59
  18  -6   2  638.83  259.83
  18  -6   2  239.25  130.01
 -18   6   2  792.46  177.27
 -18   7  -2   30.26  123.36
  18  -7   2 -602.53  249.56
  18  -8   2    5.93  252.73
  19   5  -2   -4.76   87.85
 -19  -5   2 -211.99  261.55
  19   4  -2    4.75   81.63
 -19  -4  -2   32.50  257.94
 -19  -4   2 -377.40  252.43
  19   4   2   -4.72   83.33
 -19  -3  -2  -24.95   44.79
  19   3  -2  284.38  207.26
  19   3  -2 -173.36   92.97
 -19  -3  -2   10.31  247.32
  19   3   2 -301.37  192.47
 -19  -3   2  -12.81   44.93
 -19  -3   2  -96.28  235.10
  19   3   2 -103.00   83.10
 -19  -2  -2 -124.69  236.10
 -19  -2  -2   28.34   39.37
  19   2  -2 -378.38   89.83
 -19  -2   2    8.90  212.08
 -19  -2   2   -4.19   44.70
  19   2   2 -530.66  204.55
  19   2   2 -314.22   95.09
  19   1  -2  486.04  238.43
  19   1  -2 -211.47  101.17
 -19  -1  -2    3.96   44.01
 -19  -1  -2 -791.70  228.16
 -19  -1   2 -726.62  197.86
 -19  -1   2    4.17   40.51
  19   0  -2  733.15  144.47
 -19   0  -2  297.76  225.45
 -19   0   2  -23.08  207.04
 -19   1  -2 -436.94  183.97
  19  -1   2  912.59  230.92
 -19   1   2  -71.75  176.90
 -19   1   2  -17.81   51.50
  19  -1   2 -151.11   92.65
 -19   2  -2  -68.69  174.38
  19  -2  -2 -326.72  108.40
 -19   2  -2  -41.06   47.52
 -19   2   2 -534.72  171.01
  19  -2   2 -716.98  241.94
 -19   2   2   28.68   53.79
 -19   3  -2   87.68   44.15
  19  -3  -2   16.52  230.24
  19  -3  -2    5.39   90.44
 -19   3  -2    6.52  147.47
 -19   3   2 -212.22  150.83
  19  -3   2   -5.11   85.43
 -19   3   2  -49.22   54.22
  19  -3   2 -194.53  229.02
  19  -4  -2   -5.58   95.09
  19  -4  -2  400.10  239.45
 -19   4  -2  176.89  140.23
 -19   4  -2   50.24   45.81
 -19   4   2    5.10   53.00
 -19   4   2   85.60  146.99
  19  -4   2  -68.75   94.21
  19  -4   2 -324.13  236.07
  19  -5  -2 -312.56  238.24
  19  -5  -2   -5.77   94.23
 -19   5  -2 -113.38   49.72
 -19   5  -2    6.20  147.79
 -19   5   2   78.91  143.04
  19  -5   2   10.95   93.73
 -19   5   2   53.51   54.68
  19  -5   2  635.34  250.64
  19  -6  -2  237.78  246.50
 -19   6  -2    4.96   48.19
 -19   6  -2  139.00  133.81
  19  -6  -2    5.77  100.64
  19  -6   2  -77.07  252.91
  19  -6   2 -172.42  102.31
 -19   6   2   -6.83  148.65
 -19   7  -2  -66.00  144.84
 -19   7  -2  -73.03   55.41
  19  -7   2 -375.98  263.51
 -20  -3  -2  -11.48  274.35
  20   3   2 -313.03   96.25
  20   3   2    5.46  158.06
 -20  -2  -2  -18.05   44.34
  20   2  -2 -338.31  103.41
 -20  -2  -2 -139.66  258.02
  20   2   2    5.36   97.72
  20   2   2 -139.37  207.25
 -20  -2   2 -231.03  246.00
 -20  -1  -2  207.52  247.20
  20   1  -2  -10.85   96.58
 -20  -1  -2   -4.42   42.07
  20   1   2 -112.79   96.05
  20   1   2 -252.22  218.32
 -20  -1   2   28.08  215.74
  20   0  -2   70.13  236.90
 -20   0  -2 -127.45  225.36
 -20   0  -2  -13.14   43.93
  20   0  -2 -114.99  100.53
  20   0   2  -48.58   98.57
  20   0   2  137.21  230.06
 -20   0   2  -51.95   48.88
 -20   0   2  -17.32  200.17
 -20   1  -2   21.94   44.45
  20  -1  -2    5.61  103.12
 -20   1  -2 -150.15  210.62
  20  -1  -2 -253.22  249.97
  20  -1   2 -130.17   98.98
 -20   1   2  -14.84   49.42
 -20   1   2   64.99  187.71
  20  -1   2  186.02  225.43
 -20   2  -2   17.86   41.61
 -20   2  -2 -248.31  189.17
  20  -2  -2   11.72  247.41
  20  -2  -2    5.78  106.11
  20  -2   2 -138.47  104.90
  20  -2   2   11.55  243.18
 -20   2   2 -216.14  178.38
 -20   2   2    5.27   49.55
 -20   3  -2   21.86  175.36
  20  -3  -2    6.00  105.17
 -20   3  -2    9.49   51.01
  20  -3   2 -125.07  103.36
  20  -3   2 -438.58  248.33
 -20   3   2 -159.60   51.61
 -20   3   2 -142.15  171.29
 -20   4  -2  -25.55   50.63
  20  -4  -2  -99.03  111.37
 -20   4  -2  142.24  162.97
  20  -4   2 -204.98  103.62
  20  -4   2    5.97  250.07
 -20   4   2   51.58  170.49
 -20   5  -2   34.56  155.57
 -20   5  -2   26.49   53.27
  20  -5   2  -12.61  111.86
  20  -5   2    6.23  261.89
 -20   6  -2   55.95  160.21
  20  -6   2  -18.27  113.13
   0   0  -3   -1.56    4.30
   0   0   3    0.32    1.64
   0   0   3    1.97    6.91
   1   0  -3 2008.65  357.93
   1   0  -3 1575.90  357.50
   0  -1   3 1717.30  357.34
   0  -1   3 2069.54  357.30
   1   1  -3    1.07    2.02
   1  -1   3    4.20    4.62
  -1  -1   3    1.81    3.64
  -1  -1   3   -0.21    3.99
   2   1  -3  331.11  130.90
   2   1  -3  514.64  118.17
  -2  -1   3  624.93  110.00
   1  -2   3  610.70  122.48
   0   2  -3    1.09    2.99
  -2   0  -3    0.53    1.51
   2   0  -3    1.63    4.24
  -2   0  -3    7.08   17.89
   2   0  -3   -0.95   11.75
   2   0   3   -4.33   11.02
   2   0   3   -0.45    6.07
  -2   0   3   -3.04    6.08
   2   0   3   -0.41    8.93
   0  -2   3    2.72    4.10
  -2   1  -3  491.03  144.42
  -2   1  -3  596.68  126.47
   2  -1   3  561.77  120.46
   2  -1   3  512.34  123.08
  -2   1   3  470.97  125.78
   2  -1   3  632.07  122.97
  -1  -2   3  582.12  116.09
   2  -1   3  435.18  136.77
  -2   2  -3   -2.81    4.09
  -2   2  -3    0.80    5.87
   2   2  -3   -1.17   14.56
   2  -2   3    2.61   10.30
   2  -2   3    1.86    5.40
   2  -2   3    0.50    7.90
  -2  -2   3    5.32    2.40
   2  -2   3    7.02    6.67
  -2   3  -3   71.94   13.10
   3   2  -3   40.04   24.80
   3   2  -3   61.74   14.12
  -3  -2   3   40.57   11.97
   2  -3   3   42.78   13.69
   3   1  -3  192.53   44.05
   3   1  -3  167.84   52.23
   3   0  -3  133.97   27.70
   3   0  -3   51.23   19.19
  -3   0  -3   94.54   33.32
  -3   0  -3   97.54   17.40
   3   0   3   67.28   18.69
  -3   0   3  106.18   21.99
   3   0   3   71.01   23.41
   3   0   3   65.41   25.26
   3   0   3   60.57   20.36
  -3   1  -3  213.14   55.13
  -3   1  -3  236.60   65.25
   3  -1  -3  192.12   54.23
   3  -1  -3  203.38   60.44
   3  -1   3  286.72   53.30
  -3   1   3  222.13   55.47
   3  -1   3  251.53   59.82
   3  -1   3  231.07   51.54
   3  -1   3  250.76   53.22
  -3   2  -3   65.15   18.81
  -3   2  -3   68.80   15.73
   3  -2   3   62.25   18.45
   3  -2   3   62.71   17.30
   3  -2   3   79.43   16.97
   3  -2   3   66.84   23.95
  -3   3  -3    3.73    6.29
   3  -3   3   -6.10    8.37
   3  -3   3    3.34   12.12
   3  -3   3    0.62   16.47
   4   3  -3   -6.36   29.79
  -4  -3   3    7.34    5.63
   4   2  -3  748.96  191.73
   4   2  -3  813.37  177.98
  -4  -2   3  828.63  166.73
  -4  -1  -3   93.51   22.02
   4   1  -3   79.04   34.25
   4   1  -3  105.64   23.70
   4   1   3   84.04   34.01
  -4  -1   3  112.18   21.45
  -4   0  -3    0.95   32.27
  -4   0  -3   -0.52    3.90
   4   0  -3    0.87   25.57
   4   0  -3    3.93    8.72
   4   0   3   -4.93   10.52
   4   0   3   -0.72   19.44
   4   0   3   -0.52    6.57
  -4   0   3   -1.94   16.23
   4   0   3   -1.01   15.73
  -4   1  -3  104.20   26.86
  -4   1  -3   72.59   38.03
   4  -1  -3   85.36   24.09
   4  -1   3  120.03   24.46
   4  -1   3   84.66   24.06
   4  -1   3  101.94   22.17
  -4   1   3   92.03   27.11
   4  -1   3   61.71   31.62
  -4   2  -3  712.36  169.18
  -4   2  -3  838.57  157.45
  -4   2   3  709.15  168.33
   4  -2   3  583.60  164.77
   4  -2   3  791.00  160.79
   4  -2   3  683.43  162.43
   4  -2   3  646.16  185.41
  -4   3  -3    5.41   15.84
  -4   3  -3    4.82    7.53
   4  -3   3    5.79   13.05
   4  -3   3    2.54   26.62
   4  -3   3    9.60   10.70
   4  -3   3    0.75   15.37
   5   2  -3   -0.76  225.52
   5   1  -3   81.84   23.11
  -5  -1  -3  106.12   20.77
   5   1   3   92.54   37.07
   5   1   3   79.24   36.37
   5   1   3   89.10   23.21
  -5   0  -3   22.88   40.99
  -5   0  -3   26.29    9.05
   5   0  -3   42.94   14.35
   5   0   3   46.31   21.75
   5   0   3   35.25   17.81
  -5   0   3   36.37   23.15
   5   0   3   36.50   11.98
   5   0   3   36.13   30.12
   5  -1  -3   78.67   24.20
  -5   1  -3   97.36   46.14
  -5   1  -3   84.70   30.54
   5  -1   3   91.91   21.99
   5  -1   3   85.02   24.90
   5  -1   3   81.63   24.30
  -5   1   3  116.39   29.64
   5  -1   3   62.85   38.14
  -5   2  -3 2561.33  476.10
  -5   2  -3 2447.94  498.95
   5  -2   3 2239.65  531.81
   5  -2   3 2340.23  486.37
   5  -2   3 2058.85  486.80
   5  -2   3 1900.62  479.80
  -5   3  -3  946.24  238.55
   5  -3   3  890.79  263.46
   5  -3   3 1167.20  228.22
   5  -3   3 1017.61  231.15
   5  -3   3 1065.77  237.30
   6   4  -3  253.66   43.90
  -6  -4   3  129.14   40.13
   6   3  -3   62.42   19.98
   6   3  -3   66.29   46.50
  -6  -3   3   51.67   14.81
   6   2  -3    7.25   42.32
   6   2  -3   50.29   16.56
  -6  -2  -3   15.50    9.33
   6   2   3   29.43   40.29
  -6  -2   3   27.61    9.68
  -6  -1  -3   -5.09    6.82
   6   1  -3    1.22   43.40
   6   1  -3   33.99   13.43
  -6  -1   3   18.46   30.17
  -6  -1   3   -5.21    7.39
   6   1   3   -4.73   39.64
   6   1   3   21.21   34.34
  -6   0  -3   -3.73   52.81
   6   0  -3   -3.88   45.48
   6   0  -3   25.56   14.55
   6   0   3   -7.67   22.09
  -6   0   3   49.82   28.42
   6   0   3    2.42   19.88
   6  -1  -3   -3.15    9.71
   6  -1  -3   -7.65   15.80
  -6   1  -3   -2.27   47.71
   6  -1   3   -0.70   18.28
  -6   1   3   37.18   26.48
   6  -1   3    0.85   16.67
  -6   2  -3   30.38   11.30
   6  -2  -3   20.25   21.50
  -6   2  -3   19.54   48.71
   6  -2   3   25.21   17.23
   6  -2   3   24.28   20.20
  -6   2   3   42.92   27.88
   6  -3  -3   60.94   45.00
   6  -3  -3   98.10   27.62
  -6   3   3   45.41   31.43
   6  -3   3   37.68   24.73
  -6   4  -3  173.18   39.01
   6  -4   3  199.07   62.67
   6  -4   3  167.49   41.54
   6  -5   3   52.00   48.47
   6  -5   3   64.19   31.76
   7   4  -3   44.38   23.05
   7   4  -3  141.64   57.55
  -7  -4   3   32.25   14.17
   7   3  -3  136.04   63.24
   7   3  -3  151.90   38.63
  -7  -3   3  135.02   32.82
   7   2  -3   12.96   17.19
  -7  -2  -3   -6.66    8.88
   7   2  -3    5.64   50.02
  -7  -2   3   -1.04    8.56
   7   2   3    5.87   46.48
   7   2   3   27.69   17.29
  -7  -1  -3   30.55    9.96
   7   1  -3   22.97   51.35
   7   1  -3   20.47   18.26
   7   1   3   30.13   45.70
   7   1   3   -4.84   32.97
   7   1   3   19.83   17.66
  -7  -1   3   17.56    9.27
  -7  -1   3   25.62   36.35
  -7   0  -3  302.12  110.10
   7   0  -3  352.51   79.89
  -7   0   3  386.04   88.79
   7   0   3  291.11   84.24
   7   0   3  334.37   79.46
   7   0   3  336.58   83.28
   7   0   3  433.27   96.86
   7  -1  -3    9.86   18.05
   7  -1  -3    8.59   10.28
  -7   1  -3   22.44   34.25
  -7   1  -3   -2.56   55.29
  -7   1  -3    9.23    8.92
   7  -1   3   46.71   19.81
   7  -1   3   47.38   21.27
   7  -1   3   20.91   16.07
  -7   1   3   -3.41   34.11
   7  -1   3    2.61   47.84
  -7   2  -3   -1.57   35.02
   7  -2  -3    4.38   23.02
  -7   2  -3   36.12   11.68
  -7   2  -3   10.18   57.70
   7  -2  -3   -3.17   52.08
   7  -2   3   -0.79   21.59
   7  -2   3   29.84   17.50
   7  -2   3  -27.77   51.00
  -7   2   3   -3.41   31.34
   7  -2   3   37.14   18.48
  -7   3  -3  151.63   54.08
   7  -3  -3  143.36   70.22
   7  -3  -3  171.52   48.94
   7  -3   3  156.37   46.06
   7  -3   3  306.88   71.11
  -7   3   3  249.45   54.86
  -7   4  -3   -8.55   39.14
  -7   4  -3   17.59   13.45
   7  -4  -3   13.26   53.47
   7  -4   3   27.32   18.24
   7  -4   3   12.84   26.75
   7  -4   3 -110.37   62.76
   7  -4   3  -12.29   31.17
   7  -5   3    3.94   31.35
   7  -5   3   11.63   58.21
   8   5  -3   98.39   32.05
   8   4  -3   21.47   25.77
   8   4  -3   85.52   62.70
  -8  -4   3   79.69   18.43
   8   3  -3  299.27   68.60
   8   3  -3  258.69   90.98
  -8  -3  -3  298.66   63.55
  -8  -3   3  358.59   62.40
   8   3   3  220.32   68.34
   8   2  -3  166.85   72.33
   8   2  -3  121.78   40.79
  -8  -2  -3  132.66   33.91
  -8  -2   3  143.84   33.58
   8   2   3  210.00   72.64
   8   2   3  167.29   41.59
   8   1  -3   44.87   64.57
   8   1  -3   17.59   24.63
  -8  -1  -3   65.93   14.93
  -8  -1   3   76.06   15.72
   8   1   3  -17.26   58.46
   8   1   3   58.12   22.29
  -8  -1   3    2.14   47.12
   8   1   3    3.16   39.21
  -8   0  -3   -6.23   63.80
  -8   0  -3   -3.42   10.41
   8   0  -3  -37.32   23.81
  -8   0   3  -24.43   40.79
   8   0   3  -15.94   19.87
   8   0   3   -1.12   24.72
   8   0   3    5.16   27.88
   8   0   3  -34.19   53.32
  -8   1  -3   45.81   43.34
   8  -1  -3   36.86   22.04
  -8   1  -3   -8.52   68.21
  -8   1  -3   33.90   11.75
   8  -1  -3   29.60   12.49
  -8   1   3   23.57   41.26
   8  -1   3 -125.31   67.33
   8  -1   3   -3.75   23.70
   8  -1   3  -14.04   24.93
  -8   1   3   15.78   31.88
   8  -1   3   42.58   27.74
  -8   2  -3  300.76   61.45
   8  -2  -3  136.14   47.07
   8  -2  -3  135.66   42.54
   8  -2  -3  267.65   87.62
  -8   2   3  158.93   57.28
  -8   3  -3  190.74   59.50
  -8   3  -3  238.72   71.01
   8  -3  -3  232.63   90.07
   8  -3  -3  248.63   65.63
  -8   3   3  350.38   73.06
   8  -3   3  351.86   63.53
   8  -3   3  239.67   63.41
   8  -3   3  206.02   98.31
   8  -4  -3    1.89   63.33
   8  -4  -3   14.78   31.75
  -8   4  -3   30.28   18.00
  -8   4  -3   33.08   40.96
   8  -4   3   63.26   24.02
  -8   4   3   31.53   41.45
   8  -4   3  105.21   31.62
   8  -4   3  140.85   67.70
   8  -4   3   58.20   32.28
  -8   5  -3  109.92   52.40
   8  -5   3  132.24   46.04
   8  -5   3   30.84   75.55
   8  -5   3  199.74   45.13
   8  -6   3  322.80   77.31
   8  -6   3  227.84  103.32
   9   5  -3  578.11  130.48
   9   4  -3  357.23   85.38
   9   4  -3  406.70  108.60
  -9  -4   3  355.27   78.28
   9   3  -3   86.13   29.99
   9   3  -3  237.81   70.77
  -9  -3  -3   56.73   21.92
  -9  -3   3   92.04   22.30
   9   3   3   77.23   32.57
   9   2  -3   29.47   65.65
   9   2  -3   41.96   24.73
  -9  -2  -3   18.27   12.99
   9   2   3   43.48   63.83
   9   2   3    4.42   24.35
  -9  -2   3   23.52   12.46
   9   2   3   -2.12   44.53
   9   1  -3   19.12   24.41
   9   1  -3  -15.16   67.89
  -9  -1  -3   -2.59   11.06
   9   1   3   -1.40   23.10
  -9  -1   3    4.92   50.59
   9   1   3    8.89   59.84
  -9  -1   3   26.64   12.45
   9   1   3   45.30   33.23
  -9   0  -3    5.24   11.33
   9   0  -3    7.65   27.01
  -9   0  -3  -24.44   52.93
  -9   0  -3  -51.31   73.24
   9   0   3  -22.85   22.83
   9   0   3   20.64   63.27
   9   0   3   12.73   29.96
   9   0   3   80.33   26.81
  -9   0   3   30.64   47.78
  -9   1  -3  -20.14   47.49
   9  -1  -3    3.23   24.54
  -9   1  -3   -1.27   13.18
  -9   1  -3   36.31   73.72
   9  -1   3    9.51   21.62
   9  -1   3   24.59   62.25
  -9   1   3  -60.66   47.32
   9  -2  -3   54.84   32.05
   9  -2  -3   35.17   77.45
  -9   2  -3   -8.49   45.54
   9  -2   3   39.52   24.75
   9  -2   3   73.14   66.86
  -9   2   3    4.42   43.34
   9  -3  -3   93.59   38.48
  -9   3  -3   36.71   78.70
  -9   3  -3   52.94   23.06
  -9   3  -3  123.80   49.30
   9  -3  -3  127.80   78.35
   9  -3   3   95.16   28.54
   9  -3   3   88.32   33.12
   9  -3   3   54.55   79.00
  -9   3   3   69.02   46.71
   9  -3   3  101.79   31.89
   9  -4  -3  338.25   81.78
   9  -4  -3  400.33  110.52
  -9   4  -3  279.36   89.03
  -9   4  -3  254.43   72.84
   9  -4   3  248.14   80.49
   9  -4   3  411.26  114.35
  -9   4   3  269.47   90.21
   9  -4   3  418.41   79.12
   9  -4   3  351.53   76.92
  -9   5  -3  577.85  133.54
   9  -5   3  550.41  157.02
   9  -5   3  535.12  123.53
   9  -5   3  450.21  130.78
   9  -6   3   46.20   88.12
   9  -6   3   -1.73   42.78
  10   5  -3  114.94   39.41
 -10  -5   3   99.31   28.13
  10   4  -3  183.97   42.27
  10   4  -3  219.68   82.22
 -10  -4   3  101.59   31.64
  10   3  -3   23.34   28.43
  10   3  -3    2.13   77.16
 -10  -3  -3   76.52   19.87
 -10  -3   3   42.43   16.77
  10   3   3   78.36   32.50
  10   3   3   64.43   69.57
 -10  -2  -3   48.91   19.02
  10   2  -3   22.84   78.82
  10   2  -3   54.21   31.92
  10   2   3   25.00   29.25
 -10  -2   3   59.66   18.57
 -10  -2   3   33.89   69.21
  10   2   3    4.02   70.99
 -10  -1  -3   92.32   22.87
  10   1  -3  100.21   35.50
 -10  -1   3  107.69   24.16
  10   1   3   14.02   73.96
  10   1   3   60.79   32.85
 -10  -1   3   65.16   63.75
 -10   0  -3   -5.61   61.21
 -10   0  -3   -4.37   13.25
  10   0  -3  -50.40   29.82
  10   0   3   13.58   72.98
  10   0   3  -32.97   27.50
 -10   0   3    5.39   56.71
 -10   1  -3   54.36   58.69
  10  -1  -3  105.39   88.02
  10  -1  -3   62.04   33.88
 -10   1  -3   73.36   20.60
 -10   1   3   94.57   57.34
  10  -1   3   55.77   75.70
  10  -1   3   66.97   32.49
 -10   2  -3   41.41   56.22
 -10   2  -3   64.41   20.46
  10  -2  -3   70.94   35.88
  10  -2  -3   72.57   90.11
 -10   2  -3   48.39   21.17
  10  -2   3   76.76   32.79
  10  -2   3   52.18   26.68
 -10   2   3   59.71   54.07
  10  -2   3  136.43   33.66
  10  -2   3  169.40   81.95
  10  -3  -3   92.93   90.63
 -10   3  -3   32.19   86.48
 -10   3  -3   43.63   19.01
 -10   3  -3   39.73   52.20
  10  -3  -3   69.35   39.04
  10  -3   3   24.10   23.93
  10  -3   3   48.29   81.65
  10  -3   3   34.01   32.71
  10  -3   3   45.91   32.41
 -10   3   3   25.49   54.43
 -10   4  -3   24.10   55.09
 -10   4  -3   58.72   21.52
  10  -4  -3   66.42   39.81
  10  -4  -3   62.56   88.05
  10  -4   3   34.72   36.39
  10  -4   3    4.63   91.80
 -10   4   3  110.75   54.96
  10  -4   3   26.82   34.00
  10  -4   3   37.25   27.61
  10  -5  -3  199.48   99.63
 -10   5  -3   64.88   59.87
  10  -5   3  142.09   49.62
  10  -5   3  247.33  101.97
  10  -5   3  152.52   51.29
 -10   5   3   66.04   60.80
 -10   6  -3  103.07   69.22
  10  -6   3  222.70  108.93
  10  -6   3  156.18   60.85
  10  -7   3   13.58  104.62
  11   5  -3 -238.94   95.10
  11   5  -3   35.62   33.54
 -11  -5   3   18.13   18.64
  11   4  -3    1.94   37.09
 -11  -4   3   16.89   18.54
 -11  -3  -3   39.58   18.84
  11   3  -3   73.72   88.60
  11   3  -3   35.48   35.35
  11   3   3    5.87   31.66
 -11  -3   3   26.46   19.28
  11   3   3   44.50   77.86
  11   2  -3   62.21   34.53
  11   2  -3 -121.13   92.46
 -11  -2  -3   -1.76   16.86
  11   2   3   98.11   82.78
 -11  -2   3  -10.60   17.21
  11   2   3   -3.77   30.37
 -11  -2   3   -3.49   75.60
  11   1  -3   32.06   33.36
 -11  -1  -3   -6.59   16.51
 -11  -1   3  -48.75   72.12
  11   1   3    8.92   31.17
  11   1   3  -22.37   80.80
  11   0  -3  256.55   58.30
 -11   0  -3  383.75   93.10
 -11   0  -3  177.52   48.50
 -11   0   3  132.27   85.30
  11   0   3  315.48   99.07
  11   0   3  175.52   57.98
 -11   1  -3    6.70   16.75
  11  -1  -3   60.92   97.56
 -11   1  -3  -26.54   67.38
  11  -1  -3   -4.09   35.34
 -11   1   3  -43.47   61.65
  11  -1   3   21.78   31.97
  11  -1   3  -80.47   85.89
 -11   2  -3   -1.66   16.02
  11  -2  -3    2.19   38.25
 -11   2  -3    8.33   61.26
  11  -2  -3   -2.62   97.67
  11  -2   3  -26.41   33.53
 -11   2   3    2.79   62.96
  11  -2   3   74.41   91.47
  11  -3  -3   17.22   41.59
  11  -3  -3  -10.65  100.53
 -11   3  -3   61.40   61.28
  11  -3   3   64.26   36.49
  11  -3   3 -102.31   95.91
 -11   3   3   22.62   57.26
 -11   4  -3   64.19   60.96
  11  -4  -3   -8.06  106.70
  11  -4  -3   21.56   44.72
  11  -4   3    6.76   38.07
 -11   4   3   17.79   59.34
  11  -4   3   33.74  100.47
 -11   5  -3  -17.08   59.79
  11  -5  -3   60.53   46.21
  11  -5  -3   79.67  101.91
  11  -5   3   43.69  109.83
 -11   5   3   25.90   64.32
  11  -5   3   20.63   41.18
 -11   6  -3    3.18   64.05
  11  -6   3  -36.30   45.09
  11  -6   3  125.52  108.21
  11  -7   3  -89.70  119.25
  12   5  -3   41.80   39.61
 -12  -5   3   -2.22   18.80
  12   4  -3    2.62  102.56
  12   4  -3  -34.33   38.93
 -12  -4   3   -4.17   18.48
  12   3  -3   21.18   39.86
  12   3  -3  -60.61  100.87
 -12  -3  -3   37.49   22.03
 -12  -3   3   59.17   21.72
  12   3   3   10.89   35.02
  12   3   3  171.50   89.92
  12   2  -3 -270.59  115.24
  12   2  -3   12.72   38.59
 -12  -2  -3   15.65   18.89
  12   2   3  120.75   95.16
  12   2   3   25.17   37.86
 -12  -2   3   21.86   19.13
 -12  -2   3 -110.11   89.04
  12   1  -3   69.23   51.25
 -12  -1  -3  151.16   34.80
 -12  -1  -3  121.53   96.73
  12   1   3  119.22   97.14
 -12  -1   3   70.14   93.78
  12   1   3  194.47   47.83
  12   0  -3 -229.80  119.78
  12   0  -3   -4.39   40.33
 -12   0  -3  -65.16   85.12
 -12   0  -3   18.39   18.26
 -12   0   3 -116.36   90.31
  12   0   3    2.06   34.41
  12   0   3  -31.61   96.06
 -12   1  -3   23.55   82.14
  12  -1  -3  139.30   48.88
  12  -1  -3 -173.98  123.87
 -12   1  -3  160.27   30.57
  12  -1   3  152.17   44.59
 -12   1   3 -101.60   88.47
  12  -1   3   34.81  100.93
 -12   2  -3   58.69   71.20
  12  -2  -3    2.90  115.42
  12  -2  -3   29.26   38.69
 -12   2  -3   37.69   19.83
  12  -2   3   12.92  102.48
  12  -2   3   14.84   39.02
 -12   2   3   24.99   67.04
  12  -3  -3    7.87   45.71
 -12   3  -3    5.91   68.47
  12  -3  -3   38.62  114.28
 -12   3   3  -62.67   67.58
  12  -3   3   29.21   37.23
  12  -3   3    2.70  108.31
  12  -4  -3  -40.97   50.51
 -12   4  -3   -2.98   62.93
  12  -4  -3   23.89  115.06
 -12   4   3 -114.90   70.06
  12  -4   3    5.75  116.04
  12  -4   3  -42.35   43.87
  12  -5  -3   -6.22   52.78
  12  -5  -3  347.75  114.95
 -12   5  -3   53.52   69.06
  12  -5   3   44.87   48.15
  12  -5   3 -240.39  121.98
 -12   5   3    3.50   68.83
 -12   6  -3    3.41   72.09
  12  -6   3 -123.28  122.82
  12  -6   3    3.01   49.77
  12  -7   3 -208.72  130.44
  13   5  -3  -26.87  107.54
  13   5  -3   -2.45   38.64
 -13  -5   3   -4.89   19.83
  13   2   3   23.34   42.01
 -13  -1  -3   12.32   19.20
  13   1  -3  -45.92   42.86
 -13  -1  -3  -36.42  102.85
  13   1   3   49.10   44.35
  13   1   3   49.49  102.51
 -13  -1   3    8.28   92.28
 -13   0  -3    8.26   95.31
  13   0  -3   50.32   48.41
 -13   0  -3   41.15   22.70
 -13   0   3    3.86   86.47
  13   0   3  135.34  107.02
  13   0   3   50.91   44.67
 -13   1  -3   10.66   20.75
 -13   1  -3  -57.17   90.59
  13  -1  -3   27.99   47.87
 -13   1   3  -21.72   79.73
  13  -1   3  112.82  111.18
  13  -1   3   14.28   45.38
 -13   2  -3  -41.95   85.35
 -13   2  -3  -48.74   22.40
  13  -2  -3   10.84   47.75
  13  -2   3   -2.47   45.13
 -13   2   3  -62.88   79.20
  13  -2   3   11.49  118.25
 -13   3  -3  -28.31   22.42
 -13   3  -3   29.84   73.74
  13  -3   3  -10.04   44.90
  13  -3   3 -119.86  121.61
 -13   4  -3   59.48   75.17
  13  -4   3   50.39  129.25
  13  -4   3   19.29   49.88
  13  -5  -3   53.93  129.08
 -13   5  -3   -3.45   71.47
  13  -5   3   27.55   54.93
 -13   6  -3    3.68   79.99
  13  -6  -3 -155.20  139.37
  13  -6   3    3.27   55.97
  14   5  -3  -32.70  122.28
  14   5  -3   32.73   49.62
 -14  -5   3  -13.47   23.01
  14   4  -3  378.70  127.33
  14   4  -3  101.67   53.39
 -14  -4   3    7.71   31.96
  14   4   3  119.12   56.97
 -14  -3  -3   -2.53   22.58
  14   3  -3  -41.72  126.07
  14   3  -3   -2.68   48.22
 -14  -3   3   58.98  124.66
  14   3   3  -16.28   47.64
  14   3   3  -30.69  109.67
 -14  -3   3    2.47   24.15
 -14  -2  -3   35.94   29.60
 -14  -2  -3  797.49  134.52
  14   2  -3    2.68   53.86
  14   2   3 -122.75  115.10
 -14  -2   3  -35.02  115.20
  14   2   3  340.67   53.71
 -14  -1  -3   25.15   23.41
  14   1  -3   61.08   51.11
  14   1   3   96.93  116.28
 -14  -1   3  -79.65  110.07
 -14   0  -3   -2.24   22.08
  14   0  -3 -169.54  137.96
  14   0  -3  106.05   52.12
 -14   0   3  170.02   98.08
 -14   0   3   36.85   30.33
  14  -1  -3   40.81  139.92
  14  -1  -3   17.04   51.68
 -14   1   3  308.85   88.90
 -14   1   3  -13.35   27.16
  14  -2  -3  -18.06   50.31
  14  -2  -3 -107.82  142.82
 -14   2   3    7.81   85.04
  14  -3  -3 -157.69  148.65
  14  -3  -3   47.78   57.28
 -14   3   3  -57.80   84.80
  14  -4  -3  -55.85   66.05
 -14   4   3  214.63   89.50
  14  -5  -3  -33.26   63.49
  14  -5  -3  -37.26  145.95
 -14   5   3    4.14   83.70
  14  -5   3  -10.99  148.61
  14  -6  -3   38.00  152.79
 -14   6  -3  175.67   83.23
  14  -6   3  107.08   62.58
  14  -6   3  -81.19  159.49
 -14   6   3  -58.35   92.05
  14  -7   3  -92.75  163.74
  14  -8   3  137.76  168.94
  15   5  -3 -111.23  132.98
  15   5  -3   14.87   52.85
 -15  -5   3   14.88   30.38
  15   4  -3  182.15  137.08
  15   4  -3  133.48   52.56
 -15  -4  -3    8.67   27.23
  15   4   3  -98.51   55.94
 -15  -4   3  -31.43   26.57
 -15  -4   3  -44.96  145.89
  15   3  -3 -134.64  137.18
  15   3  -3   30.32   54.32
 -15  -3  -3  -66.93   27.93
 -15  -3   3 -309.78  133.60
  15   3   3   14.82   52.10
  15   3   3   97.64  120.25
 -15  -3   3  -11.03   26.88
 -15  -2  -3   10.62   24.61
 -15  -2  -3   12.58  144.42
  15   2  -3   -9.12   56.44
  15   2   3   39.51  129.72
 -15  -2   3 -157.81  133.21
  15   2   3   92.82   56.18
  15   1  -3 -231.06  146.02
 -15  -1  -3  -45.85   25.01
  15   1  -3   -3.08   55.97
 -15  -1  -3  -68.54  134.56
  15   1   3  -17.83   52.47
  15   1   3   93.06  131.57
 -15  -1   3    5.27  116.40
  15   0  -3   61.88  146.94
 -15   0  -3   47.49   25.86
 -15   0  -3   20.94  123.96
  15   0  -3  -64.81   52.72
 -15   0   3  -14.85   26.39
 -15   0   3   72.20  109.52
  15   0   3  156.60  136.54
  15   0   3  -29.59   53.36
  15  -1  -3  -96.73   57.98
 -15   1  -3    4.78  113.96
 -15   1  -3  -61.64   25.10
  15  -1  -3   93.41  154.74
 -15   1   3   65.75   31.97
 -15   1   3 -145.57   98.71
  15  -1   3  134.46  142.95
  15  -1   3   64.12   54.88
 -15   2  -3  138.58  103.82
  15  -2  -3   -3.82  151.71
  15  -2  -3   36.76   59.67
 -15   2  -3  -78.57   27.68
 -15   2   3    6.19   29.54
 -15   2   3    4.37   96.88
  15  -2   3   20.84  140.70
  15  -2   3   88.53   56.56
 -15   3  -3  -62.09   96.35
  15  -3  -3   50.70  161.09
  15  -3  -3   73.77   61.80
 -15   3  -3  -40.92   26.85
 -15   3   3   -4.28   91.52
  15  -3   3    6.41   55.67
  15  -3   3  199.75  148.57
 -15   4  -3 -190.18   93.58
 -15   4  -3   39.70   29.36
  15  -4  -3 -458.08  170.93
  15  -4  -3    3.82   64.08
  15  -4   3    3.80  153.96
 -15   4   3    4.38   89.37
  15  -4   3  -10.11   61.01
  15  -5  -3 -121.16   70.93
  15  -5  -3 -172.72  166.64
 -15   5  -3  -12.48   86.32
  15  -5   3   33.06   63.15
  15  -5   3    3.99  168.87
 -15   5   3    4.53   92.54
 -15   6  -3   -4.32   89.35
  15  -6  -3 -104.51  168.25
 -15   6   3  107.10   99.68
  15  -6   3 -118.32  177.85
  15  -6   3   81.58   62.51
 -15   7  -3   14.12  101.95
  15  -7   3 -208.39  179.10
  15  -8   3 -358.38  203.49
  16   5  -3  -94.64  147.33
  16   5  -3  -40.19   63.08
 -16  -5   3    7.59  176.23
 -16  -5   3  -16.44   31.83
  16   4  -3  -73.27  146.61
  16   4  -3   67.06   62.09
 -16  -4   3  -19.06   32.20
  16   4   3  -23.79   63.83
 -16  -4   3 -264.30  169.78
  16   3  -3    3.35   60.67
 -16  -3  -3  -46.08   30.48
 -16  -3  -3   -7.62  178.24
 -16  -3   3   -6.71  157.36
 -16  -3   3   -3.08   28.82
  16   3   3 -280.90  146.44
  16   3   3   66.92   63.06
 -16  -2  -3  195.48  167.52
  16   2  -3   20.23   65.01
 -16  -2  -3   26.48   28.93
  16   2   3 -115.86  138.60
  16   2   3   -3.34   60.96
 -16  -2   3    6.28  141.53
 -16  -1  -3   32.24  149.25
 -16  -1  -3   -5.67   30.15
  16   1  -3  172.04   69.49
  16   1  -3  376.74  165.56
 -16  -1   3  -18.69   30.91
  16   1   3  -57.41   62.45
  16   1   3  146.50  141.12
 -16  -1   3   -5.81  138.27
  16   0  -3    3.54   65.19
 -16   0  -3    2.77   25.43
 -16   0  -3 -147.65  140.12
  16   0  -3  265.41  163.79
  16   0   3   41.15  149.76
 -16   0   3   43.39  127.22
 -16   0   3   -9.87   33.30
  16   0   3  -40.81   59.56
 -16   1  -3 -199.46  127.67
 -16   1  -3   11.37   29.09
  16  -1  -3  171.70  166.91
  16  -1  -3   -3.58   57.15
 -16   1   3  -37.03   37.03
 -16   1   3 -250.13  113.11
  16  -1   3   10.15   60.51
  16  -1   3  207.64  152.50
 -16   2  -3   63.99  109.97
 -16   2  -3   15.00   29.95
  16  -2  -3 -378.73  180.13
  16  -2  -3   85.20   67.29
 -16   2   3  -77.41  114.21
  16  -2   3  -10.46   65.84
  16  -2   3   11.40  156.22
 -16   2   3  -37.99   33.57
 -16   3  -3  -55.71  107.06
  16  -3  -3   64.10   72.47
  16  -3  -3 -187.22  177.45
 -16   3  -3   30.72   30.25
  16  -3   3  -50.06   64.56
 -16   3   3  -76.30  106.98
  16  -3   3  -67.76  161.80
 -16   4  -3  -80.91  102.26
  16  -4  -3  -92.37   75.75
 -16   4  -3   56.92   32.71
  16  -4  -3   56.63  183.74
 -16   4   3   -4.84  102.60
  16  -4   3   12.45  176.87
  16  -4   3  -18.67   69.14
 -16   5  -3   26.65   36.05
  16  -5  -3  -13.22   80.60
 -16   5  -3   45.73  102.53
  16  -5  -3 -413.59  198.72
 -16   5   3    4.94  104.40
  16  -5   3 -310.70   84.41
 -16   6  -3  -51.77  106.37
  16  -6  -3 -179.68  200.73
 -16   6   3   52.91  112.15
  16  -6   3 -576.01  206.75
  16  -6   3 -233.23   78.79
 -16   7  -3  -30.39  100.77
  16  -7   3   -4.83  201.86
  16  -8   3    5.04  215.54
  17   5  -3   -3.77   68.25
  17   5  -3  -34.73  164.30
 -17  -5   3 -370.40  189.86
 -17  -5   3   69.08   35.24
  17   4  -3  -21.25  154.50
  17   4  -3  -98.40   70.89
 -17  -4   3  -42.40   31.22
  17   4   3   34.13   68.82
 -17  -4   3    7.92  180.32
 -17  -3  -3 -574.07  291.24
 -17  -3  -3  -30.48   32.72
  17   3  -3    7.59   67.43
 -17  -3   3  158.58  175.97
  17   2  -3   11.56   67.26
 -17  -2  -3   52.21   31.58
 -17  -2  -3   54.48  191.80
 -17  -2   3   42.40  169.58
  17   2   3   59.65  155.84
  17   2   3   18.80   67.89
  17   1  -3 -512.36  195.51
  17   1  -3 -158.90   71.56
 -17  -1  -3 -309.87  178.77
 -17  -1  -3  -31.55   31.07
 -17  -1   3  -91.75  148.93
  17   1   3  -45.07   66.49
  17   1   3  -80.54  159.87
 -17  -1   3  -10.17   36.87
  17   0  -3 -379.35  184.35
  17   0  -3  -58.58   73.21
 -17   0  -3 -202.51  156.94
 -17   0  -3   30.85   32.10
  17   0   3 -207.56   73.30
 -17   0   3  -92.15  144.49
  17   0   3 -270.56  176.83
 -17   0   3   14.26   38.23
 -17   1  -3   24.68   30.55
 -17   1  -3  107.27  142.49
  17  -1  -3    3.96   72.28
  17  -1  -3 -342.43  190.34
  17  -1   3 -527.27  189.77
 -17   1   3 -124.58  131.53
 -17   1   3  -15.06   39.68
  17  -1   3 -144.18   77.32
  17  -2  -3    4.10   76.46
 -17   2  -3    3.24   35.48
  17  -2  -3 -350.83  201.63
 -17   2  -3    5.51  127.87
 -17   2   3  -48.87  121.38
 -17   2   3  -84.77   43.25
  17  -2   3    4.19  169.78
  17  -2   3  101.01   70.89
 -17   3  -3  -10.40  123.82
 -17   3  -3   23.95   37.89
  17  -3  -3   -4.43   77.23
  17  -3  -3  237.42  197.63
 -17   3   3   90.45  120.53
 -17   3   3    4.00   44.53
  17  -3   3  243.16  178.57
  17  -3   3   -3.98   69.09
  17  -4  -3    4.62   81.85
  17  -4  -3  147.36  200.56
 -17   4  -3    5.01  110.09
 -17   4  -3   59.74   36.75
  17  -4   3 -268.48  193.23
 -17   4   3   85.80  117.54
  17  -4   3  -25.63   76.89
 -17   5  -3    7.33   37.79
 -17   5  -3  -35.30  113.49
  17  -5  -3  151.52  202.99
  17  -5  -3  159.03   84.61
  17  -5   3  151.06   83.04
  17  -5   3 -449.97  209.07
 -17   5   3   16.38  114.56
  17  -6  -3 -370.87  213.18
 -17   6  -3   -5.14  114.83
 -17   6   3  -86.49  124.49
  17  -6   3   13.90   81.72
  17  -6   3 -188.85  211.95
 -17   7  -3 -120.48  113.46
  17  -7   3   15.62  216.62
  17  -8   3 -311.86  240.27
  18   5  -3 -218.29   79.79
 -18  -5   3 -111.72  234.24
 -18  -5   3  -12.14   42.05
  18   4  -3    4.18   75.84
 -18  -4   3  -31.47   39.79
 -18  -4   3 -133.76  215.92
 -18  -3  -3    7.46   34.05
 -18  -3  -3  186.08  225.50
  18   3  -3    4.20   72.11
  18   3   3  -84.85  171.69
  18   3   3    4.20   72.60
 -18  -3   3 -302.41  203.86
 -18  -2  -3  -26.23  209.76
  18   2  -3    4.26   78.17
 -18  -2  -3  -32.57   37.79
  18   2  -3   80.98  196.58
 -18  -2   3   -3.78   36.33
  18   2   3 -306.54  170.44
 -18  -2   3    7.82  188.02
  18   2   3   51.05   79.78
  18   1  -3 -145.07   77.18
  18   1  -3    4.86  193.01
 -18  -1  -3  161.42  189.97
 -18  -1  -3  -10.55   34.70
 -18  -1   3   56.89   37.63
 -18  -1   3   21.70  164.31
  18   1   3   81.58   79.52
  18   1   3  234.44  178.29
 -18   0  -3   95.22  178.68
  18   0  -3 -366.34  201.65
 -18   0  -3   78.93   34.53
  18   0  -3   -4.34   76.52
  18   0   3  -68.84   70.30
 -18   0   3   39.56   42.00
  18   0   3 -255.76  180.67
 -18   0   3   27.12  148.59
 -18   1  -3 -262.75  160.73
 -18   1  -3   17.21   34.54
  18  -1  -3 -140.48   82.39
  18  -1  -3  -57.99  201.53
  18  -1   3  -98.96   74.96
 -18   1   3  -59.09   43.53
  18  -1   3   73.85  188.65
 -18   1   3  -50.78  148.91
  18  -2  -3  139.00  213.18
 -18   2  -3  124.05  151.92
 -18   2  -3  -57.32   36.08
  18  -2  -3   28.18   83.75
  18  -2   3  -41.24  189.44
 -18   2   3   69.45   46.76
 -18   2   3   54.93  132.99
  18  -2   3   43.15   79.61
 -18   3  -3  -64.90   40.22
  18  -3  -3  152.13   83.50
 -18   3  -3   80.84  130.28
  18  -3  -3   80.99  210.46
  18  -3   3  -80.38  192.83
  18  -3   3    4.43   80.15
 -18   3   3   31.35   49.19
 -18   3   3  267.74  140.67
 -18   4  -3  -39.10  130.71
  18  -4  -3   -5.18  215.77
 -18   4  -3   11.84   35.08
  18  -4  -3 -106.98   87.14
 -18   4   3 -202.43  133.55
 -18   4   3  -61.01   51.15
  18  -4   3   -4.97  210.16
  18  -4   3  -66.32   88.78
 -18   5  -3   53.15   43.08
 -18   5  -3  -39.00  126.73
  18  -5  -3 -211.03   89.78
  18  -5  -3   63.67  230.06
  18  -5   3  -77.76  224.75
  18  -5   3   98.06   86.73
 -18   5   3   66.29  126.31
 -18   6  -3  101.56  131.24
  18  -6  -3  672.16  239.86
 -18   6  -3  -64.18   48.85
 -18   6   3  -37.92  147.23
  18  -6   3  -86.03   90.49
  18  -6   3 -146.48  231.68
 -18   7  -3   47.54  122.15
  18  -7   3   39.63  237.93
  18  -8   3 -241.43  248.98
  19   5  -3   -4.71   86.34
 -19  -5   3  -67.39   43.83
 -19  -5   3 -322.87  246.76
  19   4  -3  246.13   93.71
 -19  -4   3 -379.77  248.13
  19   3  -3 -427.41   95.22
 -19  -3  -3    4.14   39.63
 -19  -3  -3 -280.72  243.81
  19   3   3    4.71   81.22
 -19  -3   3  -56.63  231.77
  19   2  -3 -188.90   94.85
 -19  -2  -3  -48.31   40.17
 -19  -2  -3   38.94  227.37
 -19  -2   3   25.43   39.28
  19   2   3  -99.12   91.19
  19   2   3   -9.63  193.82
 -19  -2   3 -105.25  209.42
 -19  -1  -3  -82.04   44.29
  19   1   3 -379.88  204.47
 -19  -1   3  -12.70   46.00
 -19  -1   3  -65.45  200.01
 -19   0  -3  -76.84   39.47
 -19   0  -3  -56.44  207.09
  19   0  -3 -603.46  262.87
 -19   0   3  -79.29   46.93
  19   0   3  338.77  208.27
  19   0   3 -104.35   91.17
 -19   0   3 -342.40  189.20
 -19   1  -3  -91.85   40.92
  19  -1   3 -469.45  217.79
 -19   1   3 -107.36   54.14
 -19   1   3 -530.55  176.36
  19  -1   3 -162.39   90.30
 -19   2  -3 -500.41  177.75
 -19   2  -3   19.38   41.28
  19  -2  -3 -355.20   99.77
  19  -2   3  -69.21   93.22
  19  -2   3 -645.09  224.04
 -19   2   3 -102.79  158.79
 -19   2   3   53.30   47.01
 -19   3  -3  -57.61   40.12
 -19   3  -3 -285.49  153.68
  19  -3  -3   82.97  238.45
  19  -3  -3 -114.17   96.46
  19  -3   3  -98.80  214.94
 -19   3   3   25.13   55.45
  19  -3   3   61.00   95.33
 -19   3   3 -220.66  154.78
  19  -4  -3  -84.50  250.28
 -19   4  -3  -39.84   41.90
 -19   4  -3  137.26  146.88
  19  -4  -3   56.40   95.52
  19  -4   3 -151.10  230.13
 -19   4   3    5.22   55.63
  19  -4   3  -21.04   88.31
 -19   4   3   32.93  145.33
 -19   5  -3   82.17   49.90
  19  -5  -3 -312.84   98.77
 -19   5  -3 -314.80  148.43
  19  -5  -3  -75.00  241.84
 -19   5   3   32.92   59.87
  19  -5   3 -310.80  251.79
  19  -5   3 -151.77   93.60
 -19   5   3 -382.14  146.16
 -19   6  -3  -68.39  143.73
 -19   6  -3  -37.98   46.88
  19  -6  -3   71.06  246.37
 -19   6   3   97.67  149.86
  19  -6   3   11.78  252.07
  19  -6   3  -49.90   95.13
 -19   7  -3   34.77   52.15
 -19   7  -3  155.41  140.03
  19  -7   3 -178.12  262.89
 -20  -3  -3 -383.31  289.65
  20   3   3    5.33   98.03
  20   2  -3    5.33  100.46
 -20  -2  -3   -4.48   46.48
 -20  -2  -3  227.94  272.83
  20   2   3    5.39   95.33
 -20  -2   3   -9.68  232.58
  20   2   3 -340.64  209.99
 -20  -1  -3   39.30   44.01
  20   1  -3 -284.03  208.22
 -20  -1  -3  109.27  254.51
  20   1  -3   10.80  101.68
 -20  -1   3   54.63  211.31
  20   1   3   63.55  212.35
  20   1   3   81.19  100.21
  20   0  -3 -182.57  239.38
  20   0  -3   82.08  100.82
 -20   0  -3   91.09  206.27
 -20   0  -3  103.20   42.81
  20   0   3 -356.66  218.30
  20   0   3  -98.02   98.42
 -20   0   3   42.47  200.13
  20  -1  -3   33.79   99.30
 -20   1  -3 -284.02  196.02
 -20   1  -3   -4.26   39.65
  20  -1   3   -5.44   95.01
 -20   1   3 -120.22  195.43
 -20   1   3   40.53   54.21
  20  -1   3 -127.22  224.22
  20  -2  -3   17.55  240.05
 -20   2  -3  239.70  186.67
  20  -2  -3 -157.09  108.52
 -20   2  -3    4.33   44.29
 -20   2   3    5.42   44.21
  20  -2   3  132.60   97.55
  20  -2   3 -227.97  235.71
 -20   2   3 -107.64  176.80
 -20   3  -3   31.84   46.56
 -20   3  -3  145.50  165.54
  20  -3  -3  -36.17  104.04
  20  -3   3 -101.96  102.89
  20  -3   3 -244.15  244.93
 -20   3   3 -219.14  161.46
 -20   4  -3   43.74   51.79
 -20   4  -3 -231.31  167.92
  20  -4   3 -152.12  255.35
  20  -4   3  128.44  105.38
 -20   5  -3  -60.90   55.05
 -20   5  -3   95.32  157.02
  20  -5   3  -67.45  263.90
  20  -5   3   48.10  107.36
 -20   6  -3  185.35  152.14
  20  -6   3 -193.94  104.07
  20  -6   3 -192.47  273.86
 -20   7  -3 -127.61  150.18
   0   0  -4 1807.98  495.77
   0   0   4 1993.69  421.71
   0   0   4 1832.02  438.39
   1   0  -4    6.20   14.02
  -1   0  -4   10.98   16.53
   0   1  -4    2.14   13.32
   1   0   4    0.98    6.24
   0  -1   4    2.80    5.16
  -1   0   4    5.93   10.11
   0  -1   4    3.14    6.83
   1   1  -4   14.41   13.36
   1   1  -4   29.79    5.86
  -1   1  -4    1.92   16.54
  -1  -1   4   27.62    8.01
   1  -1   4   13.27    8.04
  -1  -1   4   16.71    7.46
   2   1  -4    9.98   12.73
   2   1  -4    7.50    4.54
   2   1  -4    8.63   13.80
  -2  -1   4    8.27    5.46
  -2  -1   4   12.58    8.63
   1  -2   4    7.51    8.34
  -2  -1   4   -1.37    5.43
   0   2  -4  571.99  120.19
  -2   0  -4  569.30  147.01
   2   0  -4  524.10  139.19
   2   0  -4  568.06  125.88
   2   0   4  643.82  130.41
  -2   0   4  558.81  128.60
   0  -2   4  452.89  123.03
   0  -2   4  603.89  127.51
   2   0   4  532.45  125.03
   1   2  -4    8.80    3.90
  -2   1  -4    3.74   20.36
  -2   1  -4    8.60    2.59
   2  -1   4   13.91    7.99
  -1  -2   4    9.47    6.97
   2  -1   4    8.47    9.63
   2  -1   4    2.17   10.43
  -1  -2   4    7.87    5.02
   2  -1   4    9.70    3.57
   2   2  -4  210.34   53.34
  -2   2  -4  203.88   46.14
  -2   2  -4  222.10   43.55
   2   2  -4  230.24   43.12
   2  -2   4  231.90   46.65
   2  -2   4  213.33   46.46
  -2  -2   4  134.12   42.95
   2  -2   4  174.69   52.63
  -2  -2   4  215.71   46.28
   2  -2   4  158.07   45.42
  -2   3  -4  298.39   62.79
   3   2  -4  236.35   73.80
  -3  -2   4  274.08   60.69
   2  -3   4  300.49   67.27
   2  -3   4  311.54   64.20
   3   1  -4   76.80   28.21
   3   1  -4   83.13   19.99
  -3  -1   4   78.13   23.79
   3   0  -4    1.73    6.63
   3   0  -4    1.40   19.00
   0   3  -4   -3.13    4.60
  -3   0  -4   -0.99   27.24
  -3   0  -4   -0.40    2.65
  -3   0   4   -8.28   11.62
   3   0   4   -5.92   16.01
   3   0   4    5.25   14.86
   0  -3   4    2.33    5.59
   3   0   4   -2.54   10.16
  -3   1  -4   80.87   35.64
   3  -1  -4   60.71   28.91
  -3   1  -4   74.75   20.53
   3  -1  -4   97.21   24.87
   3  -1   4  108.13   23.90
   3  -1   4  104.46   24.67
  -3   1   4  111.20   24.95
   3  -1   4  117.44   21.59
   3  -1   4   92.83   28.27
  -3   2  -4  320.85   69.64
  -3   2  -4  289.06   64.55
   3  -2   4  284.21   76.68
   3  -2   4  301.05   66.57
   3  -2   4  299.52   67.02
   3  -2   4  269.03   67.79
  -3  -3   4  494.96  110.18
   3  -3   4  563.26  130.11
   3  -3   4  444.95  112.99
   3  -3   4  564.72  117.49
   4   3  -4  291.61   57.21
   4   3  -4  167.31   70.87
   4   2  -4  209.16   56.57
   4   2  -4  176.74   46.85
  -4  -2   4  215.63   42.62
   2  -4   4  186.18   44.75
   4   1  -4   10.13   25.53
   4   1  -4    4.91    8.42
  -4  -1   4  -11.04   16.91
  -4   0  -4  883.80  228.72
   4   0  -4  985.03  190.49
   4   0  -4  872.96  213.88
  -4   0   4  854.76  199.68
   4   0   4  693.71  214.27
   4   0   4  757.96  192.92
   4   0   4  902.83  194.60
   4   0   4  923.48  200.58
   4  -1  -4    7.63   11.64
  -4   1  -4   -3.36    3.72
   4  -1  -4    3.73   25.42
  -4   1  -4   -1.01   31.64
   4  -1   4   13.54   13.91
  -4   1   4   -2.02   15.06
   4  -1   4    6.10   21.07
   4  -1   4    8.76   12.48
   4  -1   4   -0.97    6.80
   4  -2  -4  202.40   51.98
  -4   2  -4  227.12   47.88
   4  -2  -4  213.20   57.79
  -4   2  -4  227.48   53.03
   4  -2   4  216.18   59.63
   4  -2   4  224.90   48.85
  -4   2   4  201.30   53.43
   4  -2   4  198.11   50.37
   4  -2   4  217.04   50.73
  -4   3  -4  367.09   69.93
  -4   3  -4  191.43   64.12
   4  -3   4  289.40   69.52
   4  -3   4  303.52   79.37
   4  -3   4  346.25   66.42
   4  -3   4  288.62   68.11
   4  -4   4  184.11   55.61
  -5  -4   4   60.44   15.93
  -5  -1  -4  508.31  112.50
  -5  -1   4  523.36  122.53
   5   1   4  553.29  126.36
   5   1   4  561.89  130.11
  -5   0  -4   -2.60    5.35
   5   0  -4    3.45   12.37
  -5   0  -4    2.52   45.75
  -5   0   4  -10.99   23.16
   5   0   4   -7.39   10.03
   5   0   4    4.68   30.49
   5   0   4   10.34   22.49
   5   0   4   11.41   17.00
  -5   1  -4  354.02  121.95
  -5   1  -4  416.30   89.47
  -5   1  -4  449.36  101.55
   5  -1   4  437.80   93.35
   5  -1   4  416.58   96.54
   5  -1   4  375.36  110.23
   5  -1   4  426.95   96.68
  -5   2  -4  307.81   67.08
  -5   2  -4  266.08   84.82
  -5   2  -4  295.39   60.05
   5  -2   4  166.51   76.28
   5  -2   4  226.04   63.06
   5  -2   4  317.16   63.73
   5  -2   4  273.32   61.39
  -5   3  -4   62.84   25.87
   5  -3   4   40.68   19.24
   5  -3   4   33.85   37.63
   5  -3   4   71.61   23.81
  -5   4  -4   81.75   20.35
  -5   4  -4   50.67   29.51
   5  -4   4   77.78   43.50
   5  -4   4   86.43   22.97
  -5   5  -4   33.83   16.38
   5  -5   4   67.76   27.62
   6   4  -4   -4.47   46.18
   6   4  -4   11.96   15.52
  -6  -4   4   24.15   10.25
   6   3  -4   39.52   44.94
   6   3  -4   10.66   16.48
  -6  -3   4   22.55    9.12
   6   2  -4  787.01  206.51
  -6  -1  -4   -3.51    7.26
   6   1  -4  -13.96   14.70
   6   1  -4    5.03   45.21
   6   1   4    7.62   35.93
  -6  -1   4  -15.30   30.33
   6   1   4    5.95   37.03
  -6  -1   4   17.69    8.08
   6   0  -4  269.90   66.87
   6   0  -4  160.05   44.04
  -6   0  -4  144.40   73.99
   6   0   4  156.26   50.73
  -6   0   4  229.72   51.84
   6   0   4  158.77   46.95
   6  -1  -4   -6.81   17.93
  -6   1  -4  -14.12   54.84
   6  -1  -4    1.37   47.02
   6  -1   4    7.27   20.50
  -6   1   4  -15.95   26.90
   6  -1   4   -3.99   18.79
  -6   2  -4  959.63  202.49
  -6   2  -4  647.28  251.67
  -6   2   4 1100.00  217.93
   6  -2   4  948.35  210.50
   6  -2   4  934.05  208.41
   6  -3  -4   41.83   25.34
  -6   3   4   27.06   29.57
  -6   4  -4    0.98   12.55
   6  -4   4  -20.80   26.33
   6  -4   4   25.20   48.10
   6  -4   4   22.95   18.20
  -6   5  -4   16.91   15.70
   6  -5   4   97.47   50.92
   6  -5   4   73.98   30.35
   7   5  -4   93.98   29.85
   7   4  -4   24.51   21.98
   7   4  -4    4.82   57.92
  -7  -4   4   53.67   13.58
   7   3  -4   24.06   53.20
   7   3  -4   12.45   19.43
  -7  -3   4   24.82   10.32
  -7  -2  -4   10.19    9.00
   7   2  -4   -2.18   17.65
   7   2  -4   27.08   51.13
   7   2   4    7.86   16.46
   7   2   4   24.33   46.84
  -7  -2   4  -11.95    9.44
  -7  -1  -4   38.62   12.06
   7   1  -4   42.86   55.02
   7   1  -4   16.78   20.69
  -7  -1   4   61.57   38.14
  -7  -1   4   19.87   11.93
   7   1   4   49.54   17.98
   7   1   4   72.89   47.83
   7   1   4   61.62   40.37
   7   0  -4  -17.13   55.35
   7   0  -4   12.91   19.70
  -7   0  -4   -9.53    8.81
  -7   0  -4    3.14   62.98
  -7   0   4  -13.90   36.70
   7   0   4   -8.98   45.44
   7   0   4  -39.58   27.05
   7   0   4  -11.39   23.23
   7   0   4   -9.84   15.55
   7  -1  -4   27.46   11.98
   7  -1  -4   86.05   55.07
  -7   1  -4   49.90   58.11
  -7   1  -4   19.36   35.88
  -7   1  -4   24.02   11.50
   7  -1  -4   14.33   21.92
   7  -1   4   26.11   17.15
   7  -1   4   95.18   23.52
   7  -1   4   66.63   48.29
   7  -1   4   28.87   24.65
  -7   1   4   86.93   34.22
  -7   2  -4  -30.84   36.02
   7  -2  -4  -15.69   24.80
   7  -2   4  -37.15   50.16
   7  -2   4    2.09   16.24
  -7   2   4    5.25   32.36
   7  -3  -4   40.70   29.29
  -7   3  -4   19.65   14.22
   7  -3  -4   -8.17   56.02
  -7   3  -4   21.54   32.70
   7  -3   4   33.76   19.31
   7  -3   4   25.62   54.89
  -7   3   4   -7.54   35.22
   7  -3   4   49.50   20.17
  -7   4  -4   -2.10   17.76
  -7   4  -4  -63.81   43.99
   7  -4   4    6.85   33.70
   7  -4   4   12.41   28.02
   7  -4   4  -33.28   24.50
   7  -4   4 -144.75   66.94
  -7   5  -4   83.40   45.49
  -7   5  -4  137.93   31.22
   7  -5   4  108.26   34.63
   7  -5   4  152.64   44.87
   7  -5   4  130.87   68.01
   7  -6   4  107.96   45.92
   7  -6   4  134.81   69.09
   8   5  -4  108.05   29.80
  -8  -5   4   66.35   21.71
   8   4  -4   43.10   25.77
   8   4  -4   40.57   62.11
  -8  -4   4   59.70   16.71
   8   3  -4   17.08   61.41
   8   3  -4   -3.93   22.31
  -8  -3   4    9.84   11.06
   8   2  -4   67.55   28.58
   8   2  -4   41.00   67.23
  -8  -2  -4   87.52   20.45
  -8  -2   4  103.04   20.34
   8   2   4  139.91   69.28
   8   2   4   20.88   28.80
   8   1  -4   18.16   23.89
   8   1  -4  -84.93   72.15
  -8  -1  -4  -30.23   11.82
   8   1   4  -25.70   22.87
  -8  -1   4  -12.27   10.77
  -8  -1   4   21.23   44.37
  -8   0  -4  -26.02   88.50
  -8   0  -4  126.38   19.95
   8   0  -4   47.49   28.91
   8   0  -4   23.14   78.52
   8   0   4   16.07   39.11
  -8   0   4  109.25   45.72
   8   0   4   58.00   29.13
  -8   1  -4  -27.36   13.72
   8  -1  -4  -28.20   25.51
   8  -1  -4   -7.04    9.53
  -8   1  -4  -47.51   47.67
   8  -1   4 -102.61   26.54
  -8   1   4   13.73   40.76
  -8   2  -4  -14.50   54.16
   8  -2  -4   92.82   31.46
  -8   2   4   51.71   42.89
   8  -2   4   -1.02   29.98
   8  -2   4  105.25   26.74
   8  -3  -4    1.97   31.51
  -8   3  -4   26.68   71.78
  -8   3  -4  -22.02   14.88
  -8   3  -4  -18.05   41.02
   8  -3  -4  -41.62   65.53
   8  -3   4   10.13   26.04
  -8   3   4   48.38   40.07
   8  -3   4   14.38   21.22
   8  -3   4   -8.24   21.41
   8  -3   4  -46.36   62.29
  -8   4  -4   38.95   20.68
   8  -4  -4   49.91   63.43
  -8   4  -4   35.97   40.74
   8  -4   4  149.96   30.48
   8  -4   4   61.48   33.69
   8  -4   4  134.14   67.08
  -8   4   4   51.53   43.82
   8  -4   4   42.41   25.17
  -8   5  -4   58.84   22.65
  -8   5  -4   61.06   45.88
   8  -5   4   66.29   72.89
   8  -5   4   85.26   28.66
   8  -5   4   56.59   34.92
   8  -5   4   80.60   41.60
   8  -6   4   64.86   73.72
   8  -6   4   28.24   41.76
   9   5  -4   42.36   27.58
  -9  -5   4   43.29   16.56
   9   4  -4  477.09  124.79
   9   4  -4  390.33  101.77
  -9  -4   4  440.29   93.22
   9   3  -4   74.09   31.83
   9   3  -4  146.40   73.39
   9   3   4   60.80   33.14
  -9  -3   4   94.89   22.39
  -9  -2  -4   86.42   26.57
   9   2  -4  158.45   74.24
   9   2  -4  140.15   34.97
   9   2   4  121.83   34.51
  -9  -2   4   79.59   63.34
  -9  -2   4  103.42   26.51
   9   2   4   60.44   64.26
  -9  -1  -4   -3.95   11.45
   9   1  -4   -3.87   71.60
   9   1  -4  -23.77   22.56
  -9  -1   4   -1.42   12.81
   9   1   4   56.31   62.31
   9   1   4   22.47   23.42
  -9  -1   4    2.47   52.85
  -9   0  -4   -7.63   11.80
   9   0  -4  -86.39   73.77
   9   0  -4   15.51   26.84
   9   0   4    1.35   22.25
  -9   0   4   11.65   47.50
   9   0   4   33.90   62.96
   9  -1  -4   16.45   27.98
  -9   1  -4   -6.69   47.63
  -9   1  -4   -6.37   12.10
   9  -1   4   -1.17   25.16
   9  -1   4   -3.42   64.87
  -9   1   4  -22.43   44.12
   9  -1   4   16.25   23.25
  -9   2  -4  205.24   85.38
  -9   2  -4  136.70   51.32
   9  -2  -4  123.84   39.52
  -9   2  -4   87.04   25.22
  -9   2  -4   84.19   26.97
  -9   2   4   76.21   50.23
   9  -2   4   61.55   35.94
   9  -2   4   93.45   33.18
   9  -2   4  141.37   32.93
   9  -2   4   88.53   72.55
   9  -3  -4   60.00   35.41
  -9   3  -4   24.69   47.30
   9  -3  -4  188.67   79.34
  -9   3  -4   82.01   23.49
  -9   3  -4   41.50   83.97
   9  -3   4   77.29   29.47
   9  -3   4   60.46   34.58
  -9   3   4   71.14   48.50
   9  -3   4   62.55   31.28
   9  -3   4  177.32   71.54
  -9   4  -4  399.14  113.32
   9  -4  -4  601.16  107.52
  -9   4  -4  404.93   98.94
   9  -4  -4  476.72  130.82
   9  -4   4  478.76  103.81
   9  -4   4  437.57  137.23
   9  -4   4  405.46  103.21
   9  -4   4  398.85  106.54
  -9   4   4  417.03  113.87
  -9   5  -4   58.03   49.85
  -9   5  -4   17.47   19.79
   9  -5   4   54.59   36.70
   9  -5   4   -8.55   83.33
   9  -5   4   58.40   39.49
   9  -5   4   38.19   27.64
   9  -6   4  544.83  153.15
   9  -6   4  469.04  123.81
   9  -7   4   84.44   64.24
   9  -7   4  289.96  102.75
  10   5  -4  234.24   97.87
  10   5  -4  273.77   59.84
 -10  -5   4  199.10   52.21
  10   4  -4   15.38   29.62
  10   4  -4  -77.60   77.18
 -10  -4   4   16.83   14.62
  10   3  -4   20.09   30.85
 -10  -3  -4   44.85   16.92
  10   3  -4    4.32   81.46
  10   3   4   49.52   30.50
 -10  -3   4   36.24   17.37
  10   2  -4  137.80   80.07
  10   2  -4   42.13   31.21
 -10  -2  -4   49.90   19.04
  10   2   4   24.31   70.24
 -10  -2   4   68.59   19.88
  10   2   4   65.65   31.76
 -10  -2   4   12.11   69.43
  10   1  -4   10.93   80.13
 -10  -1  -4   22.24   14.21
  10   1  -4   -6.90   30.75
  10   1   4   61.42   72.80
 -10  -1   4   42.56   61.22
  10   1   4   14.45   27.13
 -10  -1   4   14.56   15.88
  10   1   4   86.20   43.45
  10   0  -4  260.07   79.10
 -10   0  -4  388.85   70.92
 -10   0  -4  282.67  104.16
  10   0   4  432.23  107.89
 -10   0   4  385.29   98.14
  10   0   4  187.38   80.34
  10   0   4  343.90   77.51
 -10   1  -4  133.04   92.19
 -10   1  -4   -2.59   56.50
  10  -1  -4   -3.70   34.43
 -10   1  -4    5.08   15.62
 -10   1  -4   -8.74   15.56
  10  -1   4   37.35   25.62
 -10   1   4  -22.92   52.90
  10  -1   4   54.28   74.71
  10  -1   4    9.30   26.37
  10  -1   4   18.85   33.78
  10  -2  -4  -37.97   89.79
 -10   2  -4   25.56   16.87
  10  -2  -4   60.66   34.46
 -10   2  -4   52.71   19.05
 -10   2  -4   38.58   55.07
 -10   2  -4   45.33   86.94
 -10   2   4   92.80   54.18
  10  -2   4  104.09   79.62
  10  -2   4   42.93   26.31
  10  -2   4   76.74   34.31
  10  -2   4   41.62   30.57
  10  -3  -4  -11.91   88.02
 -10   3  -4   42.00   19.78
 -10   3  -4    3.91   96.65
  10  -3  -4   22.91   36.51
 -10   3  -4   65.36   52.22
  10  -3   4   -2.11   84.46
 -10   3   4   75.89   52.19
  10  -3   4   64.24   32.67
  10  -3   4   52.81   25.73
  10  -3   4   44.19   32.19
 -10   4  -4   14.97   18.72
  10  -4  -4   74.97   45.59
  10  -4  -4  182.04   91.55
 -10   4  -4   52.33   51.22
 -10   4  -4    4.27  100.47
  10  -4   4   40.01   34.25
  10  -4   4   25.33   27.12
  10  -4   4    1.25   37.02
 -10   4   4   44.42   54.75
  10  -4   4  -47.67   91.78
 -10   5  -4  201.82   72.00
  10  -5  -4  329.41  102.29
 -10   5  -4  165.27   46.09
  10  -5   4  123.58   60.73
  10  -5   4  220.88   58.41
  10  -5   4  158.03  104.98
 -10   6  -4   -8.71   61.34
  10  -6   4   62.24   49.22
  10  -6   4  -69.12  105.86
  10  -7   4  216.01  111.36
  10  -7   4  123.05   65.97
  11   5  -4 -202.03   93.52
  11   5  -4   11.83   35.93
 -11  -5   4   -6.03   19.92
  11   4  -4  103.91   45.94
 -11  -4   4  108.49   31.17
 -11  -3  -4   15.33   17.91
  11   3  -4   20.90   34.96
  11   3  -4  -43.40   88.17
 -11  -3   4   33.65   17.10
  11   3   4   79.53   36.99
  11   2  -4  102.88   36.08
 -11  -2  -4   62.61   22.74
  11   2  -4    9.48   92.67
  11   2   4  -82.68   83.60
 -11  -2   4   66.59   21.94
  11   2   4   73.75   35.74
 -11  -2   4  123.36   79.44
  11   1  -4  260.73   71.66
  11   1  -4  227.54  114.11
 -11  -1  -4  267.56   60.79
 -11  -1   4  235.93   94.91
 -11  -1   4  329.80   61.50
  11   1   4  388.85  107.78
  11   1   4  192.74   69.66
 -11   0  -4   11.13   15.12
  11   0  -4    6.10   35.27
 -11   0  -4   13.02   69.67
  11   0   4   14.35   31.52
  11   0   4    2.20   82.23
 -11   0   4  -30.18   63.91
 -11   1  -4  233.23   63.63
  11  -1  -4  284.58   74.00
 -11   1  -4  241.32   98.47
  11  -1   4  283.09   71.77
  11  -1   4  427.92  108.80
 -11   1   4  338.92   91.38
 -11   2  -4   48.83   17.79
  11  -2  -4   76.36   37.49
 -11   2  -4   49.64   64.47
  11  -2  -4    2.66  104.91
  11  -2   4   -9.43   34.63
 -11   2   4   92.52   60.99
  11  -2   4   74.46   85.90
  11  -3  -4   10.64  102.76
  11  -3  -4    2.52   43.74
 -11   3  -4   21.08   60.41
  11  -3   4  108.88   94.71
  11  -3   4  -11.94   34.42
 -11   3   4   43.27   57.76
  11  -4  -4  140.74  109.72
  11  -4  -4   73.78   59.34
 -11   4  -4  182.87   69.74
  11  -4   4  111.32  109.14
 -11   4   4  218.18   71.19
  11  -4   4  168.65   51.34
 -11   5  -4  -39.62   60.26
 -11   5  -4  -23.62   21.13
  11  -5  -4   -8.25  105.04
  11  -5   4   17.69   42.69
  11  -5   4 -109.91  107.27
 -11   5   4   -3.34   64.20
 -11   6  -4   49.86   65.18
  11  -6   4   27.45   47.18
  11  -6   4   79.61  114.73
  11  -6   4   -3.56   49.83
  11  -7   4  -53.56  119.39
  11  -7   4  126.04   61.11
  12   5  -4  -11.04   41.00
 -12  -5   4   -2.22   15.94
  12   4  -4   -4.30   40.40
  12   4  -4  -61.29  102.02
 -12  -4   4   20.81   19.55
  12   3  -4  -32.19  104.82
  12   3  -4   31.90   41.15
 -12  -3  -4  -12.64   20.22
 -12  -3   4   21.87   18.84
  12   3   4   57.07   89.53
 -12  -3   4  -37.64   96.07
  12   3   4   -8.86   38.22
 -12  -2  -4  110.97   32.51
  12   2  -4   36.92  103.77
  12   2  -4   69.54   46.66
  12   2   4   78.68   45.95
  12   2   4  246.45   95.73
 -12  -2   4  169.70   93.84
 -12  -2   4  155.52   33.51
  12   1  -4  -30.53   40.74
  12   1  -4 -154.25  111.87
 -12  -1  -4   11.13   16.66
  12   1   4    2.44   90.04
 -12  -1   4  -12.58   21.42
  12   1   4   -2.06   37.59
 -12  -1   4  120.07   81.45
 -12   0  -4  187.32  122.12
 -12   0  -4  404.83   75.67
  12   0  -4  358.56   88.14
  12   0   4  293.57   84.80
  12   0   4  367.73  129.28
 -12   0   4  332.08  116.01
 -12   1  -4   47.26   75.85
  12  -1  -4   42.65   41.39
 -12   1  -4  -14.88   18.32
  12  -1   4  -24.19   97.46
 -12   1   4  -35.52   72.29
  12  -1   4   -4.11   36.31
  12  -2  -4  241.01  118.78
  12  -2  -4  139.53   51.85
 -12   2  -4   84.76   74.66
 -12   2  -4  103.70   29.73
  12  -2   4   89.20   44.27
 -12   2   4   53.84   73.03
  12  -2   4   42.87  101.44
 -12   3  -4    7.49   20.39
  12  -3  -4  121.73  119.69
  12  -3  -4   69.09   43.92
 -12   3  -4   86.00   68.31
  12  -3   4   47.39  109.07
 -12   3   4   79.74   68.33
  12  -3   4    4.46   41.15
 -12   4  -4  -14.72   67.59
  12  -4  -4  -12.01  117.69
  12  -4  -4  -40.51   55.77
 -12   4   4   96.19   71.42
  12  -4   4   66.35   42.76
  12  -4   4   -2.78  110.47
 -12   5  -4   27.96   65.38
  12  -5  -4   25.34   54.31
  12  -5   4  -13.79   50.86
 -12   5   4  -28.73   72.03
  12  -5   4  152.04  118.29
 -12   6  -4    3.35   69.79
  12  -6   4   94.52  127.55
  12  -6   4   14.87   48.93
  12  -7   4   -6.65  135.12
  13   6  -4   59.67   45.42
  13   5  -4 -175.75  109.42
  13   5  -4  230.97   45.20
 -13  -5   4  -22.00   25.97
  13   2   4  -66.64   44.26
 -13  -1  -4   37.13  107.38
 -13  -1  -4   99.18   24.73
  13   1  -4   -2.51   49.09
 -13  -1   4   -4.12   94.69
  13   1   4    8.11  105.77
  13   1   4   25.48   42.97
 -13   0  -4  -12.49   95.40
 -13   0  -4  -17.97   18.67
  13   0  -4 -123.68   47.19
  13   0   4   41.14  106.83
  13   0   4   13.97   40.27
 -13   0   4    7.73   84.25
 -13   1  -4   57.57   86.85
 -13   1  -4   66.48   23.63
  13  -1  -4   -2.64   49.17
  13  -1   4   59.59   44.62
  13  -1   4  -94.69  110.63
 -13   1   4   -3.62   81.18
 -13   2  -4   -6.96   82.35
 -13   2  -4  -35.51   22.15
  13  -2   4 -192.92  109.20
  13  -2   4   23.75   42.41
 -13   3  -4    3.33   77.39
 -13   3  -4    2.11   21.84
  13  -3   4   75.62  120.46
  13  -3   4  -22.42   44.05
 -13   4  -4   45.75   73.78
  13  -4   4   13.61   49.41
  13  -4   4    3.07  125.91
 -13   5  -4    3.41   73.38
  13  -5  -4 -266.95  132.87
  13  -5   4 -137.83  137.80
  13  -5   4   39.25   52.33
 -13   6  -4  -79.86   79.97
  13  -6   4  -19.49   57.66
  14   6  -4  -82.82   52.10
  14   5  -4  -39.24  119.73
  14   5  -4    5.37   49.08
 -14  -5   4   18.90   29.12
  14   4  -4   10.70   49.39
  14   4  -4  163.66  132.70
 -14  -4   4   89.89  139.96
 -14  -4   4  -15.47   24.22
  14   3  -4  -72.75   51.70
 -14  -3  -4  -20.41   25.68
  14   3   4 -278.21  115.73
 -14  -3   4  -66.87   26.35
 -14  -3   4    5.22  117.85
  14   3   4    2.72   50.32
  14   2  -4 -235.65  135.85
  14   2  -4   54.97   45.97
 -14  -2  -4    7.27   25.27
 -14  -2   4  -34.61  112.10
 -14  -2   4    7.38   27.81
  14   2   4  -14.90  109.51
  14   2   4  210.58   44.23
 -14  -1  -4   16.07   22.47
  14   1  -4   55.78   54.71
 -14  -1   4   46.40  103.82
  14   1   4 -125.37  112.01
  14   0  -4   -2.80   51.77
 -14   0   4  -21.34   97.40
  14  -1  -4  214.54  138.72
  14  -1  -4   -2.93   51.96
 -14   1   4   10.86   26.19
 -14   1   4  -24.34   89.57
  14  -2  -4  -67.24   54.58
  14  -2  -4  -77.46  142.42
 -14   2   4  -11.70   83.19
  14  -3  -4  -63.51   59.55
  14  -3  -4 -465.68  156.63
 -14   3   4   23.45   89.50
  14  -4  -4  106.67   71.78
 -14   4   4  177.18   93.06
  14  -5  -4 -212.27  154.64
  14  -5  -4    3.71   63.86
 -14   5   4   71.79   88.22
  14  -5   4  296.40  148.88
 -14   6  -4   -3.91   70.04
  14  -6  -4   60.12  152.79
  14  -6   4 -133.51  161.71
 -14   7  -4  -30.22   85.90
  14  -7   4  -64.56  162.36
  14  -8   4   -4.21  170.18
  15   6  -4   79.48   57.77
  15   5  -4 -190.51  135.77
  15   5  -4    3.01   55.41
 -15  -5   4  -32.82   30.08
  15   4  -4   81.34  139.78
  15   4  -4  -15.09   54.37
 -15  -4   4  181.53  146.57
 -15  -4   4   28.57   28.29
  15   3  -4   15.14   57.82
  15   3  -4  -28.84  145.46
 -15  -3  -4    5.60   27.52
  15   3   4   -3.38  121.26
 -15  -3   4  158.45  134.59
  15   3   4   93.27   54.51
 -15  -3   4   11.08   28.54
 -15  -2  -4 -102.59  153.58
  15   2  -4 -213.14  147.53
  15   2  -4 -121.92   60.30
 -15  -2  -4   32.10   26.80
  15   2   4 -235.59  126.26
  15   2   4   41.52   53.29
 -15  -2   4  -60.53   28.29
 -15  -2   4   -5.51  124.41
  15   1  -4   12.36   60.11
 -15  -1  -4   -7.64   24.74
 -15  -1  -4  -92.42  134.35
  15   1   4  -21.00   52.16
  15   1   4   72.32  128.98
 -15  -1   4    5.12  116.21
 -15   0  -4   -9.86   22.80
  15   0  -4  -32.13   60.30
  15   0  -4  118.34  154.01
 -15   0  -4   53.19  126.59
 -15   0   4   -4.81  106.99
  15   0   4    2.98   50.02
  15   0   4   60.04  136.28
 -15   1  -4  -15.00   25.69
 -15   1  -4  115.10  115.45
  15  -1  -4   -6.50   58.48
  15  -1  -4    7.56  150.70
  15  -1   4  -44.73   56.08
  15  -1   4  224.64  135.99
 -15   1   4   33.56   30.98
 -15   1   4   45.57   99.20
  15  -2  -4   76.90  160.07
  15  -2  -4  -40.57   61.08
 -15   2  -4   60.19   27.23
 -15   2  -4    4.45  108.20
 -15   2   4  -38.05   35.03
  15  -2   4   64.30   57.44
 -15   2   4   -8.72   97.76
  15  -2   4 -182.23  135.29
  15  -3  -4    7.84  161.46
  15  -3  -4   33.14   59.69
 -15   3  -4  -18.58   27.41
 -15   3  -4   78.19   95.62
  15  -3   4   68.22   58.50
  15  -3   4  -85.06  149.12
 -15   3   4   69.36   95.62
  15  -4  -4  217.58  167.56
  15  -4  -4   62.17   69.89
 -15   4  -4   88.54   91.28
 -15   4  -4   40.91   29.67
  15  -4   4  103.59  154.65
 -15   4   4  -48.76   89.79
  15  -4   4    3.34   58.48
  15  -5  -4   60.77   66.81
 -15   5  -4   12.31   90.25
  15  -5  -4 -175.30  171.75
  15  -5   4    7.28   63.53
 -15   5   4  216.75   97.57
  15  -5   4 -160.01  161.17
  15  -6  -4    4.13  165.53
 -15   6  -4   55.02   94.75
  15  -6   4 -211.82  171.84
  15  -6   4   46.36   69.00
 -15   6   4   64.38  100.12
 -15   7  -4   -4.63   99.31
  15  -7   4  149.07  174.11
  15  -8   4 -132.96  194.80
  16   6  -4  -98.52   62.10
  16   5  -4  125.71   64.67
  16   5  -4  122.67  149.42
 -16  -5   4   16.51   33.97
 -16  -5   4    7.38  181.47
  16   4  -4  124.67  151.92
  16   4  -4  -23.86   58.79
 -16  -4   4   13.86  162.05
 -16  -4   4   22.30   29.02
  16   3  -4 -312.26  158.88
 -16  -3  -4  -39.99   29.62
  16   3  -4  198.63   65.21
  16   3   4 -248.03  139.67
  16   3   4  -53.95   61.31
 -16  -3   4    6.61  149.19
 -16  -3   4   15.47   32.64
 -16  -2  -4   -8.86   31.97
 -16  -2  -4   85.44  162.99
  16   2  -4   27.86   65.64
  16   2   4   10.79  136.94
 -16  -2   4  -18.42   32.37
  16   2   4  154.21   61.41
 -16  -2   4  167.61  152.74
 -16  -1  -4   -6.51  160.55
 -16  -1  -4   -8.49   29.29
  16   1  -4   -3.51   67.11
  16   1   4  -99.85   56.90
  16   1   4  224.07  142.36
 -16  -1   4    5.77  128.01
  16   0  -4  -40.30  166.40
 -16   0  -4 -232.55  140.93
  16   0  -4  -46.01   65.97
 -16   0  -4  -19.15   27.59
  16   0   4   58.59  141.55
 -16   0   4 -119.55  121.94
  16   0   4   85.41   62.50
 -16   0   4  -27.04   31.62
 -16   1  -4    2.71   28.60
  16  -1  -4    3.60   64.71
 -16   1  -4  200.13  130.93
  16  -1  -4  314.22  168.77
 -16   1   4  -37.73   38.24
 -16   1   4 -131.07  112.81
  16  -1   4   51.13   60.84
  16  -1   4 -152.96  156.17
 -16   2  -4  -45.18   28.29
  16  -2  -4   23.18   67.02
 -16   2  -4  -73.89  117.35
  16  -2  -4 -121.37  171.76
  16  -2   4    3.73  152.23
 -16   2   4   52.67   35.91
  16  -2   4    3.40   63.89
 -16   2   4   24.40  112.36
 -16   3  -4   23.03  106.78
  16  -3  -4    4.06   67.59
 -16   3  -4  -20.76   29.95
  16  -3  -4 -167.04  180.26
  16  -3   4    3.55   58.75
 -16   3   4   86.73  106.56
  16  -3   4   -3.87  161.48
 -16   4  -4  -53.66  106.04
 -16   4  -4    9.10   31.53
  16  -4  -4   55.45   76.80
  16  -4  -4  -70.18  183.47
  16  -4   4  146.42  172.66
  16  -4   4  -70.34   65.06
 -16   4   4    4.89  104.20
  16  -5  -4   71.68  184.25
  16  -5  -4    4.44   80.81
 -16   5  -4   53.78   33.68
 -16   5  -4   85.79  101.52
 -16   5   4 -111.25  108.25
  16  -5   4  -23.98   77.07
  16  -5   4 -162.54  194.92
 -16   6  -4   41.48  102.63
  16  -6  -4  -54.73  193.67
  16  -6   4 -315.40  198.17
 -16   6   4 -231.60  113.47
  16  -6   4  -54.74   75.50
 -16   7  -4   29.88  106.34
  16  -7   4   28.63  203.54
  16  -8   4 -150.23  210.43
 -17  -6   4    8.58  200.84
  17   5  -4   26.32   67.12
  17   5  -4   43.61  165.34
 -17  -5   4   14.64   38.31
 -17  -5   4 -106.52  199.39
  17   4  -4  -64.29  169.29
  17   4  -4   -3.76   70.19
 -17  -4   4 -256.92  183.28
 -17  -4   4  -53.24   34.40
  17   3  -4   30.33   68.83
 -17  -3  -4    3.39   29.70
  17   3  -4   60.90  174.07
 -17  -3  -4 -599.79  260.78
 -17  -3   4   -3.46   33.61
 -17  -3   4  339.57  176.26
  17   3   4   30.45   70.60
 -17  -2  -4    3.26   34.83
 -17  -2  -4    7.86  181.07
  17   2  -4   30.80   69.37
  17   2   4 -110.39  154.25
  17   2   4   53.13   68.41
 -17  -2   4    6.98  163.37
 -17  -1  -4  153.60  173.39
 -17  -1  -4   -9.42   30.89
  17   1  -4   11.58   71.21
  17   1   4    7.94  155.87
 -17  -1   4  145.89  140.42
  17   1   4   56.71   69.61
 -17   0  -4  -12.16   30.14
  17   0  -4 -220.21   75.47
 -17   0  -4  -86.95  162.58
  17   0  -4 -276.18  187.11
 -17   0   4 -125.91  138.78
 -17   0   4  -33.54   42.91
  17   0   4   -3.80   72.69
  17   0   4 -328.77  166.49
  17  -1  -4 -110.98   74.80
 -17   1  -4   36.24   33.13
  17  -1  -4 -153.11  190.94
 -17   1  -4   77.54  140.39
  17  -1   4 -222.39   69.76
 -17   1   4  -73.28  124.81
  17  -1   4 -485.74  172.50
 -17   1   4  -11.53   40.05
  17  -2  -4 -265.78  185.88
 -17   2  -4  -31.22   32.62
 -17   2  -4   49.61  129.68
  17  -2  -4   94.11   79.36
 -17   2   4   98.47   45.84
  17  -2   4 -155.11  167.75
  17  -2   4  116.55   67.45
 -17   2   4  -92.77  117.57
  17  -3  -4  275.29  195.27
 -17   3  -4  -26.52   34.12
  17  -3  -4   31.39   80.49
 -17   3  -4  -62.00  120.47
 -17   3   4  -53.70  122.82
  17  -3   4  114.02  177.31
 -17   3   4   36.95   40.87
  17  -3   4  -35.67   73.72
 -17   4  -4  -17.00   36.29
  17  -4  -4  -61.85  197.32
  17  -4  -4   14.06   81.14
 -17   4  -4  113.84  114.87
 -17   4   4 -247.10  119.95
  17  -4   4   -4.45  181.45
  17  -4   4   32.87   73.40
 -17   5  -4    9.97  108.36
  17  -5  -4  -58.18   82.76
 -17   5  -4   42.25   35.00
  17  -5  -4   -4.89  200.75
 -17   5   4   16.67  119.71
  17  -5   4 -140.72   80.14
  17  -5   4  218.93  197.48
 -17   6  -4    5.03  108.20
  17  -6  -4  -50.04  207.15
 -17   6  -4  -22.24   39.42
 -17   6   4  -11.75  119.59
  17  -6   4 -220.94   79.63
  17  -6   4   63.70  209.12
 -17   7  -4  -53.66  118.04
  17  -7   4 -330.01  222.45
 -18  -5   4   36.56   42.63
 -18  -5   4 -598.81  226.21
  18   4  -4  -33.08  186.32
  18   4  -4    4.26   75.98
 -18  -4   4   27.73   38.41
 -18  -4   4  314.80  219.45
 -18  -3  -4  -33.56   39.39
  18   3  -4 -125.39   81.96
 -18  -3  -4   -9.45  233.12
  18   3  -4  -33.44  182.61
 -18  -3   4 -115.82  192.08
  18   3   4   -4.22   78.09
 -18  -3   4    7.75   38.19
 -18  -2  -4   35.26  204.29
 -18  -2  -4   -3.61   42.26
  18   2  -4  157.34   86.64
 -18  -2   4  276.26  182.24
  18   2   4  -13.02  170.11
  18   2   4  125.75   79.36
 -18  -1  -4   38.25   35.65
  18   1  -4   61.98   78.91
 -18  -1  -4 -235.54  198.81
  18   1  -4 -157.12  206.78
  18   1   4   99.15  174.38
 -18  -1   4  -14.34  163.51
  18   1   4  -12.58   80.56
 -18   0  -4   16.95   36.19
  18   0  -4   93.56   83.15
 -18   0  -4  257.58  177.51
  18   0  -4 -380.59  197.57
 -18   0   4  154.38  148.52
  18   0   4  136.08  179.06
  18   0   4    4.33   81.83
 -18   0   4   68.79   40.89
 -18   1  -4  -94.14  160.00
  18  -1  -4   14.66  196.63
 -18   1  -4   33.46   36.36
  18  -1  -4    9.15   85.25
  18  -1   4   31.58  180.93
 -18   1   4    6.35  142.93
  18  -1   4   47.72   79.77
 -18   1   4   90.81   43.47
 -18   2  -4    3.46   35.54
  18  -2  -4   47.42   84.61
 -18   2  -4 -123.64  148.35
  18  -2  -4  265.18  198.70
  18  -2   4 -206.76  185.91
 -18   2   4 -201.63  139.42
  18  -2   4   69.23   78.02
 -18   2   4   66.26   47.53
  18  -3  -4    9.90   93.94
  18  -3  -4 -228.30  215.04
 -18   3  -4   21.90   37.91
 -18   3  -4  -97.41  139.32
  18  -3   4 -106.01   80.27
 -18   3   4    4.57   48.04
  18  -3   4   65.07  195.74
 -18   3   4   78.19  126.18
 -18   4  -4   11.35   39.81
  18  -4  -4  357.43  215.59
 -18   4  -4 -160.16  133.97
  18  -4  -4   20.68   88.64
 -18   4   4   52.79   46.61
  18  -4   4 -232.30  207.57
 -18   4   4  -65.60  126.64
  18  -4   4  127.07   82.88
  18  -5  -4 -656.61  234.88
 -18   5  -4 -104.56  123.25
  18  -5  -4    5.29   93.51
 -18   5  -4  -31.41   40.75
  18  -5   4 -203.70  218.06
  18  -5   4  -14.58   86.41
 -18   6  -4    4.09   43.75
 -18   6  -4 -160.06  127.29
  18  -6  -4 -426.02  244.12
  18  -6   4 -414.92  244.40
 -18   6   4 -257.67  150.66
  18  -6   4    5.03   90.23
 -18   7  -4   11.63  131.95
 -18   7  -4  -30.13   42.60
  18  -7   4   44.70  229.38
  19   5  -4  255.10  206.83
  19   5  -4 -337.23   78.25
 -19  -5   4    4.53   45.36
 -19  -5   4 -245.34  248.80
  19   4  -4   41.61  199.30
  19   4  -4 -348.71   89.13
 -19  -4   4  -38.88  236.77
 -19  -4   4    4.43   41.46
 -19  -3  -4  -20.50   37.72
 -19  -3  -4 -135.67  239.62
  19   3  -4   28.70   89.01
  19   3   4   28.49   84.28
 -19  -3   4   -9.29  228.45
 -19  -3   4   -4.36   47.74
 -19  -2  -4  -67.90   42.49
  19   2  -4    4.81   90.30
 -19  -2  -4 -334.87  236.46
 -19  -2   4   17.32  208.51
  19   2   4    4.75   83.28
  19   2   4    9.57  183.79
  19   1  -4 -189.73   95.71
 -19  -1  -4   90.88  224.62
 -19  -1  -4   89.03   41.80
 -19  -1   4 -235.82  194.25
 -19  -1   4   -8.61   47.22
  19   1   4 -289.09  192.44
  19   1   4 -134.15   89.31
 -19   0  -4   -8.28  201.02
 -19   0  -4  -11.34   38.68
  19   0   4    4.78   84.30
  19   0   4 -468.14  209.68
 -19   0   4  -58.34   45.31
 -19   0   4 -234.78  190.74
 -19   1  -4   22.34   40.51
  19  -1  -4 -361.22   99.00
 -19   1  -4 -159.91  189.41
  19  -1   4  -66.92   90.46
 -19   1   4  -76.31   47.90
 -19   1   4 -307.99  166.29
 -19   2  -4   61.77  165.15
  19  -2  -4  -16.29  225.02
  19  -2  -4 -163.33   97.78
 -19   2  -4   33.83   39.42
  19  -2   4 -315.18  215.54
 -19   2   4  -14.86   52.94
 -19   2   4   -6.83  156.81
  19  -2   4    4.81   88.62
 -19   3  -4 -103.10  149.45
  19  -3  -4   77.68  229.59
 -19   3  -4  -78.75   40.81
  19  -3  -4   -5.47   95.10
 -19   3   4  155.65  150.49
  19  -3   4  -10.15   93.13
 -19   3   4   81.53   52.29
  19  -3   4  -25.38  216.11
  19  -4  -4    5.72  102.37
  19  -4  -4   61.87  239.58
 -19   4  -4 -203.66  148.96
 -19   4  -4   -4.20   40.86
 -19   4   4   26.62  145.07
 -19   4   4  -68.91   51.20
  19  -4   4 -357.87  220.97
  19  -4   4   -5.23   93.81
 -19   5  -4   34.92   45.33
  19  -5  -4    5.80   93.46
 -19   5  -4   18.28  140.47
  19  -5  -4  -46.10  246.89
 -19   5   4  -54.36  145.13
  19  -5   4   99.54  237.85
  19  -5   4  -21.48   91.09
 -19   6  -4   22.56   49.21
  19  -6  -4   47.27  245.66
 -19   6  -4   30.46  145.58
  19  -6   4 -165.35   97.05
  19  -6   4    5.81  249.86
 -19   6   4  120.57  145.09
 -19   7  -4  -31.66  137.41
 -19   7  -4   -9.39   52.34
 -20  -3  -4 -303.45  286.19
  20   3   4 -155.26   97.43
 -20  -2  -4  -48.67   43.60
 -20  -2  -4   10.91  262.09
  20   2  -4 -204.12  101.50
  20   2   4 -496.49  206.66
  20   2   4 -189.19   93.87
  20   1  -4   22.14  102.39
 -20  -1  -4 -149.73  255.05
 -20  -1  -4 -107.73   44.40
  20   1   4 -177.46  204.20
 -20  -1   4  287.52  207.71
  20   1   4   10.59   94.99
 -20   0  -4 -101.47   42.19
 -20   0  -4  -27.39  218.35
  20   0  -4    5.65  108.93
  20   0   4    5.31  210.83
  20   0   4   10.96   97.11
 -20   0   4   67.28  193.73
 -20   1  -4  133.73  194.89
 -20   1  -4   20.79   39.91
  20  -1  -4   29.21  109.46
  20  -1   4  163.33  100.45
 -20   1   4 -168.23  186.37
  20  -1   4 -389.32  229.15
 -20   2  -4  -69.21  195.95
 -20   2  -4  -62.63   44.88
  20  -2  -4   30.24  107.39
 -20   2   4  -92.59  175.26
  20  -2   4  159.70  103.54
  20  -2   4   55.68  225.78
 -20   3  -4 -383.08  174.20
  20  -3   4  316.16  108.10
  20  -3   4  199.67  237.01
 -20   4  -4   41.46  159.49
 -20   4  -4   22.63   46.13
  20  -4   4  -28.86  240.17
  20  -4   4   34.87   99.11
 -20   5  -4   34.09   48.96
 -20   5  -4 -121.74  151.95
  20  -5   4  -48.01  256.93
  20  -5   4   -5.95  106.93
 -20   6  -4  134.79  152.48
 -20   6  -4   15.08   51.32
  20  -6   4 -220.73  271.41
  20  -6   4  -12.08  104.95
   0   0  -5   -0.87   19.73
   0   0   5   -3.27   14.39
   0   0   5    0.53    7.42
   0   1  -5   97.24   38.35
   1   0  -5  152.71   40.19
  -1   0  -5  149.33   41.75
   1   0   5   75.80   30.48
  -1   0   5  170.58   33.34
   0  -1   5  127.58   30.58
   0  -1   5  145.39   29.85
   1   1  -5    0.52    4.07
   1   1  -5    1.19   10.54
  -1   1  -5    3.96   21.78
   1   1  -5    3.52   17.96
  -1  -1   5    7.18    6.87
   1  -1   5    2.52    8.20
  -1  -1   5    0.32    5.78
  -1  -1   5   -6.42    9.02
   2   1  -5  148.41   42.75
   2   1  -5  135.40   33.63
  -1   2  -5  155.68   32.77
   2   1  -5  133.76   39.60
  -2  -1   5  132.37   34.31
   1  -2   5  164.22   35.14
  -2  -1   5  165.29   35.88
  -2  -1   5  160.63   34.43
  -2   0  -5   -5.29   25.37
   0   2  -5   -0.96    4.23
   2   0  -5   -2.47    7.48
   2   0  -5   -4.31   14.38
   2   0   5   -0.67    9.73
  -2   0   5   -0.59    8.01
   2   0   5  -13.43   16.34
   0  -2   5   -1.74    8.09
   0  -2   5   -0.99    8.36
  -2   0   5   -3.23   12.61
  -2   1  -5  148.19   31.38
  -2   1  -5  104.02   45.97
   1   2  -5  200.03   40.54
   1   2  -5  127.85   32.01
   1   2  -5  142.76   33.42
   2  -1   5  192.61   34.49
  -1  -2   5   85.49   34.58
  -1  -2   5  169.64   33.39
   2  -1   5  169.73   35.97
   2  -1   5  140.68   32.52
   2  -1   5  125.80   38.64
   2   2  -5    0.74    3.99
   2   2  -5   -0.52   16.53
  -2   2  -5   -0.61    5.99
   2   2  -5    0.35    5.02
  -2   2  -5    0.65    7.16
  -2  -2   5    0.35    2.51
   2  -2   5    3.03   10.48
  -2  -2   5    4.29    8.33
   2  -2   5    2.35   11.77
   2  -2   5   -3.60   10.15
  -2  -2   5    0.37    5.94
   2  -2   5   -0.33    5.04
   3   2  -5   29.57   13.72
   3   2  -5   64.12   12.05
   3   2  -5   63.41   24.66
   2  -3   5   63.83   18.31
   2  -3   5   56.12   15.62
  -3  -2   5   71.16   12.30
  -3  -2   5   37.20   14.69
  -3  -2   5   30.01   11.39
   3   1  -5  172.67   45.06
   3   1  -5  183.31   55.82
  -1   3  -5  207.45   43.45
   3   1  -5  156.07   53.96
  -3  -1   5  195.49   49.06
  -3  -1   5  195.54   45.76
   1  -3   5  236.15   47.33
  -3  -1   5  187.56   45.32
   1  -3   5  215.90   44.82
  -3   0  -5    1.24    3.06
  -3   0  -5   -4.66   31.36
   3   0  -5    5.33    8.84
   3   0  -5    5.97   21.81
   0   3  -5   -4.10    5.47
   3   0   5    2.89   19.85
  -3   0   5    3.93   11.36
   3   0   5   -5.22   11.47
   0  -3   5   -2.94   10.23
   0  -3   5   -0.57    8.17
   3  -1  -5  221.57   49.12
  -3   1  -5  228.98   44.02
   1   3  -5  228.42   44.69
   3  -1  -5  130.57   52.98
  -3   1  -5  149.65   63.01
   3  -1   5  182.48   47.66
  -3   1   5  251.37   49.55
   3  -1   5  193.89   45.62
   3  -1   5  234.61   53.76
  -1  -3   5  187.82   45.14
   3  -1   5  235.77   49.33
   2   3  -5   50.41   12.22
  -3   2  -5   56.14   17.11
  -3   2  -5   29.56   34.45
  -3   2  -5   48.51   12.99
   3  -2   5   54.44   16.51
   3  -2   5   59.95   12.96
   3  -2   5   20.30   21.33
   3  -2   5   42.01   17.04
   3   3  -5   -4.32   26.84
  -3   3  -5    6.71    7.89
  -3   3  -5    8.72   11.23
   3   3  -5    6.73    7.59
   3  -3   5    0.80   12.66
  -3  -3   5    4.13    4.54
   3  -3   5    2.31   20.59
   3  -3   5   -6.41   16.11
   4   3  -5  853.78  155.94
   4   3  -5  367.18  172.93
  -4  -3   5  787.93  143.29
   4   2  -5  255.23   56.99
   4   2  -5  130.46   67.62
   2  -4   5  207.66   58.76
  -4  -2   5  299.84   59.01
  -4  -2   5  274.98   51.64
   4   1  -5  717.65  186.35
   4   1  -5  695.47  207.36
   1  -4   5  884.45  181.29
  -4  -1   5 1008.69  197.55
   4   0  -5   -8.55   10.87
  -4   0  -5    2.70    3.60
  -4   0  -5    7.77   39.39
   4   0  -5    0.95   28.62
   0   4  -5    6.48    6.87
   4   0   5    5.35   22.59
   4   0   5   -2.49   16.27
   4   0   5   -3.21    7.38
  -4   0   5   10.04   16.87
   4   0   5    3.04   23.56
   4  -1  -5  788.12  211.43
   4  -1  -5  917.89  192.37
   4  -1   5  850.37  189.96
   4  -1   5  708.71  211.82
  -4   1   5  821.26  197.79
   4  -1   5  903.88  186.06
  -4   2  -5  271.79   69.32
  -4   2  -5  328.21   86.64
   4  -2   5  322.49   65.12
   4  -2   5  274.16   66.66
   4  -2   5  274.40   67.61
   4  -2   5  291.52   76.21
  -4   3  -5  805.14  180.90
   4  -3   5  769.76  198.26
   4  -3   5  761.76  176.37
  -4   4  -5   14.74   11.92
   4  -4   5    5.98   29.49
   4  -4   5   -3.69   16.28
  -4   5  -5   31.32   13.36
   5   4  -5   25.64   45.04
  -5  -4   5   23.12    9.71
   4  -5   5   10.96   24.53
   4  -5   5   22.73   16.41
  -3   5  -5  160.98   37.27
   3  -5   5  160.02   38.87
  -5  -1  -5  110.26   24.23
   5   1   5  171.96   44.57
  -5   0  -5   20.00    7.13
  -5   0  -5   44.50   51.34
   5   0   5   17.70   10.96
   5   0   5   34.30   20.41
   5   0   5   20.62   31.60
   5   0   5   29.88   29.54
  -5   1  -5   41.14   13.76
  -5   1  -5   59.64   50.26
   5  -1   5   52.89   16.35
   5  -1   5   62.91   26.70
   5  -1   5   93.18   34.25
   5  -1   5  106.33   23.06
  -5   2  -5   -0.81    8.44
  -5   2  -5   29.69   50.08
   5  -2  -5   11.76   37.16
  -5   2  -5  -13.48   22.17
   5  -2   5   -0.99   14.80
   5  -2   5   12.55   11.54
   5  -2   5   27.80   32.84
   5  -2   5   33.61   18.85
  -5   3  -5  164.73   46.06
   5  -3   5  181.04   41.48
   5  -3   5  145.46   57.12
  -5   4  -5   28.48   23.88
  -5   4  -5   29.65   12.99
   5  -4   5   37.50   25.76
   5  -4   5   15.53   19.45
   5  -4   5   18.98   18.95
   5  -4   5   45.02   41.11
  -5   5  -5   -3.32   12.84
   5  -5   5   -3.20   17.03
   5  -5   5    4.80   25.84
   6   5  -5   -9.39   16.99
   5  -6   5   -1.34   29.64
   6   4  -5   96.71   52.28
   6   4  -5   75.66   25.42
  -6  -4   5   84.10   20.02
   6   3  -5 1056.75  274.27
   6   3  -5 1116.52  256.81
  -6  -3   5 1216.48  238.14
   6   2  -5   18.74   45.95
   6   2  -5   22.36   15.58
  -6  -2   5    6.51    8.47
   6   1  -5  208.03   68.50
   6   1  -5  212.18   48.14
  -6  -1  -5  182.10   44.82
  -6  -1   5  176.02   56.87
   6   1   5  252.27   63.65
   6   1   5  211.47   62.77
  -6   0  -5  -19.03   62.51
   6   0  -5   11.53   17.24
   6   0  -5   -4.12   46.67
   6   0   5   -1.03   22.90
  -6   0   5    8.84   28.95
   6   0   5  -12.83   31.31
  -6   1  -5  139.17   76.01
   6  -1  -5  210.79   66.75
   6  -1  -5  137.33   46.59
   6  -1   5  209.78   47.67
  -6   1   5  232.54   52.14
   6  -2  -5   19.69   47.42
  -6   2  -5   -1.28   27.80
   6  -2  -5    4.58   23.89
  -6   2   5    4.79   27.76
  -6   3  -5  989.23  240.66
   6  -3   5 1198.47  247.17
  -6   4  -5   84.31   24.07
   6  -4   5  105.86   33.85
   6  -4   5   87.65   28.30
  -6   5  -5  -24.56   17.68
   6  -5   5 -170.51   54.80
   6  -5   5  -42.03   33.17
   6  -5   5  -14.90   21.66
   6  -6   5   -2.92   32.63
   7   5  -5  -18.05   20.68
  -7  -5   5   -9.52   11.29
   7   4  -5   14.28   58.09
   7   4  -5    2.34   20.21
  -7  -4   5    4.80    9.96
   7   3  -5  -10.62   52.80
   7   3  -5   -3.44   20.37
  -7  -3   5    3.24    9.36
   7   2  -5   67.23   56.33
   7   2  -5   43.51   22.70
  -7  -2   5   59.11   15.06
   7   1  -5   -6.07   55.23
   7   1  -5  -18.19   18.19
  -7  -1  -5   -4.20    8.58
   7   1   5   -6.90   45.21
  -7  -1   5    9.17   35.42
   7   1   5    8.58   16.18
   7   0  -5  -39.25   21.83
   7   0  -5  -77.01   61.05
  -7   0  -5    6.98   65.94
  -7   0  -5   -0.95    8.88
   7   0   5  -21.17   44.95
  -7   0   5  -45.94   37.55
   7   0   5  -10.88   15.54
  -7   1  -5    1.90    8.79
   7  -1  -5  -23.54   22.97
   7  -1  -5    9.72   58.44
  -7   1  -5  -63.33   38.34
   7  -1   5    0.94   14.60
  -7   1   5   -8.61   31.91
   7  -1   5  -23.72   45.64
   7  -2  -5   23.13   54.96
   7  -2  -5   63.72   27.50
  -7   2  -5   21.32   12.16
  -7   2  -5   31.96   16.08
  -7   2  -5   26.25   35.04
   7  -2   5   90.65   52.88
   7  -2   5   42.75   25.02
  -7   2   5   48.91   34.42
   7  -2   5   55.59   19.82
  -7   3  -5    0.99   13.75
  -7   3  -5  -46.68   69.89
   7  -3  -5   -5.67   27.93
  -7   3  -5  -10.71   34.79
  -7   3   5    1.96   33.74
   7  -3   5  -12.35   53.43
   7  -3   5    2.06   27.71
   7  -3   5    8.51   21.10
   7  -3   5   12.86   19.59
  -7   4  -5  -22.97   42.69
  -7   4  -5  -16.81   18.07
   7  -4   5  -26.39   27.34
   7  -4   5  -15.93   26.59
   7  -4   5 -114.73   66.25
   7  -4   5  -72.48   35.04
  -7   5  -5    2.48   16.13
  -7   5  -5    3.71   36.90
   7  -5   5   -7.45   23.17
   7  -5   5    9.77   61.73
   7  -5   5   36.50   34.91
  -7   6  -5   26.86   17.52
   7  -6   5  -10.56   65.53
   7  -6   5    7.93   37.33
   8   5  -5   -6.92   23.21
  -8  -5   5    9.03   12.72
   8   4  -5   21.47   23.93
   8   4  -5   54.41   61.73
  -8  -4   5   34.99   14.25
   8   3  -5   20.72   65.60
   8   3  -5   -6.56   23.33
  -8  -3   5   -1.24   10.62
   8   2  -5   75.70   61.80
  -8  -2  -5   42.04   15.80
   8   2  -5   61.99   23.82
  -8  -2   5   13.65   50.30
   8   2   5   56.64   22.74
  -8  -2   5   55.15   15.86
   8   1  -5  -64.73   68.44
  -8  -1  -5   15.61   11.25
   8   1  -5  -25.58   26.10
  -8  -1   5    9.99   11.40
   8   1   5  -83.61   26.08
   8   1   5  -98.11   70.04
  -8  -1   5  -57.85   51.43
  -8   0  -5   65.84   25.13
   8   0  -5  238.99   38.52
  -8   0   5   40.95   48.23
   8  -1  -5    7.61   24.62
   8  -1  -5  -42.72   71.03
  -8   1  -5 -103.93   53.20
  -8   1  -5   -6.66   13.18
   8  -1   5 -200.62   73.68
  -8   1   5  -27.66   42.31
   8  -1   5  -95.68   26.10
  -8   2  -5   14.58   41.57
  -8   2  -5 -116.33   89.45
  -8   2  -5   13.08   17.02
  -8   2  -5   13.58   12.05
   8  -2  -5   30.68   30.25
  -8   2   5   54.88   37.13
   8  -2   5   32.71   19.87
   8  -2   5   26.52   24.70
   8  -2   5  -35.90   63.03
   8  -2   5   47.94   29.87
  -8   3  -5    1.80   73.16
   8  -3  -5  -18.87   35.18
  -8   3  -5    4.26   14.02
  -8   3  -5  -40.72   39.01
   8  -3   5   14.40   28.05
   8  -3   5    1.35   21.13
  -8   3   5   -2.17   39.43
   8  -3   5   14.62   22.82
   8  -3   5   39.74   62.19
  -8   4  -5   -9.27   39.31
  -8   4  -5   -1.19   15.53
   8  -4  -5   13.68   62.96
   8  -4   5  -22.20   64.38
   8  -4   5   24.11   22.98
   8  -4   5   11.47   26.53
   8  -4   5    6.14   30.68
  -8   5  -5   33.09   40.65
  -8   5  -5   11.79   17.83
   8  -5   5    9.23   24.68
   8  -5   5   -7.25   38.26
   8  -5   5   64.25   70.70
   8  -5   5   -5.79   31.26
  -8   6  -5  137.21   38.68
   8  -6   5  205.01   56.21
   8  -6   5  149.63   87.35
   8  -7   5  130.27   55.60
   9   5  -5  222.41   94.11
   9   5  -5  209.40   63.86
  -9  -5   5  313.99   56.64
   9   4  -5   50.33   29.04
   9   4  -5    5.92   70.18
  -9  -4   5   37.51   16.61
   9   3  -5   13.67   72.80
   9   3  -5   52.27   29.12
  -9  -3   5   47.79   16.16
   9   2  -5   12.04   25.91
  -9  -2  -5    7.39   12.99
   9   2  -5   63.04   70.89
   9   2   5   22.04   57.30
  -9  -2   5   -7.36   12.86
  -9  -2   5   49.73   55.40
   9   2   5   11.26   63.65
   9   2   5    1.51   23.69
   9   1  -5    1.54   26.80
  -9  -1  -5   -9.48   12.53
   9   1  -5  -47.55   75.97
  -9  -1   5  -24.75   52.11
  -9  -1   5    7.22   13.05
   9   1   5    1.77   58.81
   9   1   5    4.21   47.35
   9   1   5   32.87   23.57
   9   0  -5   25.81   30.42
   9   0  -5   76.19   78.00
  -9   0  -5   72.82   17.25
   9   0   5    8.19   38.47
   9   0   5   86.66   64.38
  -9   0   5  117.56   50.87
   9   0   5   20.19   25.89
   9   0   5   99.04   37.43
   9  -1  -5   27.47   25.81
  -9   1  -5   42.11   13.37
  -9   1  -5   15.24   86.98
   9  -1  -5  -84.61   81.72
  -9   1  -5   53.63   50.36
   9  -1   5   17.35   22.47
   9  -1   5   -4.95   34.39
  -9   1   5   -2.27   47.36
   9  -1   5  -31.62   65.37
   9  -1   5   39.64   30.09
   9  -2  -5   11.58   31.89
  -9   2  -5   -7.55   90.02
  -9   2  -5   17.03   16.43
  -9   2  -5   -4.88   11.93
  -9   2  -5   31.81   45.15
   9  -2   5   -4.50   30.14
  -9   2   5    4.57   44.48
   9  -2   5  -22.29   66.38
   9  -2   5   18.26   23.21
   9  -2   5    9.69   27.38
  -9   3  -5   58.49   89.51
   9  -3  -5   73.15   38.30
  -9   3  -5   32.52   49.54
  -9   3  -5   22.52   18.50
   9  -3   5   81.13   69.02
  -9   3   5   72.63   48.39
   9  -3   5   51.11   32.93
   9  -3   5   63.01   29.14
   9  -3   5   47.27   28.54
   9  -4  -5   67.77   74.52
   9  -4  -5   21.73   39.72
  -9   4  -5   71.16   44.83
  -9   4  -5   10.63   92.88
  -9   4  -5   31.36   19.36
   9  -4   5  103.45   77.58
   9  -4   5   22.95   29.64
  -9   4   5   -7.89   47.55
   9  -4   5   39.39   27.93
   9  -4   5   51.70   36.88
  -9   5  -5  129.75   68.00
  -9   5  -5  222.15   49.62
   9  -5   5  124.44   63.31
   9  -5   5  220.88   58.08
   9  -5   5  340.93   99.32
   9  -5   5  204.81   54.76
  -9   6  -5   68.96   26.55
   9  -6   5  136.95   89.45
   9  -6   5   49.60   48.05
   9  -7   5   62.33   93.84
   9  -7   5  100.77   55.88
  10   6  -5  252.55   67.11
  10   5  -5  -65.91   77.56
  10   5  -5   30.10   31.14
 -10  -5   5   20.03   17.12
  10   4  -5  408.96   96.68
  10   4  -5  593.75  125.22
 -10  -4   5  324.67   87.51
  10   3  -5    8.52   30.18
  10   3  -5 -142.63   84.72
 -10  -3   5   27.02   15.49
  10   3   5   -1.79   27.10
 -10  -2  -5   21.45   16.56
  10   2  -5   10.27   30.82
  10   2  -5   17.19   85.06
  10   2   5   22.25   28.73
  10   2   5   60.98   60.53
  10   2   5    4.11   71.11
 -10  -2   5   48.34   16.31
 -10  -2   5   17.84   64.91
  10   1  -5  265.62   60.94
  10   1  -5  303.95  104.13
 -10  -1  -5  238.55   52.20
  10   1   5  145.64   71.98
  10   1   5  298.30   90.07
 -10  -1   5  244.34   52.18
 -10  -1   5  107.11   83.12
  10   1   5  212.29   58.77
 -10   0  -5  -13.54   92.12
  10   0  -5   73.84   88.27
  10   0  -5    1.82   28.79
 -10   0  -5   12.80   13.97
  10   0   5  -24.94   26.88
  10   0   5  -33.90   37.80
 -10   0   5  -13.40   55.62
  10   0   5   -5.87   72.42
  10   0   5   -9.24   38.01
  10  -1  -5  242.77  104.99
  10  -1  -5  208.36   57.55
 -10   1  -5  235.74   78.35
 -10   1  -5  248.07  114.55
 -10   1  -5  232.92   48.07
 -10   1   5  261.84   75.98
  10  -1   5  152.15   62.51
  10  -1   5  109.55   56.94
  10  -1   5  263.42   55.50
  10  -1   5  222.21   86.47
 -10   2  -5   61.09   91.49
 -10   2  -5   44.12   58.05
 -10   2  -5    6.74   15.43
 -10   2  -5   12.62   13.62
  10  -2  -5   -2.14   36.12
  10  -2   5  -17.56   76.35
  10  -2   5   42.91   34.07
 -10   2   5   28.15   50.47
  10  -2   5   -8.05   27.16
  10  -2   5    9.78   27.19
  10  -3  -5   41.01   88.50
 -10   3  -5   39.35   51.11
 -10   3  -5    1.19   16.81
 -10   3  -5  -42.33   97.42
  10  -3  -5   -7.23   40.38
  10  -3   5    2.40   25.21
  10  -3   5   46.95   80.78
  10  -3   5    1.71   28.93
  10  -3   5   30.44   34.04
 -10   3   5   34.92   54.99
  10  -4  -5  451.07   93.90
 -10   4  -5  370.98   84.40
 -10   4  -5  300.26   99.36
 -10   4  -5  462.06  149.39
  10  -4  -5  363.93  124.61
  10  -4   5  324.61   88.56
  10  -4   5  355.57   89.48
 -10   4   5  326.30  104.31
  10  -4   5  546.31  129.26
  10  -4   5  314.20   92.85
 -10   5  -5   11.64   20.83
 -10   5  -5  -32.94   55.86
  10  -5   5   24.55   28.82
  10  -5   5   47.40   42.74
  10  -5   5   -4.69   94.70
  10  -5   5   38.67   38.51
 -10   6  -5  299.11   91.04
  10  -6   5  230.37   83.48
  10  -6   5  388.14  124.30
  10  -7   5  265.64  116.76
  10  -7   5  174.33   76.24
  11   6  -5   18.14   35.90
  11   5  -5   64.71   37.67
  11   5  -5  106.56   90.58
 -11  -5   5   38.10   23.05
  11   4  -5  -42.69   38.81
 -11  -4   5   65.25   20.04
  11   3  -5 -191.50   99.79
  11   3  -5   -7.66   39.55
  11   3   5  136.04   37.65
 -11  -3   5  -18.22   87.67
 -11  -3   5   96.69   22.55
  11   2  -5  278.06   80.73
  11   2  -5  245.03  118.83
 -11  -2  -5  366.12   71.13
  11   2   5  234.56   79.57
 -11  -2   5  371.44  109.20
  11   2   5  317.93  110.41
 -11  -2   5  361.81   70.40
  11   1  -5   14.19   37.34
 -11  -1  -5   20.35   16.16
  11   1  -5   12.50   96.32
 -11  -1   5   51.30   71.62
 -11  -1   5   29.92   19.36
  11   1   5   41.74   78.07
  11   1   5   22.18   33.71
 -11   0  -5  529.45  229.21
 -11   0  -5  761.76  188.96
  11   0  -5 1217.66  238.15
  11   0  -5 1075.02  198.61
  11   0   5  807.76  199.01
 -11   0   5  921.48  188.71
  11   0   5  687.89  227.03
 -11   0   5 1007.48  216.23
  11  -1  -5    6.47   38.65
 -11   1  -5   42.42   17.47
 -11   1  -5   17.94   67.69
 -11   1   5   43.36   60.58
  11  -1   5   71.13   33.16
  11  -1   5   -6.40   82.48
  11  -2  -5  212.96   85.44
 -11   2  -5  412.39   74.10
 -11   2  -5  211.90  102.88
  11  -2   5  263.62   80.74
  11  -2   5  568.62  122.53
 -11   2   5  414.36   97.27
 -11   3  -5   84.92   26.42
  11  -3  -5  145.28   99.58
 -11   3  -5   94.17   59.12
 -11   3  -5   75.98   27.78
 -11   3  -5  150.42  113.62
  11  -3  -5  141.12   48.91
  11  -3   5   51.17   40.68
  11  -3   5  151.02   95.97
 -11   3   5  112.71   66.14
 -11   4  -5   23.57   21.57
 -11   4  -5  -13.08   59.41
  11  -4  -5    5.72   46.69
 -11   4  -5  103.69  111.63
  11  -4  -5   86.27   99.18
 -11   4   5   62.25   62.97
  11  -4   5   36.59   98.63
  11  -4   5   69.86   39.69
 -11   5  -5   73.08   28.43
  11  -5  -5  116.55  104.85
 -11   5  -5   72.56   62.76
 -11   5  -5  128.17  123.80
  11  -5   5   71.98   47.12
  11  -5   5   90.30   47.67
  11  -5   5   45.23   34.30
 -11   5   5   68.41   67.97
  11  -5   5  252.04  110.68
 -11   6  -5  -45.92   62.73
  11  -6   5   37.80   44.27
  11  -6   5    8.33  111.96
  11  -6   5  -32.17   48.22
  11  -7   5   32.69  114.89
  11  -7   5   23.75   56.08
  11  -8   5  -62.87  127.71
  11  -8   5   25.45   68.24
  12   5  -5   28.50   40.79
  12   4  -5   51.24   40.95
  12   4  -5  123.78  106.30
 -12  -4   5   37.38   22.31
 -12  -3  -5   89.65   24.70
  12   3  -5   45.75   42.82
  12   3  -5  191.39  110.63
 -12  -3   5   40.13   24.47
 -12  -3   5   36.87   91.31
  12   3   5   26.79   40.89
  12   2  -5   -2.19   40.67
  12   2  -5 -158.89  107.31
 -12  -2  -5    2.02   19.92
  12   2   5    8.64   37.77
 -12  -2   5   -8.23   20.90
  12   2   5   37.09   91.29
 -12  -2   5 -103.76   85.06
  12   1  -5  360.26  127.07
 -12  -1  -5  201.71   53.95
  12   1  -5  320.33   67.96
 -12  -1   5  212.86   55.28
  12   1   5  209.07   65.47
  12   1   5  157.96  107.93
 -12  -1   5  326.61  102.78
 -12   0  -5   59.93   86.71
 -12   0  -5  -23.17   17.07
  12   0  -5   -2.85  110.86
  12   0  -5  -11.41   40.80
 -12   0   5   74.08   73.95
  12   0   5  -68.09   93.36
  12   0   5   47.02   37.49
 -12   0   5   17.14   20.80
 -12   1  -5  255.28   56.80
 -12   1  -5  177.50   99.18
  12  -1  -5  218.89   70.72
  12  -1   5  287.17  110.79
  12  -1   5  282.13   68.63
 -12   1   5  266.39   90.97
 -12   2  -5   49.98   75.76
 -12   2  -5   40.01   18.06
  12  -2  -5   -7.86   46.68
  12  -2   5  -10.64   37.26
 -12   2   5   41.41   69.52
  12  -2   5 -151.54  100.78
 -12   3  -5   -5.89   67.59
  12  -3  -5  194.34  122.62
  12  -3  -5   67.61   51.47
 -12   3  -5   65.24   23.57
 -12   3   5   22.83   68.33
  12  -3   5  262.03  108.24
  12  -3   5   39.83   44.00
 -12   4  -5   -5.82   65.78
  12  -4  -5   15.64   51.65
  12  -4   5   -2.70  105.02
 -12   4   5  -54.23   69.07
  12  -4   5  -12.13   41.82
 -12   5  -5    3.06   65.64
  12  -5   5  127.59  119.18
  12  -5   5   27.22   48.82
 -12   5   5  166.87   75.86
 -12   6  -5  -72.77   68.16
  12  -6   5   18.52  126.91
  12  -6   5   -8.85   47.59
  12  -7   5 -216.14  139.48
  12  -8   5 1317.49  366.62
  13   6  -5 -114.59   45.91
 -13  -6   5  -15.36   27.68
  13   5  -5   77.44  114.88
  13   5  -5  231.28   45.84
 -13  -5   5    2.43   28.24
  13   4  -5    2.98  115.92
 -13  -4   5   46.31   24.80
  13   2   5   -2.71   95.20
  13   2   5  241.45   56.35
 -13  -1  -5  -16.75   16.99
 -13  -1  -5   37.87  105.59
  13   1   5   18.68   39.32
  13   1   5  -10.73  100.99
 -13   0  -5  188.99  103.52
 -13   0  -5   39.72   27.31
  13   0   5  172.46  107.04
  13   0   5  187.87   45.67
 -13   1  -5   -1.99   20.97
 -13   1  -5    3.84   88.63
  13  -1   5    9.28   43.40
  13  -1   5  -89.61  108.53
 -13   2  -5   99.26   89.99
 -13   2  -5  133.83   38.37
  13  -2   5  154.29  116.56
  13  -2   5  186.04   56.80
 -13   3  -5   26.45   77.90
 -13   3  -5  -24.44   20.82
  13  -3   5  130.21  117.94
  13  -3   5   32.24   45.08
 -13   4  -5   56.67   25.31
 -13   4  -5  -22.62   74.75
  13  -4  -5  198.42  131.29
  13  -4   5   26.77  119.32
  13  -4   5   61.94   49.02
  13  -5  -5   69.71   60.27
  13  -5  -5  -46.98  127.83
 -13   5  -5   60.31   76.99
 -13   5   5   63.83   80.35
  13  -5   5   69.64  128.72
  13  -5   5   26.12   52.97
 -13   6  -5  -31.96   84.45
  13  -6   5   54.81   54.92
  14   6  -5  -22.08   49.22
 -14  -6   5   -8.44   26.43
  14   5  -5    3.27  121.50
  14   5  -5   46.20   49.57
 -14  -5   5   29.74   28.73
  14   4  -5 -223.18  129.91
  14   4  -5   16.36   51.88
 -14  -4   5   32.89  125.82
 -14  -4   5    2.58   25.79
 -14  -3  -5   30.95   25.10
  14   3  -5   23.31  132.86
  14   3  -5    2.74   48.07
  14   3   5  -22.06   53.46
 -14  -3   5  -25.69  119.13
 -14  -3   5   12.53   26.28
  14   2  -5  -58.05   49.21
 -14  -2  -5  -14.74   24.74
  14   2  -5   -3.29  134.63
 -14  -2   5  -53.31  111.07
  14   2   5 -202.26  113.41
 -14  -2   5   -2.56   26.51
  14   1  -5 -425.36  138.31
 -14  -1  -5  -30.10   23.72
  14   1  -5   23.09   48.25
 -14  -1   5  -18.94   29.58
  14   1   5   -2.96  108.70
 -14  -1   5   58.73  103.96
  14   0  -5   -5.82   53.12
 -14   0   5   -2.71   28.06
 -14   0   5  -68.51   97.03
  14  -1  -5   35.57   56.40
 -14   1   5    8.05   85.38
  14  -2  -5  -76.81   55.33
  14  -2  -5    3.55  142.92
 -14   2   5   -3.95   84.67
  14  -3  -5   18.17  148.48
  14  -3  -5  -10.20   63.95
 -14   3   5   27.80   84.25
  14  -4  -5   -3.77   69.71
  14  -4  -5 -219.65  159.81
 -14   4   5    4.06   83.19
  14  -5  -5  -44.37  147.90
  14  -5  -5   18.84   65.53
 -14   5   5   43.25   89.68
  14  -6   5  104.27  152.75
 -14   7  -5   93.54   92.12
  14  -7   5  396.95  171.16
  14  -8   5 -200.53  176.76
  15   6  -5  -54.10   54.83
 -15  -6   5    6.19   30.20
  15   5  -5   54.09  132.37
  15   5  -5  -18.05   55.10
 -15  -5   5    6.46  146.23
 -15  -5   5   26.95   30.28
  15   4  -5 -101.30  138.35
  15   4  -5    3.03   55.29
 -15  -4   5  188.85  148.71
 -15  -4   5  -25.89   29.14
 -15  -3  -5   42.36   30.14
  15   3  -5   24.31   58.40
  15   3  -5   54.99  149.34
 -15  -3   5    5.79  130.28
 -15  -3   5   39.10   29.70
  15   3   5  189.88   57.69
 -15  -2  -5 -143.50  156.16
 -15  -2  -5   10.81   27.59
  15   2  -5  -53.71   61.09
  15   2  -5  -22.30  149.87
  15   2   5  -81.57  123.07
 -15  -2   5  125.66  121.45
  15   2   5   32.89   55.63
 -15  -2   5   41.79   30.08
  15   1  -5 -222.98  157.98
 -15  -1  -5   12.81   25.99
  15   1  -5    3.18   59.05
 -15  -1  -5   88.16  140.84
  15   1   5    5.94   56.12
  15   1   5  166.88  124.31
 -15  -1   5 -142.53  121.77
 -15  -1   5  -32.90   31.98
  15   0  -5   61.12   62.89
 -15   0  -5   -2.44   24.45
 -15   0  -5   48.40  128.88
  15   0   5    5.99   53.82
 -15   0   5  -19.32  107.68
  15   0   5  -16.30  126.48
 -15   1  -5  -11.98   23.83
 -15   1  -5   34.42  119.65
  15  -1  -5 -121.64   60.37
  15  -1   5   16.61  134.17
  15  -1   5   17.99   53.06
 -15   1   5  -67.41  104.97
 -15   2  -5   44.26  102.60
  15  -2  -5  -89.17  163.83
  15  -2  -5   14.16   62.50
 -15   2  -5  -12.33   25.93
  15  -2   5 -112.23  135.26
 -15   2   5   13.20   96.03
  15  -2   5   24.63   58.12
  15  -3  -5    3.74   59.57
 -15   3  -5   51.39   27.39
  15  -3  -5 -102.95  164.20
 -15   3  -5  -29.12   95.78
  15  -3   5  -52.46   53.78
  15  -3   5  -10.28  138.91
 -15   3   5   70.45   96.32
  15  -4  -5 -116.88  160.62
 -15   4  -5  -39.19   27.21
 -15   4  -5  -47.83   92.05
  15  -4  -5  -45.31   74.82
  15  -4   5   33.13   58.49
 -15   4   5   13.40   92.16
  15  -4   5  -36.03  148.30
  15  -5  -5   -4.09   70.27
 -15   5  -5   -2.72   28.66
  15  -5  -5    8.16  164.91
 -15   5  -5  121.04   88.59
  15  -5   5   53.25  156.42
  15  -5   5   63.13   63.60
 -15   5   5   -9.42   95.61
 -15   6  -5    4.16   90.49
  15  -6   5  -19.17   72.44
  15  -6   5   -4.04  160.54
 -15   7  -5  131.74  102.28
  15  -7   5 -596.38  188.09
  16   6  -5 -101.24   61.39
 -16  -6   5 -218.43  177.71
 -16  -6   5  -54.57   33.89
  16   5  -5   47.69  158.80
  16   5  -5   10.15   64.71
 -16  -5   5   -6.64   32.43
 -16  -5   5 -100.58  158.00
  16   4  -5 -102.51  156.98
  16   4  -5    3.40   63.04
 -16  -4   5  -35.35   32.67
 -16  -4   5 -190.41  155.69
  16   3  -5  -20.61   62.55
 -16  -3  -5  -34.00   30.25
  16   3  -5 -136.76  158.71
 -16  -3   5   64.83  154.46
 -16  -3   5   18.70   31.23
  16   3   5  -20.41   60.75
 -16  -2  -5  -11.89   28.31
 -16  -2  -5  -14.44  168.37
  16   2  -5   41.89   66.30
  16   2  -5   12.31  173.93
 -16  -2   5   59.23   33.36
  16   2   5  110.99  133.19
  16   2   5   37.15   59.98
 -16  -2   5 -361.32  144.74
  16   1  -5  -80.61   64.63
 -16  -1  -5  -59.06  153.93
 -16  -1  -5   45.16   28.69
 -16  -1   5  -16.24   32.18
  16   1   5 -179.81  138.34
  16   1   5  -23.50   62.85
 -16  -1   5  -27.98  127.62
 -16   0  -5    8.14   27.19
 -16   0  -5  -35.96  141.56
  16   0  -5   17.87   68.38
  16   0   5  242.41  144.07
  16   0   5   80.08   64.61
 -16   0   5 -249.51  123.67
 -16   1  -5   70.42  128.56
  16  -1  -5  116.11   64.90
 -16   1  -5   45.24   28.52
  16  -1  -5    4.18  176.01
 -16   1   5   -3.48   37.55
 -16   1   5    5.03  109.42
  16  -1   5   61.80   60.59
  16  -1   5  -73.24  143.29
 -16   2  -5   19.09   26.60
 -16   2  -5  160.21  122.96
  16  -2  -5    8.48  175.22
  16  -2  -5   11.74   71.63
  16  -2   5 -126.34   64.48
 -16   2   5  -35.96   36.61
 -16   2   5   -4.90  103.63
  16  -2   5  123.10  153.11
 -16   3  -5   14.38   29.04
  16  -3  -5    4.11   72.99
 -16   3  -5   82.40  108.69
  16  -3  -5 -223.69  175.36
 -16   3   5 -181.06  100.50
  16  -3   5 -131.18  156.36
  16  -3   5  -48.18   63.61
 -16   4  -5   -4.43  102.73
 -16   4  -5   46.75   28.41
  16  -4  -5  189.24  183.74
  16  -4  -5  -40.60   83.73
  16  -4   5 -114.67  168.00
  16  -4   5 -194.97   70.22
 -16   4   5 -226.39  108.94
 -16   5  -5  128.88  114.17
  16  -5  -5  206.57  195.72
  16  -5  -5   13.36   82.05
 -16   5   5  -87.47  117.36
  16  -5   5  404.85   84.46
 -16   6  -5  -27.10   94.21
 -16   6  -5   35.04   34.06
  16  -6   5   29.26   72.37
  16  -6   5 -140.57  188.75
 -16   7  -5   24.38  106.73
  16  -7   5  -13.98  192.15
  17   6  -5  -64.58   67.29
 -17  -6   5   -7.53   40.54
 -17  -6   5   -8.34  191.69
  17   5  -5  -53.45   67.37
  17   5  -5  127.18  167.38
 -17  -5   5  293.68  192.46
 -17  -5   5  -11.05   34.60
  17   4  -5    3.84   72.76
  17   4  -5  -30.37  170.39
 -17  -4   5   21.43   32.67
 -17  -4   5    7.65  176.11
 -17  -3  -5 -398.56  210.04
 -17  -3  -5  -43.93   33.09
  17   3  -5    3.91   71.63
  17   3  -5 -163.05  174.16
 -17  -3   5  -50.64  168.08
 -17  -3   5  -34.90   37.62
  17   3   5  101.59   73.47
 -17  -2  -5 -167.23  188.79
  17   2  -5   35.68   69.16
 -17  -2  -5   62.06   34.97
  17   2  -5   49.56  180.28
  17   2   5   11.80  146.65
 -17  -2   5  -74.07  158.85
 -17  -2   5  -31.26   34.64
  17   2   5   18.79   69.87
  17   1  -5  104.36   75.14
 -17  -1  -5  -24.98   32.61
 -17  -1  -5 -280.29  177.62
  17   1   5  -30.96  151.84
 -17  -1   5  183.16  147.19
  17   1   5   68.46   73.04
 -17   0  -5   51.23   31.09
 -17   0  -5   53.89  167.40
  17   0  -5    8.09   72.71
  17   0   5 -160.92  153.80
  17   0   5  -72.70   71.17
 -17   1  -5   -6.10  147.61
 -17   1  -5   23.58   30.58
  17  -1  -5  318.81  189.30
  17  -1  -5   16.64   75.16
 -17   1   5   73.48  132.21
  17  -1   5   -7.60   71.20
  17  -1   5 -312.77  165.72
 -17   1   5  -50.78   38.72
  17  -2  -5   32.28  188.45
 -17   2  -5  -82.85  131.46
 -17   2  -5   -9.05   29.97
  17  -2  -5 -173.07   78.56
 -17   2   5  -20.06   41.69
  17  -2   5   69.37  168.37
 -17   2   5 -197.05  122.54
  17  -2   5   11.40   65.68
 -17   3  -5    3.16   33.03
  17  -3  -5  -93.56  193.88
 -17   3  -5  -76.88  120.87
  17  -3  -5    4.53   81.74
  17  -3   5 -137.94   74.95
 -17   3   5    5.45  115.31
 -17   3   5   12.59   41.36
  17  -3   5    4.13  173.40
 -17   4  -5   55.41   35.43
 -17   4  -5  -24.61  112.36
  17  -4  -5   28.60  199.01
  17  -4  -5  287.14   90.29
  17  -4   5 -163.70  175.70
 -17   4   5   10.89  115.23
  17  -4   5  -28.56   73.49
  17  -5  -5 -102.83  206.03
 -17   5  -5  -40.14   36.09
  17  -5  -5    4.86   80.35
 -17   5  -5 -137.37  104.50
  17  -5   5   65.53   77.29
  17  -5   5  336.28  194.66
 -17   5   5  -73.46  119.69
 -17   6  -5  113.52  109.69
  17  -6  -5  -35.07  211.18
 -17   6  -5   17.43   36.69
  17  -6   5  -63.99   82.94
  17  -6   5   86.37  202.05
 -17   7  -5   26.25  113.85
  18   6  -5 -202.10   79.79
 -18  -6   5 -212.67  221.03
 -18  -6   5  -70.81   42.15
  18   5  -5    4.21   78.60
 -18  -5   5  -53.47  212.07
 -18  -5   5   69.65   45.68
  18   4  -5   21.25   76.53
  18   4  -5  272.30  190.64
 -18  -4   5  -23.95   43.33
 -18  -4   5   17.09  206.02
 -18  -3  -5  382.07  226.21
  18   3  -5   82.37  194.35
  18   3  -5 -134.02   80.50
 -18  -3  -5  -29.62   36.36
 -18  -3   5   56.78  198.73
  18   3   5  110.09   77.75
 -18  -3   5   19.54   36.96
  18   2  -5 -392.70  196.46
  18   2  -5 -183.18   79.90
 -18  -2  -5   -7.18   34.34
 -18  -2  -5 -221.71  215.15
 -18  -2   5   22.77  178.54
 -18  -2   5  -11.63   36.73
  18   2   5  311.14  165.32
  18   2   5    4.22   78.43
  18   1  -5  -13.22   82.08
 -18  -1  -5  131.08  203.74
 -18  -1  -5  -24.22   34.23
  18   1   5   25.32   77.33
 -18  -1   5 -264.34  170.11
  18   1   5  110.38  167.02
 -18   0  -5  -10.04   34.10
 -18   0  -5    7.42  181.95
  18   0  -5 -143.11   84.55
  18   0   5   42.38   75.79
  18   0   5 -241.15  169.67
 -18   0   5   46.79  151.74
 -18   1  -5  -32.65   34.45
  18  -1  -5    4.62   78.71
  18  -1  -5 -286.74  206.94
 -18   1  -5 -175.01  160.93
 -18   1   5   74.31   46.20
  18  -1   5 -355.49  179.51
  18  -1   5 -163.90   76.67
 -18   1   5    6.36  140.63
 -18   2  -5  -55.52  144.30
  18  -2  -5  -33.57   88.45
  18  -2  -5  125.94  205.59
 -18   2  -5  -39.28   32.06
 -18   2   5  -13.42   45.99
  18  -2   5   18.07  187.34
 -18   2   5   12.20  134.22
  18  -2   5  121.21   78.62
 -18   3  -5   63.23  138.77
 -18   3  -5   37.53   34.38
  18  -3  -5 -104.81   90.20
  18  -3  -5 -233.73  209.74
  18  -3   5 -127.68   80.83
  18  -3   5  405.89  195.87
 -18   3   5 -152.40  132.51
 -18   3   5  -13.90   46.37
 -18   4  -5   43.58   35.13
  18  -4  -5  -31.09  206.74
 -18   4  -5  -92.73  130.41
  18  -4  -5 -195.42   98.99
 -18   4   5 -114.73  128.91
  18  -4   5  122.33   85.12
  18  -4   5   46.95  192.21
  18  -5  -5 -460.63  238.39
  18  -5  -5 -165.09  101.39
 -18   5  -5  -81.48  129.99
 -18   5  -5   52.35   43.06
  18  -5   5   -4.95  216.46
  18  -5   5   52.91   87.89
 -18   5   5 -330.29  143.92
 -18   6  -5  -21.64  123.48
  18  -6  -5 -283.73  227.09
 -18   6  -5  -30.96   39.91
  18  -6   5  -88.54  218.42
  18  -6   5  139.95   89.70
  19   5  -5  -42.79  213.32
  19   5  -5  -57.17   86.77
 -19  -5   5 -249.90  250.14
 -19  -5   5   13.68   42.76
  19   4  -5  -94.72  204.82
  19   4  -5   38.75   89.27
 -19  -4   5  -58.04   44.86
 -19  -4   5   -9.55  238.51
  19   3  -5  100.95  218.56
  19   3  -5 -211.07   96.22
 -19  -3  -5 -136.20  242.59
  19   3   5   81.19   86.74
 -19  -3   5   52.60   42.44
 -19  -3   5  151.94  221.87
 -19  -2  -5 -168.29  250.91
  19   2  -5 -167.89   89.93
 -19  -2  -5  -67.24   41.53
  19   2   5    4.77   87.94
  19   2   5  114.09  183.38
 -19  -2   5  125.72  204.00
 -19  -2   5   17.31   41.76
 -19  -1  -5  -53.62   39.51
 -19  -1  -5 -146.38  229.99
  19   1  -5 -200.76   92.17
 -19  -1   5    7.90  187.75
  19   1   5    4.82   84.68
  19   1   5   37.39  178.04
  19   0  -5    4.97   88.84
  19   0  -5 -313.34  235.48
 -19   0  -5 -190.72  196.23
 -19   0  -5  -48.43   40.40
 -19   0   5  -78.04   54.84
  19   0   5 -134.99   88.76
 -19   0   5 -111.06  171.16
  19   0   5 -312.18  192.22
  19  -1  -5 -262.83  234.44
 -19   1  -5   -7.59  185.31
  19  -1  -5    5.29  101.14
 -19   1  -5   69.10   37.76
 -19   1   5   14.70   47.68
  19  -1   5  -76.98   85.10
  19  -1   5   62.53  201.08
 -19   1   5 -148.85  162.61
 -19   2  -5  -69.30  165.25
 -19   2  -5  -61.64   37.77
  19  -2  -5  400.16  233.33
  19  -2  -5 -148.24  104.05
  19  -2   5    4.80   88.73
 -19   2   5   13.73  149.08
 -19   2   5  -40.30   49.95
  19  -2   5 -114.22  197.79
  19  -3  -5  -22.67  101.37
 -19   3  -5   30.14   40.02
  19  -3  -5 -255.75  234.30
 -19   3  -5   31.89  146.60
  19  -3   5  354.07  218.71
 -19   3   5   34.17  143.45
 -19   3   5   51.98   57.06
  19  -3   5   39.20   87.72
  19  -4  -5 -317.10  240.56
 -19   4  -5    3.99   42.17
  19  -4  -5   47.57  105.48
 -19   4  -5   18.29  147.11
 -19   4   5 -161.59  150.90
 -19   4   5   27.08   59.21
  19  -4   5   31.17   91.51
  19  -4   5 -159.61  219.57
  19  -5  -5  -87.76  101.00
 -19   5  -5   20.90   40.90
 -19   5  -5    6.01  135.82
  19  -5  -5 -155.90  240.05
  19  -5   5 -133.02   92.56
 -19   5   5  165.89  154.74
  19  -5   5  268.92  235.47
  19  -6  -5  -23.62  246.41
 -19   6  -5  -38.67   44.27
 -19   6  -5   23.79  136.60
 -20  -3  -5  315.34  286.73
  20   3   5    5.26   95.98
 -20  -2  -5  327.65  262.42
 -20  -2  -5   17.51   42.39
  20   2   5  -89.66   94.13
  20   1  -5 -172.16  100.52
 -20  -1  -5 -110.42  245.78
 -20  -1  -5  -42.58   43.76
  20   1   5    5.14  198.25
  20   1   5   10.65   96.22
 -20   0  -5   -9.11  225.96
 -20   0  -5   33.08   43.43
  20   0  -5    5.69  106.75
  20   0   5  233.15   94.80
  20   0   5   15.42  205.31
 -20   0   5 -142.24  202.48
 -20   1  -5  -67.00  194.96
 -20   1  -5  -89.31   39.45
  20  -1  -5    5.88  112.04
  20  -1   5  -58.68   98.89
  20  -1   5   42.14  215.13
 -20   1   5  184.12  184.48
 -20   2  -5  -60.51   39.69
 -20   2  -5 -214.09  187.02
  20  -2   5   -5.50   97.09
  20  -2   5  254.60  230.86
 -20   3  -5    7.17  169.59
 -20   3  -5   16.35   39.44
  20  -3   5    5.63   99.13
  20  -3   5 -375.32  242.40
 -20   4  -5  -68.15  167.21
 -20   4  -5   77.25   44.72
  20  -4   5  207.61  240.91
  20  -4   5   40.42   98.61
 -20   5  -5  -26.65  157.52
 -20   5  -5 -123.58   52.46
  20  -5   5  -41.25  105.81
  20  -5   5  198.05  245.21
   0   0  -6    3.15   24.93
   0   0   6   14.43   17.34
   0   0   6   11.65   10.06
  -1   0  -6    5.66   27.22
   1   0  -6   -5.89   24.64
   0   1  -6    3.37   23.95
   0  -1   6    3.25    9.08
   1   0   6   -5.72   11.33
   0  -1   6    0.90   14.09
  -1   0   6   -7.06   16.62
   1   1  -6  227.85   48.08
   1   1  -6  164.86   52.85
  -1   1  -6  137.53   59.89
   1   1  -6  217.75   58.26
   1  -1   6  307.47   49.34
  -1  -1   6  171.76   47.09
  -1  -1   6  233.41   48.27
  -1  -1   6  187.21   48.36
   1  -1   6  204.31   47.28
   2   1  -6   20.30    9.66
   2   1  -6   36.59   23.86
  -1   2  -6   22.29   28.45
   2   1  -6   38.89   20.14
   1  -2   6   18.16   13.51
  -2  -1   6   28.27   13.44
  -2  -1   6   34.91   11.93
   1  -2   6   27.82   13.84
  -2  -1   6   48.60   13.08
  -2   0  -6  389.24  140.77
   2   0  -6  482.36  129.87
   2   0  -6  608.94  122.15
   0  -2   6  539.05  118.18
  -2   0   6  498.21  122.57
   2   0   6  564.53  124.76
  -2   0   6  566.13  121.60
   2   0   6  603.01  118.26
   0  -2   6  444.33  117.13
   1   2  -6   33.90    9.25
  -2   1  -6    7.44   31.37
   1   2  -6   24.12   15.46
   1   2  -6   28.62    8.79
  -1  -2   6   21.68   12.66
   2  -1   6   31.78   13.88
   2  -1   6   29.76    8.37
   2  -1   6   38.68   18.13
  -1  -2   6   42.37   12.18
  -1  -2   6   43.25    7.44
  -2   2  -6 1420.69  475.55
   2   2  -6 2173.61  406.31
   2   2  -6 1792.12  440.23
  -2  -2   6 1458.32  381.05
  -2  -2   6 1802.92  409.65
  -2  -2   6 2001.02  403.96
   2  -2   6 1929.77  408.94
   3   2  -6  343.96   68.48
   3   2  -6  279.43   65.54
   3   2  -6  292.23   77.92
  -3  -2   6  283.43   69.46
  -3  -2   6  344.61   67.48
   2  -3   6  168.15   70.95
   2  -3   6  324.58   81.55
   3   1  -6  147.44   58.91
   3   1  -6  174.75   46.38
   3   1  -6  183.61   56.37
   1  -3   6  231.97   46.79
   1  -3   6  180.80   49.03
  -3  -1   6  246.51   50.25
  -3  -1   6  180.18   47.67
  -3  -1   6  253.65   47.20
   0   3  -6  -10.73    6.62
   3   0  -6   -9.45   11.23
   3   0  -6    0.78   23.04
  -3   0  -6   -1.34   37.87
   0  -3   6   -3.35    9.86
  -3   0   6    4.13   12.70
   3   0   6    0.86   14.55
   0  -3   6    4.03   12.56
   3   0   6   18.62   24.86
  -3   0   6    1.72   16.11
  -3   1  -6  243.98   44.62
   3  -1  -6  141.02   54.38
  -3   1  -6  154.03   65.36
   1   3  -6  213.55   45.27
   3  -1   6  211.40   48.51
   3  -1   6  205.59   46.34
   3  -1   6  246.02   51.30
  -1  -3   6  245.99   46.66
   3  -1   6  214.39   55.45
  -1  -3   6  158.33   49.30
   2   3  -6  352.57   77.46
  -3   2  -6  360.43   95.92
   2   3  -6  331.88   74.15
  -3   2  -6  396.90   79.74
   3  -2   6  320.83   77.74
  -2  -3   6  361.07   78.96
   3  -2   6  326.68   75.80
   3  -2   6  321.68   78.23
   3  -2   6  363.30   86.03
  -2  -3   6  304.43   74.90
  -3   3  -6   -1.73   12.10
   3   3  -6    3.19    8.51
   3   3  -6    0.52    5.68
   3   3  -6    9.01   27.82
   3  -3   6    0.85   17.31
   3  -3   6    3.14   10.02
  -3  -3   6    6.86   11.79
   3  -3   6    5.20   21.46
  -3  -3   6    1.71    4.62
  -3   4  -6  227.32   58.66
   4   3  -6  254.24   74.88
   4   3  -6  347.02   62.24
   3  -4   6  267.23   73.65
   3  -4   6  258.34   61.06
  -4  -3   6  217.84   63.13
   4   2  -6  705.49  179.81
   4   2  -6  697.33  160.10
   4   2  -6  652.30  164.47
  -4  -2   6  789.79  166.54
  -4  -2   6  767.35  160.11
   4   1  -6  306.00   75.05
   4   1  -6  186.58   58.04
   4   1  -6  194.37   70.92
  -4  -1   6  240.53   58.35
   1  -4   6  310.75   60.39
  -4  -1   6  246.45   63.51
  -4   0  -6    2.79    4.16
   4   0  -6    3.93   31.05
   4   0  -6    5.99   12.57
   0   4  -6    6.83    8.02
  -4   0  -6   -1.47   44.82
  -4   0   6   22.76   16.44
  -4   0   6   15.51   17.42
   0  -4   6   12.74   10.81
   0  -4   6    5.88   14.70
   4   0   6   -8.88   29.14
   4   0   6   12.26   17.73
   4  -1  -6  299.12   68.50
  -4   1  -6  301.93   88.43
   4  -1  -6  254.59   76.66
  -1  -4   6  289.98   63.69
   4  -1   6  343.71   67.35
  -4   1   6  305.76   69.86
   4  -1   6  238.44   75.98
   4  -1   6  312.73   64.67
   4  -1   6  272.55   69.28
  -4   2  -6  858.19  203.34
  -4   2  -6  708.82  175.40
   4  -2   6  703.85  166.94
   4  -2   6  801.45  171.20
   4  -2   6  716.41  189.12
  -4   3  -6  317.66   75.35
   4  -3   6  311.50   83.35
   4  -3   6  341.12   72.45
  -4   4  -6  134.80   34.00
   4   4  -6  166.38   35.24
   4  -4   6  143.43   41.73
  -4  -4   6  156.12   32.33
   4  -4   6  133.05   50.92
   4  -4   6  123.33   37.41
  -4   5  -6  276.23   69.21
   5   4  -6  326.75   89.40
   4  -5   6  296.34   76.39
   4  -5   6  340.18   71.72
   3  -5   6  995.59  221.03
  -5  -3   6 1095.78  231.42
   5   2  -6  392.41   96.25
  -5  -2   6  323.74   82.79
   1  -5   6  441.08   74.61
   5   1   6   -2.39   92.23
  -5   0  -6   25.73   57.51
  -5   0  -6   -5.54    6.19
   5   0   6   17.68   21.43
   5   0   6  -12.30   31.79
   5   0   6  133.71   32.76
   5   0   6    1.39   11.06
  -5   1  -6  469.32   80.42
  -5   1  -6  342.04  115.31
   5  -1   6  370.50   83.63
   5  -1   6  402.47   87.16
   5  -1   6  241.59   99.16
  -5   2  -6  356.04   79.43
  -5   2  -6  428.66   88.93
   5  -2  -6  395.91   87.38
   5  -2  -6  282.18   96.69
   5  -2   6  332.79   98.35
  -5   2   6  413.47   90.43
   5  -2   6  402.42   82.90
  -5   3  -6  938.94  216.59
  -5   3  -6 1002.33  200.65
   5  -3   6  999.99  205.63
   5  -3   6  724.87  232.99
   5  -3   6 1006.04  207.32
  -5   4  -6  295.28   73.12
  -5   4  -6  297.07   82.12
   5  -4   6  401.76   76.15
   5  -4   6  365.99   80.05
   5  -4   6  330.16   78.17
   5  -4   6  292.58   94.58
  -5   5  -6   -2.33   14.27
   5  -5   6  -12.68   19.41
   5  -5   6   29.16   29.27
   5  -5   6   56.30   41.80
  -5   6  -6    3.96   18.60
   6   5  -6   -7.29   17.57
   5  -6   6   34.80   22.43
   5  -6   6   20.82   30.75
   6   4  -6  351.77   81.22
  -4   6  -6  296.51   76.20
   6   4  -6  317.83   97.96
  -6  -4   6  358.64   74.12
   4  -6   6  377.52   83.74
   6   3  -6  126.01   53.44
   6   3  -6   79.42   28.89
  -6  -3   6   92.99   26.43
  -6  -3   6  124.07   23.51
   6   2  -6  516.47  156.55
   6   2  -6  616.64  140.13
  -6  -2   6  737.14  130.41
  -6  -2   6  578.14  152.84
   6   1  -6   -1.01   17.77
   6   1  -6  -32.31   49.96
  -6  -1  -6    0.92    7.79
  -6  -1   6  -26.43   32.89
   6   0  -6   74.47   52.67
   6   0  -6   56.60   21.22
  -6   0   6    6.00   30.50
   6  -1  -6    5.30   20.87
   6  -1  -6    1.44   47.83
  -6   1   6   15.34   28.55
  -6   2  -6  511.64  141.64
   6  -2  -6  658.84  154.47
   6  -2  -6  710.78  137.60
   6  -2   6  615.88  135.46
   6  -2   6  483.58  132.17
  -6   2   6  552.28  142.75
  -6   3  -6  140.50   28.84
  -6   3  -6  119.14   39.39
  -6   3  -6  131.64   70.68
   6  -3   6  108.89   36.96
   6  -3   6   91.55   33.28
  -6   4  -6  330.43   85.89
   6  -4   6  371.46   88.90
   6  -4   6  508.81   93.30
  -6   5  -6   17.28   21.99
   6  -5   6   34.70   26.05
   6  -5   6   46.39   36.05
  -6   6  -6    5.54   18.07
   6  -6   6   30.26   35.43
   6  -6   6   20.03   25.38
   6  -6   6   26.88   55.09
   7   5  -6   31.58   21.37
  -7  -5   6   46.20   15.03
   7   4  -6   31.83   59.07
   7   4  -6   57.96   25.22
  -7  -4   6   61.87   16.44
   7   3  -6  216.24   50.92
   7   3  -6  185.49   76.27
  -7  -3   6  194.83   47.76
  -7  -3   6  239.46   44.87
   7   2  -6  105.20   59.38
   7   2  -6   76.23   30.39
  -7  -2   6   77.48   22.96
  -7  -2   6  174.12   46.50
   7   1  -6   10.98   59.92
  -7  -1  -6   24.87   11.83
   7   1  -6   28.43   21.13
   7   1   6   -2.50   48.32
   7   1   6   49.07   19.40
   7   1   6   48.26   47.60
  -7  -1   6   79.01   38.20
  -7   0  -6   -0.97    8.60
   7   0  -6  -11.48   58.84
   7   0  -6    5.16   21.19
   7   0   6   -9.50   35.98
   7   0   6   28.82   44.90
   7   0   6  -12.10   16.21
  -7   0   6  -14.21   35.02
   7  -1  -6   25.95   23.65
  -7   1  -6    5.53    9.01
   7  -1  -6    8.34   58.31
   7  -1   6   31.15   16.68
  -7   1   6   24.61   33.69
   7  -1   6   22.64   32.90
   7  -1   6   36.92   47.05
   7  -1   6   -1.12   22.59
  -7   2  -6   80.01   76.86
  -7   2  -6   96.11   28.83
   7  -2  -6  117.01   40.95
  -7   2  -6  167.39   48.16
   7  -2  -6  130.43   67.94
   7  -2   6  151.50   39.14
   7  -2   6  140.67   33.04
  -7   2   6  144.74   45.65
   7  -2   6  133.54   58.26
   7  -2   6  158.62   38.27
  -7   3  -6   44.89   52.31
  -7   3  -6 -241.38  112.74
   7  -3  -6  221.61   42.17
  -7   3  -6   88.38   32.11
   7  -3  -6  259.21   65.39
   7  -3   6  -71.74   75.72
   7  -3   6   90.39   44.56
   7  -3   6  104.03   40.08
   7  -3   6  104.89   34.39
  -7   3   6  154.64   48.75
  -7   4  -6   23.90   38.64
  -7   4  -6   84.38   21.10
   7  -4   6   35.72   32.76
   7  -4   6   56.18   57.97
   7  -4   6   67.05   26.92
   7  -4   6   44.01   25.29
  -7   5  -6   18.28   18.66
  -7   5  -6   48.77   37.85
   7  -5   6   55.55   36.48
   7  -5   6   30.39   27.97
   7  -5   6   21.87   61.92
   7  -5   6   31.50   26.39
  -7   6  -6    8.75   19.00
   7  -6   6    8.50   24.55
   7  -6   6    8.21   39.46
   7  -6   6   24.35   66.28
   7  -7   6   88.90   47.87
   8   6  -6   25.62   25.08
   8   5  -6   48.40   27.76
   8   5  -6   36.45   66.66
  -8  -5   6   80.65   19.40
   8   4  -6    1.78   64.61
   8   4  -6   25.76   23.88
  -8  -4   6    6.66   12.12
   8   3  -6    3.47   63.46
   8   3  -6   -2.65   21.73
  -8  -3   6   33.09   12.33
   8   2  -6  146.88   70.53
   8   2  -6   57.59   33.61
  -8  -2   6  107.03   25.48
  -8  -2   6   71.94   53.70
   8   2   6  144.01   33.14
   8   1  -6   -1.37   23.89
  -8  -1  -6   -8.64    9.58
   8   1  -6  -32.33   70.65
   8   1   6  -42.50   49.34
  -8  -1   6    8.57   44.83
   8   1   6    2.52   20.77
   8   1   6 -164.07   54.05
  -8   0  -6  134.96   22.76
   8   0  -6   52.71   80.86
  -8   0  -6   33.40   88.91
   8   0  -6  120.50   33.61
   8   0   6   57.48   51.46
   8   0   6  -45.32   67.25
   8   0   6   22.07   41.00
  -8   0   6  153.18   47.02
   8   0   6   73.43   28.89
  -8   1  -6   16.14   10.89
  -8   1  -6  -39.84   82.92
   8  -1  -6   78.02   68.53
   8  -1  -6   -9.72   26.27
  -8   1  -6   -1.94   42.47
   8  -1   6    7.40   31.81
   8  -1   6  -24.54   31.45
   8  -1   6  -41.52   54.40
   8  -1   6   16.79   18.55
  -8   1   6   10.09   39.41
  -8   2  -6   92.57   29.79
   8  -2  -6  147.04   71.33
  -8   2  -6  160.77   87.57
  -8   2  -6   90.07   50.08
   8  -2  -6   80.29   39.05
  -8   2  -6  113.48   26.94
   8  -2   6  118.88   62.99
  -8   2   6  134.35   49.26
   8  -2   6  140.67   31.93
   8  -2   6  103.01   40.35
   8  -2   6  104.18   37.66
  -8   3  -6    5.24   39.83
  -8   3  -6   -5.85   83.70
   8  -3  -6    8.54   35.60
  -8   3  -6   22.78   16.01
  -8   3   6  -20.31   41.29
   8  -3   6    9.06   60.28
   8  -3   6   18.00   31.76
   8  -3   6   19.66   24.33
   8  -3   6   29.64   22.59
  -8   4  -6    4.96   17.23
  -8   4  -6  -18.93   84.13
  -8   4  -6    1.81   39.57
   8  -4   6   -7.84   33.18
   8  -4   6   21.63   25.43
   8  -4   6   13.79   23.73
   8  -4   6   23.01   66.04
  -8   5  -6   52.54   43.63
  -8   5  -6   43.96   22.09
   8  -5   6   69.16   27.92
   8  -5   6   56.97   39.91
   8  -5   6   28.36   73.83
   8  -5   6   66.32   33.94
  -8   6  -6   36.78   21.35
   8  -6   6   58.71   77.36
   8  -6   6   19.48   28.03
   8  -6   6   64.72   44.51
   8  -7   6   12.85   83.40
   8  -7   6   74.71   49.98
   9   6  -6  229.97   56.71
   9   5  -6   78.69   72.94
   9   5  -6   95.61   30.88
  -9  -5   6   32.92   18.41
   9   4  -6   55.66   28.25
   9   4  -6  -25.73   72.53
  -9  -4   6    4.48   13.16
   9   3  -6   35.35   75.56
   9   3  -6   38.18   27.21
  -9  -3   6    2.90   13.30
   9   2  -6   90.28   73.33
  -9  -2  -6   73.55   20.62
   9   2  -6   67.06   32.57
  -9  -2   6   85.06   56.68
   9   2   6   96.62   31.61
  -9  -2   6   71.14   21.76
   9   1  -6    6.45   27.31
  -9  -1  -6    9.76   13.05
   9   1  -6   -2.04   78.98
   9   1   6  -12.27   51.01
   9   1   6  -13.01   24.63
  -9  -1   6  -16.19   13.35
   9   1   6   12.33   60.90
  -9  -1   6  -27.22   53.41
  -9   0  -6    1.27   12.12
  -9   0  -6  -24.79   88.63
   9   0  -6    3.38   29.67
   9   0  -6  102.02   81.72
   9   0   6   23.30   22.40
   9   0   6   78.94   62.89
  -9   0   6   18.69   48.38
   9   0   6  -24.65   41.65
   9   0   6   25.70   36.70
   9  -1  -6 -166.29   82.66
  -9   1  -6    6.80   48.60
   9  -1  -6    1.81   30.06
  -9   1  -6   -1.24   11.68
  -9   1  -6    4.15   91.58
   9  -1   6  -31.06   34.42
   9  -1   6   45.92   61.26
   9  -1   6   11.97   21.62
   9  -1   6   26.28   33.07
  -9   1   6  -20.50   46.56
  -9   2  -6   59.13   23.17
  -9   2  -6   61.19   50.17
   9  -2  -6   43.18   80.29
  -9   2  -6   66.84   19.39
  -9   2  -6  102.66   90.27
   9  -2  -6   41.15   35.87
   9  -2   6   36.97   37.64
   9  -2   6  140.21   67.96
   9  -2   6   93.16   32.98
  -9   2   6   -7.01   48.66
   9  -2   6  107.33   28.69
  -9   3  -6   82.41   95.42
   9  -3  -6    7.10   40.84
  -9   3  -6   12.07   17.74
  -9   3  -6   32.74   47.04
   9  -3   6   -2.51   32.01
   9  -3   6   11.60   24.68
  -9   3   6    9.88   46.27
   9  -3   6   48.43   67.18
   9  -3   6   17.73   25.16
  -9   4  -6   -4.12   45.76
  -9   4  -6   -6.55   18.68
  -9   4  -6   45.31   97.64
  -9   4   6   16.43   47.09
   9  -4   6  -44.85   75.63
   9  -4   6   10.53   25.63
   9  -4   6   24.18   28.59
   9  -4   6   37.52   35.75
  -9   5  -6   54.72   23.07
  -9   5  -6   76.16   51.52
   9  -5   6  -10.22   35.30
   9  -5   6   76.81   83.64
   9  -5   6   66.81   29.02
   9  -5   6   16.99   43.34
  -9   6  -6  159.69   64.49
  -9   6  -6  133.53   38.73
   9  -6   6  166.04   57.68
   9  -6   6  107.24   45.02
   9  -6   6  252.95   97.49
   9  -7   6  236.45  107.17
   9  -7   6  175.47   70.52
  10   6  -6   77.69   38.31
  10   5  -6  370.23   84.70
  10   5  -6  340.64  116.51
 -10  -5   6  336.11   75.86
  10   4  -6    8.74   31.18
  10   4  -6   52.88   86.08
 -10  -4   6   11.67   14.63
  10   3  -6  531.61  119.35
  10   3  -6  309.01   84.44
 -10  -3   6  304.33  110.57
 -10  -3   6  358.53   76.42
  10   2  -6   30.92   86.86
  10   2  -6   10.56   32.65
 -10  -2  -6   48.87   19.87
 -10  -2   6   73.28   19.48
  10   2   6   53.40   66.14
 -10  -2   6   -8.88   67.28
  10   2   6   93.16   33.13
 -10  -1  -6   73.25   17.22
  10   1  -6  -43.41   85.74
  10   1  -6   20.12   33.73
 -10  -1   6   30.32   18.97
  10   1   6   31.35   70.12
  10   1   6   28.25   52.33
 -10  -1   6   33.86   61.38
  10   1   6   34.44   28.17
 -10   0  -6  320.22   48.11
  10   0  -6  245.46  106.84
 -10   0  -6  178.46  112.16
  10   0  -6  162.39   56.75
  10   0   6  171.76   54.50
  10   0   6  158.48   65.65
 -10   0   6  178.00   77.97
  10   0   6  233.34   90.07
  10   0   6  166.02   64.66
  10  -1  -6   10.13   36.09
 -10   1  -6   49.06   16.04
  10  -1  -6   97.18   92.19
 -10   1  -6   22.78   98.89
 -10   1  -6   26.01   58.41
  10  -1   6   98.45   75.60
  10  -1   6   20.03   26.07
  10  -1   6   17.54   35.85
  10  -1   6    2.94   38.60
 -10   1   6   25.65   54.95
  10  -2  -6   52.73   42.12
 -10   2  -6   48.54   23.66
 -10   2  -6   28.46  101.93
 -10   2  -6   81.04   19.48
  10  -2  -6    2.42   92.14
 -10   2  -6  107.19   59.82
  10  -2   6   75.72   74.87
  10  -2   6   43.35   31.54
  10  -2   6   73.98   39.20
  10  -2   6   77.44   34.68
 -10   2   6   75.31   51.33
 -10   3  -6  233.40   85.28
 -10   3  -6  316.88  134.92
  10  -3  -6  228.48   76.47
 -10   3  -6  314.56   66.69
 -10   3  -6  222.12   63.04
  10  -3   6  405.10  109.04
  10  -3   6  234.79   74.87
  10  -3   6  312.84   70.19
 -10   3   6  478.63   86.88
  10  -3   6  232.31   70.24
 -10   4  -6   13.85   48.41
  10  -4  -6   58.66   45.10
 -10   4  -6   57.81  106.85
 -10   4  -6    5.56   20.62
  10  -4   6  -25.09   34.44
  10  -4   6   33.12   38.69
  10  -4   6  -46.13   86.17
  10  -4   6   27.51   27.95
 -10   4   6   97.50   57.33
 -10   5  -6  267.25   96.32
 -10   5  -6  398.57  149.45
 -10   5  -6  364.08   74.54
  10  -5   6  427.89   83.15
  10  -5   6  196.47   78.51
  10  -5   6  224.90   86.66
  10  -5   6  480.25  125.45
 -10   6  -6  107.91   32.51
 -10   6  -6   69.79   64.13
  10  -6   6   80.38   54.92
  10  -6   6  268.88  104.46
  10  -6   6   62.78   40.37
  10  -6   6  125.29   47.01
  10  -7   6   27.83   57.89
  10  -7   6  170.70  111.89
  10  -8   6  180.85   82.51
  10  -8   6  263.84  124.88
  11   6  -6   56.37   41.51
 -11  -6   6   89.71   26.21
  11   5  -6  -11.87   36.42
  11   5  -6   29.74   94.25
 -11  -5   6   23.94   18.64
  11   4  -6   17.36   39.38
 -11  -4   6  108.12   25.73
  11   3  -6   84.79   44.68
 -11  -3   6   93.08   84.10
 -11  -3   6   68.60   22.62
 -11  -2  -6   41.04   18.95
  11   2  -6   37.61   33.62
  11   2  -6  -22.17   96.26
  11   2   6  -73.44   79.08
 -11  -2   6   34.62   19.38
  11   2   6   27.13   33.09
 -11  -2   6  -23.64   78.36
 -11  -1  -6  673.99  156.74
  11   1  -6  765.95  201.23
  11   1  -6  721.02  165.90
  11   1   6  804.64  166.02
  11   1   6  668.75  191.15
 -11  -1   6  936.40  184.89
 -11  -1   6  616.83  154.56
  11   0  -6    7.87  103.75
 -11   0  -6   50.50   74.41
 -11   0  -6    1.61   13.71
  11   0  -6    4.28   37.41
  11   0   6   23.25   30.02
  11   0   6  -17.24   80.87
 -11   0   6  -51.19   64.14
 -11   1  -6  535.05  214.97
 -11   1  -6  607.74  175.15
  11  -1  -6  580.77  151.68
  11  -1  -6  630.67  194.06
 -11   1  -6  657.69  141.78
  11  -1   6  665.44  151.14
  11  -1   6  745.72  181.15
 -11   1   6  775.30  166.96
 -11   2  -6   53.90   17.46
 -11   2  -6   28.14  105.83
 -11   2  -6   36.28   66.07
  11  -2  -6   50.89   39.23
 -11   2  -6  -11.70   20.69
  11  -2   6   70.10   87.37
  11  -2   6   -5.49   33.28
 -11   2   6   69.62   60.08
 -11   3  -6   64.87   60.86
 -11   3  -6   65.27   23.03
 -11   3  -6   75.30  118.75
 -11   3  -6   76.48   27.37
  11  -3  -6   67.55   45.92
  11  -3   6   70.51   92.18
  11  -3   6  131.71   42.60
 -11   3   6   36.31   67.38
  11  -3   6  119.93   38.97
  11  -3   6   98.93   36.42
 -11   4  -6  182.73  124.65
 -11   4  -6  111.06   29.60
 -11   4  -6   56.58   61.18
  11  -4  -6   84.45  106.09
  11  -4  -6   54.81   52.93
  11  -4   6   84.03   45.44
  11  -4   6   55.75   37.30
 -11   4   6   73.74   64.95
  11  -4   6  189.11   98.81
  11  -4   6   66.74   40.55
 -11   5  -6  -16.80  127.35
 -11   5  -6   30.24   58.87
 -11   5  -6   34.88   23.78
  11  -5   6  -25.02   45.84
  11  -5   6    1.56   32.56
  11  -5   6   53.12  103.93
  11  -5   6   58.67   43.71
 -11   6  -6   45.11   64.06
 -11   6  -6   44.66   27.15
  11  -6   6   30.73   37.47
  11  -6   6  135.94  117.90
  11  -6   6   56.06   53.06
  11  -6   6   69.28   44.95
  11  -7   6   98.81   60.65
  11  -7   6   11.73  121.97
  11  -8   6  176.89  130.31
  11  -8   6   22.77   69.28
  12   5  -6   22.09   40.17
  12   4  -6 -144.13  107.73
  12   4  -6   89.73   41.23
 -12  -4   6   43.03   97.55
 -12  -4   6   41.70   22.14
  12   3  -6   42.04   42.25
  12   3  -6 -102.70  111.50
  12   3   6   40.78   39.17
 -12  -3   6   16.04   96.82
 -12  -3   6    8.12   18.97
  12   2  -6  269.73  135.79
 -12  -2  -6  193.59   72.23
  12   2  -6  329.95   85.24
  12   2   6  349.00   84.09
 -12  -2   6  386.76   72.08
  12   2   6  421.32  119.00
 -12  -2   6  347.69  116.75
  12   1  -6   45.85   41.36
 -12  -1  -6    9.60   17.66
  12   1  -6  -59.51  116.55
 -12  -1   6   17.81   81.37
  12   1   6  -16.72   37.62
  12   1   6    7.19   90.38
 -12  -1   6  -13.01   22.99
  12   0  -6  517.27   99.41
 -12   0  -6  231.83  132.61
 -12   0  -6  416.91   88.12
  12   0  -6  237.41  152.02
 -12   0   6  421.85  122.24
  12   0   6  372.74   96.91
 -12   0   6  325.91   88.49
  12   0   6  607.85  135.51
  12  -1  -6   17.78  121.41
  12  -1  -6  -35.20   48.20
 -12   1  -6    3.53   16.54
 -12   1  -6   24.00   79.77
  12  -1   6   76.28   95.00
  12  -1   6   18.21   34.76
 -12   1   6   29.06   70.91
 -12   2  -6  206.06  108.89
 -12   2  -6  346.63   74.84
  12  -2  -6  296.85   87.83
 -12   2   6  370.82  105.57
  12  -2   6  409.63   85.04
  12  -2   6  368.34  126.26
  12  -3  -6  -35.38   55.27
 -12   3  -6   -8.80   69.03
 -12   3  -6   28.10   17.40
  12  -3   6   -4.29   38.23
 -12   3   6   16.70   68.97
  12  -3   6  -96.19  104.56
  12  -4  -6   28.44   58.60
 -12   4  -6  131.67   73.51
 -12   4  -6   80.62   28.23
 -12   4   6   66.32   75.57
  12  -4   6  220.24  113.89
  12  -4   6  195.09   47.88
 -12   5  -6    3.01   64.37
  12  -5   6  -78.00  120.57
  12  -5   6    5.22   45.05
 -12   6  -6  -61.67   71.76
  12  -6   6   96.53   46.44
  12  -6   6  -96.39  124.75
  12  -7   6  148.32  139.30
  13   6  -6  158.25   51.63
 -13  -6   6   -5.15   29.74
  13   5  -6  198.14   56.55
  13   5  -6  191.80  121.79
  13   4  -6  -51.16  116.95
 -13  -4   6   11.62   23.76
  13   2   6  -14.55   40.92
  13   2   6   -2.74   86.38
 -13  -1  -6  218.29   48.30
  13   1   6  155.69  110.70
  13   1   6  186.37   61.92
 -13   0  -6    3.98   19.35
 -13   0  -6   -4.26   98.00
  13   0   6  -60.43   43.47
  13   0   6  -63.43  105.46
 -13   1  -6  227.88   48.67
 -13   1  -6  194.45  107.32
  13  -1   6    5.32  118.23
  13  -1   6  251.76   64.86
 -13   2  -6  -19.91   20.35
 -13   2  -6   28.25   85.18
  13  -2   6   16.77   43.22
  13  -2   6    2.61  102.74
  13  -3  -6   59.65  128.84
 -13   3  -6   19.73   74.56
 -13   3  -6   51.72   22.86
  13  -3   6 -117.71  112.48
  13  -3   6   49.32   44.12
  13  -4  -6  -73.23  128.90
 -13   4  -6  -41.39   73.07
  13  -4  -6  172.65   59.18
 -13   4  -6   11.97   22.34
  13  -4   6   20.01  119.18
  13  -4   6   28.41   46.44
  13  -5  -6  -98.03  129.68
 -13   5  -6    9.86   75.30
  13  -5   6   79.38  128.59
  13  -5   6  -51.68   47.82
 -13   5   6   82.23   81.19
 -13   6  -6  387.04  114.47
  13  -6   6  121.31   88.60
  13  -6   6  864.43  162.32
 -13   7  -6  105.65   84.34
  14   6  -6    5.45   46.49
 -14  -6   6   22.65   27.28
  14   5  -6    2.72   50.54
  14   5  -6 -145.26  120.18
 -14  -5   6    5.41   26.56
 -14  -5   6    5.67  132.13
  14   4  -6  -38.47   45.52
  14   4  -6 -289.74  130.49
 -14  -4   6   -7.78   27.64
 -14  -4   6   64.21  125.50
  14   3  -6  172.99  139.64
  14   3  -6   82.90   54.21
 -14  -3   6  132.37  123.42
 -14  -3   6   20.28   32.01
  14   2  -6  -63.26   58.99
 -14  -2  -6   -2.49   25.89
  14   2  -6 -304.03  143.14
 -14  -2   6   39.23   26.77
 -14  -2   6   -4.81  111.18
 -14  -1  -6  -28.07   19.42
  14   1  -6 -170.95  146.06
  14   1  -6   -2.90   59.86
 -14  -1   6    9.03   99.48
 -14  -1   6  -32.82   31.59
  14   0  -6  -93.96   69.78
  14   0  -6  -73.37  151.49
 -14   0   6  101.43  100.74
 -14   0   6  -35.99   32.58
  14  -1  -6 -173.38   59.61
 -14   1   6   20.19   85.92
 -14   1   6  -14.27   28.75
  14  -2  -6 -104.25   61.90
 -14   2   6    3.98   85.83
  14  -3  -6  131.27   77.62
  14  -3  -6  456.38  164.80
 -14   3   6   85.21   98.37
  14  -4  -6   40.48  150.99
  14  -4  -6    3.78   64.54
 -14   4   6    8.28   84.75
  14  -5  -6   -3.84   63.90
  14  -5  -6  137.44  148.74
 -14   5   6 -120.33   92.94
  14  -7   6   65.78  159.59
  15   6  -6   24.36   52.93
 -15  -6   6    3.12   28.40
  15   5  -6   94.28  132.91
  15   5  -6    6.13   52.63
 -15  -5   6   44.08  140.91
 -15  -5   6   11.99   32.17
  15   4  -6   69.72  145.86
  15   4  -6    3.09   57.82
 -15  -4   6  249.82  138.03
 -15  -4   6   -2.89   28.50
  15   3  -6  -93.38  153.89
  15   3  -6 -103.05   58.70
  15   3   6   89.00   56.63
 -15  -3   6 -154.05  134.45
 -15  -3   6   39.64   29.03
 -15  -2  -6    2.72   26.05
  15   2  -6  -57.23   61.44
  15   2  -6 -321.04  156.44
 -15  -2   6   -2.90   31.25
 -15  -2   6  -27.00  128.54
  15   2   6  -60.34   55.14
  15   2   6  -22.93  122.15
  15   1  -6    3.19   59.45
  15   1  -6   78.35  161.40
 -15  -1  -6    5.15   26.19
 -15  -1  -6   23.88  145.62
  15   1   6    9.54  121.52
 -15  -1   6   70.62   34.14
  15   1   6    2.99   51.00
 -15  -1   6   39.71  113.51
  15   0  -6   26.78  159.62
 -15   0  -6   -5.42  130.93
 -15   0  -6   14.67   25.21
  15   0  -6  -53.32   69.93
  15   0   6 -150.61   53.99
 -15   0   6    3.11   32.16
 -15   0   6   75.57  104.07
  15   0   6    9.57  121.39
 -15   1  -6   -4.92  119.55
  15  -1  -6 -178.48   65.95
 -15   1  -6    2.36   23.65
  15  -1   6    3.26  126.01
 -15   1   6  117.58   98.95
  15  -1   6   27.14   56.63
  15  -2  -6  190.60   69.82
 -15   2  -6  -61.78  103.19
 -15   2  -6  -14.32   22.59
 -15   2   6 -177.19   98.63
  15  -2   6  108.76  126.23
  15  -2   6   32.75   53.30
  15  -3  -6  291.52  165.28
  15  -3  -6   11.69   67.20
 -15   3  -6   22.45   24.40
 -15   3  -6   12.37   90.73
  15  -3   6 -181.55  136.58
  15  -3   6  -27.72   56.16
 -15   3   6 -148.01   92.69
  15  -4  -6  162.12  162.16
 -15   4  -6   59.13   91.55
  15  -4  -6    4.13   71.07
 -15   4  -6   30.15   27.02
  15  -4   6 -170.64  144.50
  15  -4   6  -65.79   59.07
 -15   4   6  122.67   92.62
  15  -5  -6   83.16   72.69
 -15   5  -6   -7.70   25.98
  15  -5  -6   24.54  159.83
 -15   5  -6  -27.73   87.06
  15  -5   6  -32.95  152.02
 -15   5   6   43.40   95.64
  15  -5   6   62.53   63.86
 -15   6  -6  102.04   90.97
  15  -6   6   54.60  169.36
  15  -6   6  -15.23   68.56
 -15   7  -6   26.76   99.32
  16   6  -6   63.92   61.04
 -16  -6   6   80.44  167.38
 -16  -6   6   10.33   32.24
  16   5  -6  -78.15   62.35
  16   5  -6    8.00  150.41
 -16  -5   6   76.75  168.60
 -16  -5   6  -16.63   34.12
  16   4  -6  -44.34   65.51
  16   4  -6  -84.82  155.59
 -16  -4   6  -29.04   32.88
 -16  -4   6  113.82  158.58
  16   3  -6  -32.77  170.74
  16   3  -6   20.69   64.22
 -16  -3   6  -12.62   30.70
 -16  -3   6   88.88  149.32
  16   3   6    3.37   60.69
  16   2  -6  -50.50   63.44
 -16  -2  -6  168.10  177.13
  16   2  -6    8.31  170.41
 -16  -2  -6    2.98   32.33
 -16  -2   6   -6.32   33.55
 -16  -2   6 -142.61  142.63
  16   2   6  -57.34  136.24
  16   2   6 -113.71   60.76
 -16  -1  -6  -19.86   27.80
 -16  -1  -6 -204.75  160.23
  16   1  -6 -135.48  167.88
  16   1  -6  -91.38   64.59
 -16  -1   6    3.39   35.02
  16   1   6   77.96   63.46
  16   1   6 -104.48  133.35
 -16  -1   6 -117.32  128.47
  16   0  -6   47.96   71.89
 -16   0  -6   -8.10   28.51
  16   0  -6  391.31  176.19
 -16   0  -6    6.07  151.66
  16   0   6    6.72   60.98
 -16   0   6   -5.28  118.07
 -16   0   6   66.20   39.48
  16   0   6   63.15  141.20
 -16   1  -6   -7.83   26.38
  16  -1  -6  118.08   72.52
 -16   1  -6   54.43  131.10
  16  -1   6    6.71   60.80
 -16   1   6   30.38  109.50
  16  -1   6  -49.78  144.11
  16  -2  -6    4.27  176.14
  16  -2  -6   59.57   71.19
 -16   2  -6   79.59  123.33
 -16   2  -6   38.63   24.14
  16  -2   6  -44.67   63.96
  16  -2   6 -245.63  147.98
 -16   2   6    4.91  105.48
 -16   3  -6   22.80  113.43
  16  -3  -6  124.17   79.99
  16  -3  -6 -233.43  183.52
 -16   3  -6   -2.74   26.74
  16  -3   6    6.86   66.76
  16  -3   6   14.45  147.78
 -16   3   6   89.55  105.51
 -16   4  -6   16.82   29.86
  16  -4  -6    4.42  189.33
 -16   4  -6 -100.81  105.65
  16  -4  -6  -85.86   79.38
 -16   4   6   35.01  107.08
 -16   5  -6   -2.87   28.80
 -16   5  -6   -4.37  101.07
  16  -5  -6 -202.47  197.44
 -16   5   6    5.27  116.34
  16  -5   6 -309.70   74.87
 -16   6  -6  -22.19   96.64
 -16   6  -6   68.68   31.46
  16  -6   6  -54.04   72.10
  16  -6   6 -324.07  178.85
  17   6  -6   30.27   72.15
 -17  -6   6   24.34  189.30
 -17  -6   6  -45.62   38.57
  17   5  -6    4.41  166.68
  17   5  -6    3.81   70.09
 -17  -5   6   51.95   38.82
 -17  -5   6  171.03  183.17
  17   4  -6 -105.43  172.93
  17   4  -6 -153.92   74.04
 -17  -4   6    3.61   37.61
 -17  -4   6   75.00  173.56
  17   3  -6  -43.16   71.14
 -17  -3  -6    8.74  205.02
  17   3  -6  336.59  182.08
 -17  -3   6   63.49   36.14
 -17  -3   6 -277.58  167.44
  17   3   6   15.14   69.50
 -17  -2  -6    6.52   33.55
  17   2  -6 -210.32  191.88
 -17  -2  -6  -24.21  191.54
  17   2  -6   -3.97   72.74
  17   2   6    7.85  154.11
  17   2   6   18.88   70.56
 -17  -2   6  -63.60   38.27
 -17  -2   6 -220.36  149.49
 -17  -1  -6    3.12   31.59
 -17  -1  -6 -178.00  177.25
  17   1  -6   -4.02   75.25
  17   1  -6  160.71  185.95
 -17  -1   6   75.70  140.80
  17   1   6   97.46   71.91
  17   1   6   72.64  145.23
 -17  -1   6  -55.22   37.94
 -17   0  -6   62.81   31.94
 -17   0  -6   60.96  164.19
  17   0  -6 -191.38   66.65
 -17   0   6  109.71   40.50
 -17   0   6  201.67  138.33
  17   0   6  -69.21   71.73
  17   0   6   15.38  150.02
 -17   1  -6  -11.52   29.32
 -17   1  -6  -12.22  147.70
  17  -1  -6   42.16   74.73
 -17   1   6  185.08  129.02
  17  -1   6  148.14  157.65
  17  -1   6    3.83   67.04
 -17   2  -6   25.74   29.43
  17  -2  -6 -193.08   80.29
  17  -2  -6 -176.15  203.64
 -17   2  -6  190.92  134.74
 -17   2   6  105.80   44.59
  17  -2   6  135.92  162.15
 -17   2   6  -98.81  123.21
  17  -2   6  -56.99   71.47
 -17   3  -6 -162.69  121.55
  17  -3  -6    4.70  201.59
  17  -3  -6   14.11   85.72
 -17   3  -6  -38.43   31.57
  17  -3   6 -102.14   75.64
  17  -3   6  234.94  163.10
 -17   3   6    5.53  115.31
 -17   4  -6  -34.08  116.94
 -17   4  -6   93.96   34.35
  17  -4  -6   66.94  201.15
  17  -4  -6 -118.91   87.00
  17  -4   6   16.60  171.11
  17  -4   6   68.94   78.34
 -17   4   6  193.49  119.78
  17  -5  -6  -58.87  206.27
 -17   5  -6  -12.78   32.90
 -17   5  -6  -28.94  105.30
  17  -5  -6  -29.58   85.12
  17  -5   6 -294.30  183.57
 -17   5   6   69.24  116.30
  17  -5   6  -58.96   73.16
 -17   6  -6   19.36  112.74
 -17   6  -6  -33.04   33.43
  18   6  -6  -85.29   77.37
 -18  -6   6 -105.16   42.57
 -18  -6   6   17.92  209.16
  18   5  -6  892.58  191.66
 -18  -5   6  663.54  281.61
  18   4  -6    4.25   81.17
  18   4  -6 -319.21  207.69
 -18  -4   6  399.91  203.86
 -18  -4   6    4.02   38.15
  18   3  -6   98.14  200.82
  18   3  -6    4.32   73.80
 -18  -3  -6  278.41  231.40
 -18  -3   6   43.49   39.70
  18   3   6  -93.61   79.06
 -18  -3   6    7.85  183.98
  18   2  -6   -4.35   76.53
 -18  -2  -6 -213.05  218.22
  18   2  -6  -84.89  199.84
 -18  -2  -6   86.01   37.64
 -18  -2   6  154.18  172.85
  18   2   6 -447.31  170.94
 -18  -2   6   27.53   41.13
  18   2   6 -148.99   79.08
 -18  -1  -6 -107.55  199.20
 -18  -1  -6  -10.30   33.92
  18   1  -6   73.51  200.38
  18   1  -6   71.02   81.25
  18   1   6 -100.50  163.68
 -18  -1   6   41.76  157.17
 -18  -1   6   24.51   40.30
  18   1   6 -131.61   81.84
 -18   0  -6  -16.59   32.70
  18   0  -6    4.51   83.97
 -18   0  -6    7.57  183.48
  18   0   6  -79.35  164.10
 -18   0   6   -6.55  148.12
  18   0   6  -34.13   77.24
  18  -1  -6   19.26   87.38
 -18   1  -6   38.44   34.03
 -18   1  -6   13.42  158.79
 -18   1   6 -195.63  147.95
  18  -1   6   -4.22   74.65
  18  -1   6 -229.61  166.88
 -18   2  -6   63.23   32.02
 -18   2  -6   61.60  146.24
  18  -2  -6    5.01   94.81
  18  -2  -6  -50.65  218.44
  18  -2   6    4.40  179.49
 -18   2   6  -22.82   51.08
 -18   2   6  -36.89  137.38
  18  -2   6   77.96   80.23
 -18   3  -6  -13.03   34.42
  18  -3  -6    5.13  213.42
  18  -3  -6  197.29   93.96
 -18   3  -6  -45.59  134.82
  18  -3   6  -61.34   81.40
  18  -3   6   -8.78  183.77
 -18   3   6    6.15  129.84
 -18   3   6   66.31   50.99
 -18   4  -6   -3.43   34.96
 -18   4  -6  156.99  131.84
  18  -4  -6 -275.97  234.35
  18  -4  -6   32.58   96.25
  18  -4   6    4.50   79.32
  18  -4   6 -451.76  196.91
 -18   4   6 -177.93  129.08
  18  -5  -6 1166.36  258.36
 -18   5  -6  373.63  152.77
  18  -5  -6  377.71  126.67
  18  -5   6  510.63  230.18
  18  -5   6  100.33  116.37
  19   6  -6  -51.71   89.13
 -19  -6   6   32.67   46.09
 -19  -6   6 -140.88  248.40
  19   5  -6  275.46   92.78
  19   5  -6  361.27  221.07
 -19  -5   6    4.61   49.89
 -19  -5   6   19.46  232.10
  19   4  -6 -164.55   91.22
  19   4  -6 -143.62  211.34
 -19  -4   6  -74.71  225.72
 -19  -4   6  -27.03   43.58
  19   3  -6 -652.59  216.66
  19   3  -6   73.45   93.60
 -19  -3   6 -290.40  223.24
 -19  -3   6  -39.86   45.95
 -19  -2  -6   79.41  234.13
 -19  -2  -6   39.28   37.81
  19   2  -6  -39.82   90.11
  19   2  -6  190.79  223.88
 -19  -2   6  -35.20   45.15
  19   2   6    4.69   86.15
 -19  -2   6   16.59  190.74
  19   1  -6  -16.50  235.05
 -19  -1  -6  256.56  233.23
  19   1  -6    5.03   90.17
 -19  -1  -6   45.62   40.56
 -19  -1   6   40.02   43.41
 -19  -1   6 -194.82  188.18
  19   1   6    4.61  176.95
  19   1   6  -18.79   90.42
  19   0  -6  -51.47   95.43
 -19   0  -6   18.30   36.16
 -19   0  -6 -124.36  207.07
  19   0   6  192.27  178.86
  19   0   6 -353.99   89.64
 -19   0   6 -162.34  175.49
 -19   1  -6   53.41   38.17
  19  -1  -6    5.34  101.95
  19  -1  -6   48.79  237.62
 -19   1  -6 -256.83  188.79
  19  -1   6    4.84   87.26
 -19   1   6 -262.45  163.02
  19  -1   6 -387.82  188.04
 -19   2  -6  -56.10   34.59
 -19   2  -6  227.09  169.94
  19  -2  -6   94.45   98.03
  19  -2  -6    5.52  234.20
 -19   2   6    5.12   55.00
 -19   2   6  110.42  160.59
  19  -2   6 -110.82   90.57
  19  -2   6   14.38  197.56
 -19   3  -6   31.92  153.85
 -19   3  -6   17.64   34.91
  19  -3  -6  -33.45  232.78
  19  -3  -6    5.74  107.63
  19  -3   6   14.66   90.00
  19  -3   6  -94.01  210.56
 -19   3   6  137.51   57.56
 -19   3   6 -123.70  151.06
 -19   4  -6   36.89   39.01
 -19   4  -6 -114.13  143.11
  19  -4  -6 -209.56  239.39
  19  -4  -6   -5.97  113.58
 -19   4   6  -77.45   60.10
 -19   4   6 -191.44  143.64
  19  -4   6  -35.01   88.92
  19  -4   6  208.71  213.45
 -19   5  -6  -11.83  147.84
  19  -5  -6 -100.76  105.37
 -19   5  -6   -7.86   41.66
  19  -5  -6  161.79  255.67
 -19   5   6 -183.20  152.54
 -20  -2  -6  -55.97   41.52
 -20  -2  -6  339.95  275.21
  20   2   6   21.20  101.48
 -20  -1  -6  -37.72   41.29
 -20  -1  -6 -346.73  263.98
  20   1   6   32.07   98.63
  20   1   6  248.97  195.99
 -20   0  -6    9.29  218.82
 -20   0  -6   48.75   42.58
  20   0   6   -5.33   98.90
  20   0   6   80.49  195.31
 -20   1  -6   66.74  202.42
 -20   1  -6    3.96   39.28
  20  -1   6   10.66   92.34
  20  -1   6  164.09  210.28
 -20   2  -6    7.62  180.17
 -20   2  -6   42.86   41.19
  20  -2   6    5.24  217.24
  20  -2   6  138.95   99.03
 -20   3  -6  -31.24   40.84
 -20   3  -6 -113.39  175.41
  20  -3   6   97.87  221.59
  20  -3   6   11.22  105.62
 -20   4  -6 -114.13  173.14
 -20   4  -6   20.34   42.27
  20  -4   6  -97.50  100.53
  20  -4   6  -50.08  240.38
   0   0  -7   -1.22   32.22
   0   0   7   -9.22   20.26
   0   0   7    3.81   12.52
  -1   0  -7   98.22   46.37
   0   1  -7  108.71   44.05
   1   0  -7  143.23   45.54
   1   0   7  140.73   31.27
  -1   0   7  135.31   35.05
   0  -1   7  105.33   30.24
   0  -1   7  133.00   33.04
   1   0   7  124.07   37.00
  -1   1  -7   -1.10   32.01
   1   1  -7   -3.79   14.38
   1   1  -7   10.77   28.78
  -1  -1   7    5.89   15.99
  -1  -1   7   -4.13    7.12
  -1  -1   7   -2.98   11.32
   1  -1   7    2.14   12.21
   1  -1   7   -8.72   18.74
   2   1  -7  133.84   37.51
  -1   2  -7  133.79   47.57
   2   1  -7  102.08   43.59
   2   1  -7  123.13   29.69
   1  -2   7  132.85   31.77
  -2  -1   7  140.08   32.14
   1  -2   7   98.44   31.33
  -2  -1   7  140.66   30.72
  -2  -1   7  114.50   31.13
  -2   0  -7   -1.40   37.17
   0   2  -7   -1.97   31.14
   2   0  -7    0.59   17.96
   2   0   7   -8.98   15.21
   0  -2   7    2.66   13.01
   0  -2   7   -2.59   12.38
  -2   0   7    6.18   20.40
   1   2  -7  107.96   31.86
  -2   1  -7   98.67   48.64
   1   2  -7  120.20   26.49
   1   2  -7   83.99   43.32
  -1  -2   7  132.15   29.13
  -1  -2   7  120.76   28.82
   2  -1   7  108.08   29.62
  -1  -2   7  111.40   28.99
  -2   2  -7  -10.91   36.71
   2   2  -7    1.00    6.21
   2   2  -7    0.38    7.13
   2   2  -7    7.83   28.47
   2   2  -7    5.57   19.14
  -2  -2   7   -5.20   12.23
   2  -2   7   -3.91   14.24
  -2  -2   7   -7.61   11.60
  -2  -2   7   -8.85   12.62
  -2  -2   7    3.93    3.07
   3   2  -7 1635.56  354.39
   3   2  -7 1713.14  366.54
   3   2  -7 1748.49  419.96
   3   2  -7 1650.87  391.75
   2  -3   7 1544.97  415.72
  -3  -2   7 1602.24  371.70
  -3  -2   7 1752.89  365.84
  -3  -2   7 1672.46  383.05
   3   1  -7  148.68   35.06
   3   1  -7  200.08   50.91
   3   1  -7  132.74   47.13
  -1   3  -7  160.17   33.35
  -3  -1   7  139.49   36.97
   1  -3   7  191.49   36.11
  -3  -1   7  125.43   36.49
   1  -3   7  111.73   37.60
  -3  -1   7  102.07   38.52
  -3   0  -7 1037.04  268.58
   3   0  -7  844.60  254.75
   3   0  -7 1267.37  234.53
  -3   0   7 1033.83  237.13
   3   0   7  709.40  229.48
   3   0   7 1061.82  240.61
   0  -3   7 1101.95  225.71
  -3   0   7 1049.58  238.40
   0  -3   7 1142.77  232.73
   1   3  -7  185.71   40.54
  -3   1  -7  149.78   38.38
  -3   1  -7  151.23   62.02
   1   3  -7  194.63   38.97
  -1  -3   7  168.38   40.84
   3  -1   7  185.48   39.99
  -1  -3   7  171.96   42.85
   3  -1   7  204.78   43.17
   3  -1   7  207.36   47.18
   2   3  -7 1869.42  426.19
  -3   2  -7  920.08  384.07
   2   3  -7 1692.07  382.45
  -3   2  -7 1810.97  429.33
  -2  -3   7 1834.99  383.58
  -2  -3   7 2135.08  362.88
   3  -2   7 1680.98  375.86
  -2  -3   7 1822.14  369.18
   3  -2   7 1735.32  369.98
   3   3  -7   -1.66    8.02
   3   3  -7    7.22   30.03
  -3   3  -7    3.75   12.70
   3   3  -7    3.80   10.04
  -3  -3   7    0.55    4.83
  -3  -3   7   -2.09   10.25
   3  -3   7    6.82   21.01
  -3  -3   7   -1.70   14.90
   3  -3   7    1.74   10.35
   4   3  -7  777.51  178.82
   4   3  -7  868.10  173.25
   4   3  -7  714.73  191.55
  -4  -3   7  830.14  166.74
   3  -4   7  843.10  180.05
   3  -4   7  724.88  206.26
   3  -4   7  868.19  173.85
  -4  -3   7  745.99  182.52
   4   2  -7   63.63   32.50
   4   2  -7   48.62   16.62
   4   2  -7   52.11   12.78
   4   2  -7   35.84   36.09
  -4  -2   7   86.62   26.96
  -4  -2   7   47.49   14.68
  -4  -2   7   43.90   12.14
  -4  -2   7   41.45   16.98
   4   1  -7   65.05   39.70
   4   1  -7   45.35   18.39
   4   1  -7   47.04   36.88
  -4  -1   7   75.87   18.98
  -4  -1   7   41.52   24.88
  -4  -1   7   67.47   19.64
   4   0  -7   10.28   36.82
  -4   0  -7   -6.56   52.79
   4   0  -7   -7.61   14.56
  -4   0   7  -22.36   20.30
   4   0   7   36.05   20.75
   0  -4   7   -0.82   17.32
  -4   0   7  -10.77   18.73
   4  -1  -7   78.11   24.62
  -4   1  -7   90.74   54.49
  -4   1  -7   96.71   16.11
   1   4  -7   67.97   17.75
  -1  -4   7   70.94   19.79
  -4   1   7   51.63   25.76
  -1  -4   7   87.21   22.97
   4  -1   7   73.71   30.77
   4  -1   7   56.53   17.92
   4  -1   7   -0.95   27.11
   2   4  -7   79.31   15.87
  -4   2  -7   65.31   13.89
  -4   2  -7   44.86   23.10
  -2  -4   7   21.45   20.60
  -2  -4   7   38.34   17.08
   4  -2   7   43.86   29.63
   4  -2   7   82.64   16.03
   3   4  -7  785.89  165.72
  -4   3  -7  729.80  171.95
  -3  -4   7  746.78  166.61
   4  -3   7  865.39  165.94
   4  -3   7  781.80  165.27
   4  -3   7  649.22  161.99
   4  -3   7  499.10  184.74
   4   4  -7   45.45   37.19
   4   4  -7    4.33   12.23
  -4   4  -7    2.06   13.29
   4  -4   7   -1.54   32.39
  -4  -4   7    8.23    6.62
  -4  -4   7    7.06   15.44
   4  -4   7   -6.61   25.28
   4  -4   7    5.49   19.13
   5   4  -7  722.00  146.28
   4  -5   7  524.17  155.61
   4  -5   7  488.53  128.14
   4  -5   7  567.94  133.90
  -3   5  -7  596.03  118.47
   3  -5   7  594.34  121.11
  -5  -3   7  484.45  128.11
   3  -5   7  473.39  126.21
   5   2  -7  937.01  265.03
  -5  -2   7 1173.80  234.22
  -5  -2   7  883.69  226.44
   2  -5   7 1189.49  232.35
  -1   5  -7   21.84   12.84
   1  -5   7   10.54   21.12
   1  -5   7   48.82   17.40
  -5  -1   7   25.93   11.17
   0   5  -7 2442.67  477.90
  -5   0   7 2454.33  513.84
   5   0   7 1859.76  499.19
  -5   1  -7   43.03   10.28
   5  -1  -7   14.95   44.37
   5  -1   7   40.90   14.05
   5  -1   7   21.01   32.79
  -5   2  -7 1007.41  255.70
   5  -2   7 1180.18  245.62
   5  -2   7 1276.69  249.52
   5  -2   7 1148.34  272.66
  -5   3  -7  598.70  121.11
  -5   3  -7  645.95  132.68
  -5   3  -7  551.38  161.48
   5  -3   7  576.38  125.35
   5  -3   7  538.37  125.23
   5  -3   7  501.61  143.33
   5  -3   7  493.22  128.47
  -5   4  -7  589.11  123.78
  -5   4  -7  631.05  137.09
   5  -4   7  469.11  131.67
   5  -4   7  507.57  150.93
   5  -4   7  642.29  127.49
   5   5  -7    3.56   15.60
  -5   5  -7    3.69   14.89
   5  -5   7   -7.69   44.26
   5  -5   7  -33.26   33.55
   5  -5   7  -12.36   23.77
   6   5  -7   62.54   24.90
  -5   6  -7   45.08   23.19
   5  -6   7   52.66   28.88
  -6  -5   7  109.64   19.89
   5  -6   7   90.11   38.96
   6   4  -7  331.37   91.87
  -4   6  -7  239.20   69.40
   6   4  -7  340.63   74.05
  -6  -4   7  273.61   66.92
   4  -6   7  330.18   72.50
   4  -6   7  367.79   78.28
   6   3  -7  526.12  142.23
   6   3  -7  566.26  155.10
  -3   6  -7  620.46  134.83
   3  -6   7  634.70  142.75
   3  -6   7  700.55  137.11
  -6  -3   7  668.20  145.17
  -2   6  -7  449.70  103.95
   6   2  -7  429.70  126.86
   6   2  -7  462.74  108.82
   6   2  -7  520.41  125.78
  -6  -2   7  526.30  117.99
  -6  -2   7  391.17  111.54
  -6  -2   7  582.47  101.11
   6   1  -7  142.02   33.97
   6   1  -7  120.95   60.65
   6   1   7  128.78   58.42
  -6  -1   7  115.23   43.77
   6   0  -7    9.41   19.62
   6   0  -7    5.83   50.05
   6   0   7   -2.13   39.08
  -6   0   7    3.07   29.11
   6  -1  -7  105.26   39.58
   6  -1  -7  139.18   60.23
   6  -1   7  191.50   41.41
   6  -1   7   91.92   45.80
  -6   1   7  201.62   44.70
  -6   2  -7  530.09  145.08
  -6   2  -7  512.25  116.56
   6  -2  -7  516.20  126.76
   6  -2  -7  312.50  113.44
   6  -2   7  536.55  113.13
   6  -2   7  459.05  108.80
  -6   2   7  654.91  118.53
   6  -2   7  485.27  112.78
  -6   3  -7  677.04  142.67
  -6   3  -7  646.64  174.46
  -6   3  -7  597.90  129.59
   6  -3   7  490.79  132.96
   6  -3   7  492.48  134.09
   6  -3   7  660.46  138.49
  -6   4  -7  332.74   72.90
  -6   4  -7  299.35   83.76
   6  -4   7  332.33   80.87
   6  -4   7  349.65   76.57
  -6   5  -7   73.98   24.53
   6  -5   7   59.96   30.45
   6  -5   7  103.16   38.15
  -6   6  -7    5.74   18.11
   6  -6   7   -5.89   57.39
   6  -6   7   11.29   27.81
   6  -6   7    6.31   36.81
   7   6  -7   55.05   23.59
  -6   7  -7   39.32   23.68
   6  -7   7   42.99   41.57
   7   5  -7   57.93   60.46
   7   5  -7    4.90   21.56
   5  -7   7   23.83   35.35
  -7  -5   7   12.12   11.80
   7   4  -7  336.36   90.40
   7   4  -7  221.93   68.18
  -7  -4   7  319.41   61.77
   7   3  -7  259.42   71.40
   7   3  -7  356.30   90.50
  -7  -3   7  412.71   65.94
  -7  -3   7  244.59   70.07
   7   2  -7  532.05  153.83
   7   2  -7  476.37  133.83
  -7  -2   7  681.91  145.70
  -7  -2   7  672.73  124.11
  -7  -1  -7    5.47    9.18
   7   1  -7   -2.49   20.24
   7   1  -7    3.24   59.38
   7   1   7  -78.29   54.91
   7   1   7    8.82   16.63
  -7  -1   7   21.99   38.03
   7   0  -7   -5.42   21.82
   7   0  -7  -37.22   61.89
  -7   0  -7   13.06    8.84
  -7   0  -7  -23.02   75.10
   7   0   7   25.98   30.64
   7   0   7  -18.32   43.94
   7   0   7   -8.79   44.21
  -7   0   7  -12.46   34.19
   7   0   7   -3.07   16.94
   7  -1  -7    9.29   26.06
  -7   1  -7   -3.65    8.63
  -7   1  -7  -49.31   76.63
   7  -1  -7   -1.69   58.47
   7  -1   7   20.79   33.06
   7  -1   7   -6.18   30.05
   7  -1   7    6.54   16.45
  -7   1   7  -18.10   34.14
   7  -1   7  -22.75   47.83
  -7   2  -7  156.83  178.92
   7  -2  -7  576.62  124.53
  -7   2  -7  583.74  114.08
  -7   2  -7  299.42  130.35
   7  -2  -7  446.58  143.67
   7  -2   7  588.54  118.86
   7  -2   7  522.49  123.99
   7  -2   7  470.19  123.25
   7  -2   7  512.95  143.49
  -7   2   7  861.09  131.03
   7  -3  -7  174.36   82.30
  -7   3  -7  226.16   65.84
  -7   3  -7  167.63   54.52
  -7   3  -7  -56.58  131.21
   7  -3   7  165.14   66.68
   7  -3   7  196.58   88.30
   7  -3   7  226.83   60.50
   7  -3   7  308.19   55.76
  -7   3   7  359.67   68.15
  -7   4  -7  360.29  108.51
  -7   4  -7  202.70   71.08
  -7   4  -7  260.30   58.98
   7  -4   7  304.03   63.09
   7  -4   7  236.79   86.74
   7  -4   7  218.91   62.93
   7  -4   7  232.07   68.22
  -7   5  -7   10.94   18.16
  -7   5  -7   14.15   36.29
   7  -5   7    1.48   37.91
   7  -5   7  -11.49   25.95
   7  -5   7   13.72   27.13
   7  -5   7   31.18   62.87
  -7   6  -7   84.34   24.96
   7  -6   7  106.45   72.32
   7  -6   7   35.51   42.77
   7  -6   7   46.09   30.53
  -7   7  -7   -6.85   18.98
   7  -7   7  -55.81   71.39
   7  -7   7   37.41   45.52
   8   6  -7   11.43   25.75
   8   5  -7   -7.01   24.46
   8   5  -7   18.87   67.21
  -8  -5   7   -1.49   12.78
   8   4  -7  113.71   70.12
   8   4  -7   81.44   31.32
  -8  -4   7   67.58   21.26
   8   3  -7   -3.43   63.74
   8   3  -7  -14.99   24.55
  -8  -3   7   55.24   50.53
  -8  -3   7    6.45   11.84
   8   2  -7  125.93   57.32
   8   2  -7  273.25   88.52
  -8  -2   7  219.88   73.13
  -8  -2   7  282.76   50.11
   8   1  -7   12.92   27.22
   8   1  -7  113.04   70.22
  -8  -1  -7   55.66   16.93
   8   1   7   84.83   24.78
   8   1   7   40.58   56.20
   8   1   7   30.84   59.62
  -8  -1   7   65.95   47.04
  -8   0  -7  -27.18   84.89
  -8   0  -7   -4.63    9.84
   8   0  -7   40.72   77.97
   8   0  -7   27.24   25.30
   8   0   7   -6.65   43.64
   8   0   7    7.14   18.72
   8   0   7  -12.08   53.66
   8   0   7   22.42   36.45
  -8   0   7   -4.10   40.81
  -8   1  -7   51.59   88.69
   8  -1  -7   76.12   71.83
  -8   1  -7   32.83   14.62
   8  -1  -7   37.96   31.08
   8  -1   7   66.24   22.19
   8  -1   7   36.25   35.48
  -8   1   7   32.86   40.60
   8  -1   7  127.37   57.92
   8  -1   7   32.25   39.34
  -8   2  -7  246.64   57.08
   8  -2  -7  275.65   67.76
   8  -2  -7  310.55   92.01
  -8   2  -7  300.04  110.88
  -8   2  -7  153.06   73.69
   8  -2   7  282.17   66.35
  -8   2   7  208.65   74.23
   8  -2   7  250.27   60.85
   8  -2   7  296.48   66.23
   8  -2   7  331.74   85.22
   8  -3  -7    6.55   35.86
  -8   3  -7  -18.35   17.71
  -8   3  -7   -4.99    9.40
  -8   3  -7   10.45   39.53
   8  -3  -7  -23.73   67.23
  -8   3  -7   59.14   90.32
   8  -3   7    3.86   31.91
   8  -3   7    1.27   21.52
   8  -3   7    1.36   27.31
   8  -3   7   53.45   57.88
  -8   3   7  -11.74   44.93
  -8   4  -7   85.85   48.20
  -8   4  -7   92.12   97.85
  -8   4  -7  123.16   30.63
   8  -4   7  138.48   66.76
   8  -4   7  113.04   36.74
   8  -4   7   82.79   34.88
   8  -4   7  138.34   43.58
  -8   5  -7   20.13   19.45
  -8   5  -7  -11.87   41.63
   8  -5   7   29.79   31.17
   8  -5   7   12.95   28.07
   8  -5   7   50.70   38.83
   8  -5   7  -27.03   70.65
  -8   6  -7   66.34   22.24
   8  -6   7    1.76   44.43
   8  -6   7   -9.37   32.47
   8  -6   7  -22.53   74.00
  -8   7  -7  231.37   52.73
   8  -7   7  235.03  102.56
   8  -7   7  160.29   71.81
   8  -8   7   62.38   57.17
   9   6  -7  157.08   45.94
   9   5  -7  234.60   79.87
   9   5  -7  121.97   38.59
  -9  -5   7   86.53   29.49
   9   4  -7    2.00   75.53
   9   4  -7   -6.29   28.51
  -9  -4   7   17.85   12.18
   9   3  -7  -56.46   71.91
   9   3  -7    3.16   25.98
  -9  -3   7    1.47   13.32
  -9  -3   7  -57.76   60.59
   9   2  -7  -60.49   75.89
   9   2  -7   -1.58   28.03
   9   2   7  -10.87   24.79
  -9  -2   7  -20.75   54.75
  -9  -2   7    1.50   14.08
   9   1  -7   31.09   27.80
  -9  -1  -7   10.05   13.48
   9   1  -7   96.26   79.32
   9   1   7   19.73   61.26
  -9  -1   7   42.38   15.07
  -9  -1   7    2.44   52.13
   9   1   7  -30.41   59.62
   9   1   7   16.20   25.68
  -9   0  -7  -11.80   13.19
   9   0  -7  -32.72   79.50
   9   0  -7   15.41   29.26
  -9   0  -7  -58.43   96.87
   9   0   7   35.85   23.99
   9   0   7    3.41   61.14
  -9   0   7   28.11   47.68
   9   0   7   28.84   44.82
   9   0   7   19.54   38.84
   9  -1  -7   30.84   84.99
  -9   1  -7   24.22   12.03
  -9   1  -7   22.53   91.41
   9  -1  -7  -11.21   32.88
  -9   1  -7  -20.59   52.72
   9  -1   7    5.83   36.17
   9  -1   7   22.28   21.27
   9  -1   7  -20.05   65.40
  -9   1   7   57.66   46.74
   9  -1   7    5.40   40.43
  -9   2  -7  -21.01   47.89
  -9   2  -7   24.20   94.31
  -9   2  -7    3.68   11.91
   9  -2  -7   -6.35   34.89
   9  -2  -7  -94.69   81.68
   9  -2   7  -24.25   64.91
   9  -2   7  -13.52   34.40
   9  -2   7  -10.69   30.30
   9  -2   7   29.63   23.59
  -9   2   7   33.78   45.87
  -9   3  -7   -9.06   18.36
  -9   3  -7   -9.24   12.61
  -9   3  -7   64.25   99.04
   9  -3  -7    2.22   79.77
   9  -3  -7   45.48   40.26
  -9   3  -7  -16.04   47.37
   9  -3   7   56.74   37.38
   9  -3   7   -7.10   28.89
   9  -3   7   18.23   65.45
  -9   3   7   15.39   46.79
   9  -3   7   16.15   25.52
  -9   4  -7  -22.23   45.65
  -9   4  -7  154.50  100.94
  -9   4  -7  -13.67   20.43
   9  -4   7   21.32   27.55
   9  -4   7    7.08   73.27
   9  -4   7   -1.48   38.20
   9  -4   7    2.75   27.85
  -9   5  -7  177.58   60.80
  -9   5  -7  126.64   36.67
  -9   5  -7  142.33  111.45
   9  -5   7  107.70   42.38
   9  -5   7  122.89   88.12
   9  -5   7  191.46   47.52
   9  -5   7  168.66   53.65
  -9   6  -7   76.31   63.49
  -9   6  -7  125.67   38.57
   9  -6   7  238.00   58.77
   9  -6   7  245.66   96.11
   9  -6   7   93.13   43.32
  -9   7  -7   80.59   29.88
   9  -7   7   99.79   98.60
   9  -7   7   41.79   56.57
   9  -8   7  525.58  143.37
   9  -8   7  308.74  110.36
  10   6  -7   94.46   38.65
 -10  -6   7   93.91   27.58
  10   5  -7  -16.08   31.50
 -10  -5   7   12.62   16.40
  10   4  -7  132.54   42.68
  10   4  -7  104.97   90.46
 -10  -4   7  128.39   31.31
  10   3  -7   16.05   33.11
  10   3  -7   48.31   84.54
 -10  -3   7   14.98   15.77
 -10  -3   7   28.12   69.92
  10   2  -7   96.84   35.88
  10   2  -7  -52.09   89.21
  10   2   7   52.57   69.29
  10   2   7   29.83   30.44
 -10  -2   7   71.16   68.12
 -10  -2   7   36.11   17.08
  10   1  -7  163.79   55.71
 -10  -1  -7  162.34   44.80
  10   1  -7  286.88  105.33
  10   1   7  107.75   76.19
  10   1   7  231.31   83.76
 -10  -1   7  205.80   44.78
 -10  -1   7  239.14   75.79
  10   1   7  195.18   53.11
  10   0  -7  -13.51   33.82
 -10   0  -7  -39.50  107.24
  10   0  -7  -19.42   98.45
 -10   0  -7  -14.73   13.72
  10   0   7   24.92   44.44
  10   0   7   23.99   47.17
  10   0   7    4.74   26.75
 -10   0   7   66.39   56.56
  10   0   7   17.22   70.60
  10  -1  -7  185.78  110.87
 -10   1  -7  174.02   79.63
 -10   1  -7  186.56   46.23
  10  -1  -7  293.70   60.56
 -10   1  -7   46.82  114.24
  10  -1   7  129.87   62.73
  10  -1   7  304.65   88.50
 -10   1   7  211.95   71.87
  10  -1   7  243.43   53.18
  10  -1   7  197.46   60.21
 -10   2  -7   25.77  103.76
  10  -2  -7   79.32   41.67
 -10   2  -7   36.33   16.42
  10  -2  -7   71.44   94.00
 -10   2  -7   15.16   22.68
 -10   2  -7   31.48   55.28
  10  -2   7   29.27   73.52
  10  -2   7   48.03   37.92
  10  -2   7   52.80   28.47
 -10   2   7   53.18   54.47
  10  -2   7    6.29   35.45
 -10   3  -7    6.87   20.09
  10  -3  -7   21.06   46.14
  10  -3  -7  -26.98   92.45
 -10   3  -7    1.33   14.26
 -10   3  -7  123.03  108.66
 -10   3  -7   13.76   52.71
  10  -3   7   49.12   77.65
  10  -3   7   28.52   30.21
  10  -3   7    7.13   40.19
 -10   3   7    8.37   55.66
  10  -3   7  -24.42   30.48
 -10   4  -7   74.69   59.74
 -10   4  -7  113.47   33.14
 -10   4  -7  175.47  122.69
 -10   4   7  135.13   63.09
  10  -4   7  123.47   86.41
  10  -4   7  112.19   41.50
  10  -4   7  126.67   47.49
  10  -4   7   85.83   41.02
 -10   5  -7   12.75   22.72
 -10   5  -7   59.10   53.78
 -10   5  -7  -63.99  124.01
  10  -5   7   -1.71   46.12
  10  -5   7   29.58   31.45
  10  -5   7   67.01   90.34
  10  -5   7   15.30   36.40
 -10   6  -7  133.11   33.23
 -10   6  -7  107.19   61.89
  10  -6   7  124.12   55.57
  10  -6   7  139.82   50.28
  10  -6   7   25.18   39.04
  10  -6   7  174.38  102.80
 -10   7  -7  178.00   46.48
  10  -7   7  159.87   69.91
  10  -7   7  156.31  114.98
  10  -8   7  -24.82   66.92
  11   6  -7    4.01   35.15
 -11  -6   7   51.47   19.14
  11   5  -7   91.93   99.69
  11   5  -7  106.17   50.29
 -11  -5   7  169.54   35.94
  11   4  -7  -37.33   97.58
  11   4  -7  -17.88   37.78
 -11  -4   7   63.98   89.34
 -11  -4   7    5.60   17.23
  11   3  -7  -63.25   47.05
 -11  -3   7   28.12   18.13
 -11  -3   7 -105.38   88.94
 -11  -2  -7  299.67   55.61
  11   2  -7  129.27   71.37
 -11  -2   7  250.84   54.74
  11   2   7  248.55   64.17
 -11  -2   7  238.11   94.57
  11   1  -7  -87.60   42.47
 -11  -1  -7   24.93   16.85
 -11  -1   7  -91.42   77.10
  11   1   7   -5.67   31.41
  11   1   7   63.13   79.64
 -11  -1   7    5.85   18.58
  11   0  -7  502.49  113.88
  11   0  -7  554.58  158.99
 -11   0  -7  482.56  173.75
 -11   0  -7  419.16  104.86
 -11   0   7  431.66  130.63
  11   0   7  442.86  141.40
  11   0   7  549.12  112.99
  11  -1  -7   -2.74  110.37
 -11   1  -7    6.00   70.51
 -11   1  -7  -18.50   15.17
  11  -1  -7  -57.93   46.75
 -11   1  -7    8.00  113.06
  11  -1   7   -3.56   41.40
 -11   1   7  -46.84   65.40
  11  -1   7  -32.84   44.06
  11  -1   7   -8.48   83.74
  11  -1   7   26.94   32.27
  11  -2  -7   71.81   64.23
 -11   2  -7  181.85   50.29
 -11   2  -7  289.27   81.39
 -11   2  -7  286.63  125.75
 -11   2  -7  236.17   46.42
  11  -2   7  248.40   58.05
  11  -2   7  194.80   98.76
 -11   2   7   88.47   81.84
  11  -2   7  215.03   62.37
  11  -2   7  181.09   56.02
 -11   3  -7   86.32   19.59
 -11   3  -7   12.98   23.34
 -11   3  -7    2.60  116.30
  11  -3  -7  105.59   51.58
 -11   3  -7   13.05   62.92
 -11   3   7  -30.64   71.13
  11  -3   7   40.02   33.35
  11  -3   7  155.36   86.22
  11  -3   7   64.45   35.74
  11  -3   7   53.76   43.71
  11  -4  -7   23.55   52.63
 -11   4  -7   69.10   60.71
 -11   4  -7   15.21   16.44
 -11   4  -7  -16.57  127.47
 -11   4  -7   67.20   25.02
  11  -4   7   -7.84   44.38
  11  -4   7   20.05   90.58
 -11   4   7   36.37   66.79
  11  -4   7    7.41   33.44
  11  -4   7   43.19   37.59
 -11   5  -7  121.11   39.89
 -11   5  -7  148.35   68.09
 -11   5  -7  365.44  142.37
  11  -5   7  286.01  107.23
  11  -5   7  122.64   46.09
  11  -5   7   93.66   51.77
  11  -5   7  154.92   58.32
 -11   6  -7   41.78  144.74
 -11   6  -7   16.30   26.11
 -11   6  -7   14.83   64.94
  11  -6   7  -45.51   53.53
  11  -6   7   73.90   46.10
  11  -6   7   76.04  109.33
  11  -6   7   29.60   35.13
  11  -7   7   78.94  119.05
  11  -7   7   -2.21   58.95
  11  -8   7   98.03   71.62
  12   5  -7   13.17   41.57
  12   4  -7   22.53   42.68
 -12  -4   7  -33.72   99.80
  12   3  -7  160.09  129.54
  12   3  -7  388.12   73.23
 -12  -3   7  205.27   58.08
 -12  -3   7  230.12  116.02
 -12  -2  -7   29.37   19.67
  12   2  -7 -268.54  120.09
  12   2  -7  -80.16   44.64
  12   2   7   -4.40   39.19
 -12  -2   7   22.05   22.82
 -12  -2   7  -52.83   89.25
  12   1  -7  716.24  148.05
  12   1  -7  608.06  194.04
 -12  -1   7  634.67  173.02
 -12  -1   7  428.67  137.11
  12   1   7  707.79  148.77
  12   1   7  760.84  175.70
 -12   0  -7   -3.86   90.99
 -12   0  -7   -5.47   17.44
  12   0  -7  -14.52   45.00
  12   0  -7  227.30  125.75
  12   0   7  -47.20   91.72
  12   0   7  -48.99   35.98
 -12   0   7  -77.47   74.50
  12  -1  -7  763.19  195.00
 -12   1  -7  546.89  131.74
  12  -1  -7  499.32  143.10
 -12   1  -7  546.38  168.71
  12  -1   7  613.67  141.61
 -12   1   7  670.80  161.14
  12  -1   7  712.93  174.27
  12  -2  -7   24.39  119.49
 -12   2  -7   12.67   78.35
 -12   2  -7    6.84   17.48
  12  -2  -7  -11.30   49.89
  12  -2   7    2.07   37.36
 -12   2   7  -42.48   68.94
  12  -2   7   80.58   93.85
  12  -3  -7  287.08   78.72
 -12   3  -7  227.95   61.64
 -12   3  -7  251.46   94.03
 -12   3   7  336.01   97.15
  12  -3   7  275.16   73.08
  12  -3   7  382.39  121.50
 -12   4  -7   17.11   66.18
 -12   4  -7   20.46   17.81
  12  -4   7   68.86   42.21
  12  -4   7  -91.57  107.99
 -12   5  -7  103.06   71.89
  12  -5   7  235.63  116.43
  12  -5   7   77.35   51.66
 -12   6  -7  -41.33   70.27
  12  -6   7  -11.57   46.63
  12  -6   7   51.90  118.52
  13   7  -7    2.52   44.73
  13   6  -7   24.84   46.06
  13   6  -7 -299.59  123.14
 -13  -6   7  -28.32   26.71
  13   5  -7  106.36   45.29
  13   5  -7 -374.28  118.43
 -13  -5   7    2.44   25.27
 -13  -5   7   54.73  113.58
  13   4  -7   -3.07  120.12
 -13  -4   7   18.69   21.91
  13   2   7   63.92   44.11
 -13  -1  -7   -6.48   21.33
  13   1   7    2.34   42.38
  13   1   7   26.35   97.30
 -13   0  -7  380.95  136.64
 -13   0  -7  377.25   81.31
  13   0   7  541.27  136.61
  13   0   7  259.44   93.16
 -13   1  -7   46.91   93.47
 -13   1  -7   19.05   19.38
  13  -1   7   52.16  103.66
  13  -1   7   -9.37   42.02
 -13   2  -7   68.38   25.81
 -13   2  -7   52.83   84.63
  13  -2  -7  206.72  135.74
  13  -2   7   91.72  105.43
  13  -2   7   98.00   43.82
 -13   3  -7  107.88   75.74
 -13   3  -7   -1.93   20.92
  13  -3  -7   -3.30   39.71
  13  -3   7  249.28  110.79
  13  -3   7   45.51   44.11
  13  -4  -7   -6.96   54.81
 -13   4  -7    1.93   19.87
 -13   4  -7   31.76   73.10
 -13   4   7   19.52   77.79
  13  -4   7  -53.71   47.25
  13  -4   7   88.01  117.36
 -13   5  -7    5.94   20.25
  13  -5  -7 -450.41  143.57
 -13   5  -7  -45.14   76.09
  13  -5   7 -326.43  121.24
  13  -5   7   87.95   50.53
 -13   5   7   80.04   83.78
 -13   6  -7 -112.97   84.49
  13  -6   7   -9.49   54.76
  13  -6   7    3.14  131.43
  14   7  -7  -39.03   52.41
  14   6  -7 -194.85  126.19
  14   6  -7    2.76   47.90
 -14  -6   7   36.84   28.79
  14   5  -7  -69.86  125.01
  14   5  -7  -13.93   50.67
 -14  -5   7  116.10  134.61
 -14  -5   7   13.57   27.77
  14   4  -7   45.16   54.84
  14   4  -7   13.49  135.31
 -14  -4   7  130.70  121.96
 -14  -4   7   28.68   28.11
  14   3  -7    8.55   49.40
  14   3  -7 -134.98  139.11
 -14  -3   7   20.60   28.53
 -14  -3   7   40.24  121.48
  14   2  -7  672.22  155.02
  14   2  -7  217.68   68.42
 -14  -2  -7  105.89   37.14
 -14  -2   7    8.01   38.44
 -14  -2   7    4.78  119.92
  14   1  -7  -43.71   62.90
 -14  -1  -7   -7.12   24.78
  14   1  -7 -125.68  156.48
 -14  -1   7   55.81   36.65
 -14  -1   7   30.96  100.72
  14   0  -7 -240.85   82.82
 -14   0   7  -16.85   96.13
 -14   0   7  -39.53   40.15
  14  -1  -7   63.20   61.88
  14  -1  -7    3.59  155.69
 -14   1   7  -85.72   98.40
  14  -2  -7  137.16   70.46
 -14   2   7  116.49   93.98
  14  -3  -7  -57.80   66.36
 -14   3   7  -53.55   92.92
  14  -4  -7   38.02   71.97
  14  -4  -7    3.70  148.15
 -14   4   7  157.50   89.83
  14  -5  -7 -359.71  147.62
 -14   5   7  -50.30   85.15
  15   6  -7  -21.32   54.37
  15   6  -7   11.26  141.15
 -15  -6   7 -173.17  151.24
 -15  -6   7   12.50   30.77
  15   5  -7  -40.07   57.97
  15   5  -7    3.67  139.73
 -15  -5   7   -6.15  140.55
 -15  -5   7  -30.15   27.09
  15   4  -7  119.20  150.10
  15   4  -7  -37.28   57.04
 -15  -4   7  -49.55   28.93
 -15  -4   7   23.53  135.65
  15   3  -7  -64.93  152.19
  15   3  -7   34.63   60.36
 -15  -3   7    2.87   30.16
  15   3   7    3.10   50.75
 -15  -3   7    5.60  133.24
  15   2  -7 -105.43   63.23
  15   2  -7  138.41  153.97
 -15  -2  -7    2.75   26.51
 -15  -2   7 -115.44  121.06
  15   2   7 -125.61   54.90
 -15  -2   7   -8.90   30.17
 -15  -1  -7    5.20   23.26
  15   1  -7    3.34   63.32
  15   1  -7  167.69  163.22
 -15  -1  -7   -6.04  143.07
  15   1   7   63.06  116.71
 -15  -1   7   18.86   37.16
  15   1   7  -30.10   57.29
 -15  -1   7 -134.23  114.70
 -15   0  -7  -32.65  128.19
 -15   0  -7   -2.45   23.73
  15   0  -7 -112.73  165.40
  15   0  -7   -3.37   67.50
 -15   0   7 -160.42  106.22
  15   0   7   71.34   55.72
  15   0   7  -97.38  121.10
 -15   0   7    3.15   38.07
 -15   1  -7 -113.68  117.05
 -15   1  -7  -18.62   24.19
  15  -1  -7  109.90  162.10
  15  -1  -7   -6.99   64.57
  15  -1   7  109.14   58.83
 -15   1   7   -3.24   31.38
 -15   1   7   85.60  102.79
  15  -1   7  -69.38  126.28
 -15   2  -7 -165.98  106.97
 -15   2  -7  -18.16   22.70
  15  -2  -7   56.70   71.43
 -15   2   7   22.32   94.76
  15  -2   7  -38.89   55.81
  15  -2   7   12.79  129.10
  15  -3  -7   67.29   70.04
 -15   3  -7  -77.77  100.79
 -15   3  -7   42.89   24.77
  15  -3   7   36.87   60.32
 -15   3   7 -181.88   93.48
  15  -3   7 -176.10  134.68
 -15   4  -7   16.90   25.21
 -15   4  -7  -69.97   91.15
  15  -4  -7   48.90  164.38
  15  -4  -7  141.55   76.55
 -15   4   7   18.59   95.67
  15  -4   7  -37.97   53.18
  15  -4   7  -69.88  138.15
 -15   5  -7  -12.24   24.45
 -15   5  -7  -85.52   91.21
  15  -5  -7   32.87  164.18
 -15   5   7    9.93  103.05
  15  -5   7    3.44   62.68
  15  -5   7    3.52  152.04
 -15   6  -7   56.00   29.14
 -15   6  -7   72.08   98.90
  16   6  -7  -16.52  159.03
  16   6  -7  -41.02   60.54
 -16  -6   7  -20.71   32.39
 -16  -6   7    7.11  162.94
  16   5  -7    8.10  161.09
  16   5  -7   38.10   64.60
 -16  -5   7    3.35   32.03
 -16  -5   7 -163.18  155.29
  16   4  -7  227.68   72.79
  16   4  -7  180.53  173.21
 -16  -4   7   -9.76   37.85
 -16  -4   7  349.38  163.21
  16   3  -7 -208.93  169.54
  16   3  -7 -247.03   70.62
 -16  -3   7   16.01   33.53
 -16  -3   7  100.30  139.73
  16   2  -7  440.85  176.23
  16   2  -7    3.62   69.11
 -16  -2  -7  -12.00   26.72
 -16  -2  -7  294.48  185.30
 -16  -2   7   -6.59   31.79
  16   2   7    3.37   62.30
 -16  -2   7   29.49  133.70
  16   1  -7    7.32   66.40
 -16  -1  -7    5.71   29.47
  16   1  -7   74.56  170.14
 -16  -1  -7   -6.66  159.66
 -16  -1   7   -3.48   37.79
  16   1   7   20.17   64.84
 -16  -1   7   16.80  123.54
  16   1   7 -214.13  128.77
 -16   0  -7   35.18   29.13
 -16   0  -7   73.32  155.01
  16   0  -7    4.24  168.73
  16   0  -7 -122.95   70.91
 -16   0   7    5.22  114.62
  16   0   7 -125.97  126.71
 -16   0   7   -3.54   38.48
  16   0   7  -77.80   60.82
 -16   1  -7  -10.30   25.23
 -16   1  -7  -61.06  138.93
  16  -1  -7    7.72   64.89
  16  -1  -7   -4.27  180.40
 -16   1   7 -247.03  110.27
  16  -1   7 -252.54  139.64
  16  -1   7   -6.75   63.59
 -16   1   7  -18.08   39.39
 -16   2  -7   42.76   25.42
  16  -2  -7  -66.70   74.14
 -16   2  -7   84.11  116.83
  16  -2   7   38.00   61.38
 -16   2   7 -114.30  108.71
  16  -2   7 -113.06  140.04
 -16   3  -7  -43.64   27.84
 -16   3  -7  -91.68  116.18
  16  -3  -7    4.35   73.64
  16  -3   7 -199.61  151.32
  16  -3   7   34.21   63.28
 -16   3   7  -45.28  109.69
  16  -4  -7    4.55   87.71
  16  -4  -7  524.62  191.45
 -16   4  -7  229.33  118.73
 -16   4  -7   59.33   46.87
  16  -4   7  602.14   87.79
 -16   4   7  163.22  116.42
 -16   5  -7   -5.46   29.31
 -16   5  -7  132.81  103.07
  16  -5  -7    4.52  190.51
  16  -5   7 -258.15  168.43
 -16   5   7 -113.69  113.82
  16  -5   7   30.33   68.79
  17   6  -7   -7.58   66.94
 -17  -6   7  -15.35   37.50
 -17  -6   7    7.85  187.92
  17   5  -7  -22.26  168.42
  17   5  -7   79.98   72.01
 -17  -5   7   44.73   40.71
 -17  -5   7   15.27  179.12
  17   4  -7 -252.71  180.00
  17   4  -7   77.19   68.63
 -17  -4   7   36.53  168.80
 -17  -4   7   29.08   37.65
  17   3  -7   13.70  178.32
  17   3  -7    3.94   71.50
 -17  -3   7    6.91  164.81
 -17  -3   7    3.57   34.39
 -17  -2  -7  231.92   46.16
 -17  -2  -7    8.12  202.79
  17   2  -7 -264.36  201.85
  17   2  -7   91.31   76.08
 -17  -2   7  -12.95  152.48
 -17  -2   7   10.77   36.46
  17   1  -7  113.40   78.61
 -17  -1  -7   -7.44  181.40
  17   1  -7  213.29  187.64
 -17  -1  -7  -34.42   32.24
 -17  -1   7   86.25  137.07
  17   1   7 -117.31  144.88
  17   1   7   45.29   73.37
 -17  -1   7  -11.28   37.95
 -17   0  -7  -33.87  164.47
  17   0  -7 -169.52   79.68
 -17   0  -7   41.54   30.50
  17   0  -7    4.60  188.11
 -17   0   7  -27.70   40.10
 -17   0   7   -5.83  132.81
  17   0   7    3.75   71.64
  17   0   7 -249.91  144.69
 -17   1  -7   24.37  152.08
  17  -1  -7   88.09   82.05
 -17   1  -7   39.88   29.26
 -17   1   7   33.88  126.68
  17  -1   7 -131.02   68.85
 -17   1   7  -32.23   43.32
  17  -1   7 -181.22  154.04
 -17   2  -7 -239.98  135.01
  17  -2  -7  -50.61   78.85
 -17   2  -7   27.72   31.59
  17  -2   7   11.44   65.90
  17  -2   7  139.35  159.90
 -17   2   7  -44.31  123.52
 -17   3  -7   -8.49   28.09
 -17   3  -7  156.59  124.60
  17  -3  -7    4.74  194.30
  17  -3  -7   95.69   87.38
  17  -3   7 -123.68  159.82
  17  -3   7   60.97   70.62
 -17   3   7   39.05  118.22
  17  -4  -7 -189.27   83.20
 -17   4  -7   -2.95   30.93
 -17   4  -7 -129.88  119.85
  17  -4  -7 -178.56  215.54
  17  -4   7   40.24   74.67
 -17   4   7 -101.44  119.44
  17  -4   7   23.78  163.70
 -17   5  -7   12.13   30.29
  17  -5  -7 -210.43   87.12
 -17   5  -7   -4.73  103.78
  17  -5  -7  -49.10  203.65
 -17   5   7  307.97  124.46
  18   6  -7    4.24   74.90
 -18  -6   7   59.54   43.18
 -18  -6   7 -193.00  203.26
  18   5  -7 -274.77   90.97
  18   5  -7 -614.89  214.33
 -18  -5   7  -54.20   44.38
 -18  -5   7 -392.89  205.13
  18   4  -7  -57.05   82.65
 -18  -4   7  -28.55   35.86
 -18  -4   7  -98.23  200.89
  18   3  -7  -17.82   81.59
  18   3  -7 -104.99  207.67
 -18  -3   7 -293.11  181.60
 -18  -3   7  -15.98   39.19
 -18  -2  -7  186.77  214.29
 -18  -2  -7   71.13   39.10
  18   2  -7  279.44  201.99
  18   2  -7 -131.31   82.36
  18   2   7  124.10   81.52
 -18  -2   7   56.09   43.52
 -18  -2   7    7.29  170.60
 -18  -1  -7   74.65  214.89
  18   1  -7   22.88   80.60
 -18  -1  -7  -34.24   32.38
  18   1  -7    4.94  201.70
  18   1   7    8.54   77.33
  18   1   7 -236.63  154.99
 -18  -1   7  -37.53   42.71
 -18  -1   7 -123.96  158.43
 -18   0  -7  -52.97  193.91
  18   0  -7 -126.88   87.56
 -18   0  -7   36.02   32.47
  18   0  -7  164.28  204.73
  18   0   7   -4.09  158.38
 -18   0   7  196.30  159.11
 -18   0   7  -48.75   47.15
  18   0   7   94.41   78.43
  18  -1  -7   -4.88   89.60
 -18   1  -7 -102.55  164.42
 -18   1  -7   12.59   29.12
 -18   1   7  170.64  142.37
  18  -1   7  -12.76   76.55
  18  -1   7    4.15  165.14
 -18   2  -7   -9.19   31.44
 -18   2  -7    6.14  145.57
  18  -2  -7    5.09   91.35
  18  -2   7 -122.58  171.26
  18  -2   7   21.19   79.44
 -18   2   7   61.90  136.05
  18  -3  -7   15.82   97.17
 -18   3  -7  -24.43   30.73
 -18   3  -7   33.79  135.03
  18  -3  -7  226.68  223.23
  18  -3   7 -108.92  183.87
 -18   3   7 -347.24  136.61
 -18   3   7  150.01   54.12
  18  -3   7   13.09   81.29
 -18   4  -7  -12.69   33.89
  18  -4  -7   -5.46   98.04
 -18   4  -7  -58.76  136.30
  18  -4   7 -318.40  188.75
  18  -4   7   80.49   85.67
 -18   4   7 -305.72  144.65
  18  -5  -7 -347.99  232.17
  18  -5  -7 -104.16  102.33
 -18   5   7 -352.18  152.35
  19   6  -7 -253.46   93.18
 -19  -6   7  383.50  238.39
  19   5  -7 -233.84  219.50
  19   5  -7  -99.55   87.39
 -19  -5   7   -4.65   50.80
 -19  -5   7  -75.92  237.65
  19   4  -7   -4.83   81.54
  19   4  -7   64.69  220.00
 -19  -4   7  117.25  220.02
 -19  -4   7    4.54   48.04
  19   3  -7   16.38  222.63
  19   3  -7   14.64   90.28
 -19  -3   7  242.77  203.90
 -19  -3   7  103.08   48.49
 -19  -2  -7   34.91   36.77
 -19  -2  -7  -19.79  235.43
  19   2  -7 -121.83  223.28
  19   2  -7 -243.35   89.57
  19   2   7 -117.70   84.05
 -19  -2   7   49.18   46.48
 -19  -2   7   90.69  197.32
  19   1  -7 -249.34  227.06
 -19  -1  -7 -155.39  233.25
  19   1  -7   15.16   92.48
 -19  -1  -7  -22.51   35.42
 -19  -1   7    7.74  181.35
 -19  -1   7  -18.56   45.71
  19   1   7    4.71   90.32
  19   1   7  223.48  174.02
  19   0  -7 -140.89  104.51
 -19   0  -7  -14.43   34.53
  19   0  -7 -130.66  226.46
 -19   0  -7   74.69  205.59
 -19   0   7    7.37  167.23
  19   0   7  -42.62   83.44
 -19   0   7  -63.68   51.72
  19   0   7 -228.66  172.81
 -19   1  -7  -75.07  182.82
 -19   1  -7   24.43   36.05
  19  -1  -7 -259.14   98.06
  19  -1   7  227.12  185.35
 -19   1   7  226.91  166.11
  19  -1   7   63.34   87.95
  19  -2  -7   67.46  105.58
  19  -2  -7 -127.83  237.78
 -19   2  -7  -33.94   33.63
 -19   2  -7  -13.66  163.23
  19  -2   7 -120.21  188.76
  19  -2   7  -43.34   90.34
 -19   2   7  -20.89  153.29
 -19   3  -7  151.33  156.60
 -19   3  -7   37.11   35.87
  19  -3  -7  324.53  251.23
  19  -3  -7   11.67  106.61
  19  -3   7 -196.02  204.79
 -19   3   7  -96.96   60.74
  19  -3   7 -107.11   90.20
 -19   3   7  109.84  152.85
 -19   4  -7   45.34   38.03
  19  -4  -7  119.89  106.44
  19  -4  -7  216.01  243.73
 -19   4   7  306.95  152.45
 -19   4   7  -33.82   59.33
 -19   5   7  108.43  152.25
 -20  -2  -7   87.69  264.30
  20   2   7   10.62   94.35
 -20  -1  -7  -20.30  251.70
 -20  -1  -7   37.05   41.68
  20   1   7    5.37   97.22
  20   1   7 -195.54  188.22
 -20   0  -7    9.24  225.31
 -20   0  -7    7.99   38.92
  20   0   7   83.64  189.28
  20   0   7  -10.72   97.82
 -20   1  -7  -15.41   35.89
 -20   1  -7  126.64  202.20
  20  -1   7   19.72  195.51
  20  -1   7   37.40   94.39
 -20   2  -7    7.55   35.09
 -20   2  -7   15.30  188.14
  20  -2   7   -5.33   98.50
  20  -2   7    5.06  206.57
 -20   3  -7   33.61   38.99
 -20   3  -7   83.82  172.63
  20  -3   7   81.19   98.79
   0   0  -8  983.95  243.61
   0   0   8  848.54  206.28
   1   0  -8   28.36   38.78
   0   1  -8    6.88   35.11
  -1   0  -8  -14.85   39.77
  -1   0   8   -1.60   22.82
   0  -1   8   10.63   19.55
   1   0   8   -1.91   26.78
   0  -1   8   -0.77   14.30
   1   0   8    4.70   15.43
   1   1  -8  138.19   45.37
   1   1  -8   90.66   34.17
  -1   1  -8  110.45   48.83
   1  -1   8  126.29   30.50
  -1  -1   8  116.60   30.26
   1  -1   8  102.32   34.60
  -1  -1   8  137.76   33.70
   2   1  -8    3.92   35.04
   2   1  -8   14.76   23.97
  -1   2  -8   -6.22   40.12
   2   1  -8    1.99   11.26
  -2  -1   8   -9.34   18.85
   1  -2   8   -0.80   15.68
  -2  -1   8   -3.29   12.27
  -2  -1   8    1.32   14.03
   1  -2   8   12.83   18.44
   0   2  -8   -5.64   36.21
  -2   0  -8   47.46   44.89
   2   0  -8   -6.38   21.08
   0  -2   8   -3.17   16.38
   0  -2   8    2.19   14.26
  -2   0   8  -22.95   22.60
   2   0   8   -1.01   17.59
  -2   1  -8   -6.84   42.61
   1   2  -8   -1.23    6.62
   1   2  -8   -7.15   35.95
   1   2  -8   -1.99   16.13
  -1  -2   8    1.38    2.50
  -1  -2   8   -4.55    9.53
   2  -1   8    0.90   17.02
  -1  -2   8   11.98   16.20
  -1  -2   8   14.64   14.45
  -2   2  -8   21.74   43.45
   2   2  -8    5.02    8.41
   2   2  -8   21.02   22.81
   2   2  -8    1.84   34.44
  -2  -2   8   16.07    4.49
   2  -2   8   27.86   17.17
  -2  -2   8   10.26   14.67
  -2  -2   8    3.65   14.23
  -2  -2   8   12.65   14.88
   3   2  -8   10.67    7.33
   3   2  -8    2.78   10.57
   3   2  -8    2.46   35.25
   3   2  -8   -5.79   30.45
  -3  -2   8   13.00   14.60
  -3  -2   8    6.56    5.06
  -3  -2   8   -1.69   20.02
  -3  -2   8   -3.25   13.48
   3   1  -8  460.01  117.63
   3   1  -8  418.15  131.78
   3   1  -8  788.66  140.23
  -3  -1   8  460.56  122.46
  -3  -1   8  511.76  119.64
  -3  -1   8  611.70  120.48
  -3   0  -8   37.18   50.22
   3   0  -8   -1.71   29.17
   3   0  -8   -9.11   15.35
   0   3  -8   14.45    8.91
  -3   0   8    2.53   24.07
   0  -3   8   11.60   13.74
   0  -3   8    3.14   15.93
   3   0   8   -1.09   19.55
  -3   0   8    9.57   15.29
   1   3  -8  507.87  112.35
  -1  -3   8  463.46  112.67
   3  -1   8  380.05  110.94
  -1  -3   8  632.12  110.14
   2   3  -8   15.22    8.83
   2   3  -8   14.67   25.94
   2   3  -8    8.87    8.35
  -3   2  -8   13.62   14.73
  -3   2  -8   -0.30    3.36
   3  -2   8    9.92    6.81
  -2  -3   8    5.94   16.52
  -2  -3   8    9.94    4.52
   3  -2   8    3.84   19.08
  -2  -3   8   -8.37   12.68
  -3   3  -8 2848.20  731.76
   3   3  -8 2760.84  632.73
   3   3  -8 2183.71  676.58
   3   3  -8 2700.13  600.93
  -3   3  -8 3125.73  650.06
  -3  -3   8 2988.73  588.33
   3  -3   8 3141.10  644.77
  -3  -3   8 2372.13  634.55
   3  -3   8 2606.85  695.08
   3  -3   8 3099.93  613.89
  -3  -3   8 2912.56  614.83
   4   3  -8  574.41  137.28
   4   3  -8  598.21  120.49
   4   3  -8  549.73  125.91
   3  -4   8  527.52  147.35
  -4  -3   8  612.36  122.51
  -4  -3   8  539.40  115.99
   3  -4   8  532.88  123.04
  -4  -3   8  470.00  126.86
   3  -4   8  512.99  127.71
   4   2  -8  504.68  104.69
   4   2  -8  464.49  118.03
   4   2  -8  499.18  126.61
   4   2  -8  522.66   99.76
  -4  -2   8  444.08  104.29
   2  -4   8  469.64  107.98
  -4  -2   8  397.36  112.30
  -4  -2   8  442.80   97.10
   2  -4   8  398.20  123.33
  -4  -2   8  426.09  106.45
   4   1  -8   -1.80   39.14
  -1   4  -8    5.44   11.84
   4   1  -8    5.74   14.64
   4   1  -8   18.39   39.96
  -4  -1   8    6.18   17.13
  -4  -1   8   11.74   21.37
  -4  -1   8   15.04   15.83
   1  -4   8    1.94   16.70
   4   0  -8 3220.40  679.62
   4   0  -8 2964.70  741.28
  -4   0   8 3428.46  696.15
  -4   0   8 2590.07  700.29
  -4   1  -8    9.99    5.10
  -1  -4   8    0.84   19.06
  -4   1   8   -1.30   19.29
   4  -1   8    9.29    9.13
   4  -1   8   -1.80   32.69
  -4   2  -8  545.93  137.93
   2   4  -8  507.52  110.14
  -4   2  -8  492.72  112.09
   4  -2   8  610.03  111.49
   4  -2   8  427.93  123.41
  -2  -4   8  408.72  111.90
  -2  -4   8  442.61  106.40
   4  -2   8  461.64  105.93
  -4   3  -8  689.31  161.58
   3   4  -8  575.69  131.00
  -4   3  -8  632.34  134.63
   3   4  -8  578.12  123.80
  -3  -4   8  534.54  124.66
   4  -3   8  537.59  127.83
   4  -3   8  565.35  128.42
  -3  -4   8  531.92  131.74
   4  -3   8  574.19  131.05
   4  -3   8  500.00  143.49
   4   4  -8  529.77  120.26
   4   4  -8  713.72  134.11
   4  -4   8  445.88  135.54
  -4  -4   8  465.70  112.25
   4  -4   8  406.97  116.52
  -4  -4   8  680.63  121.69
   4  -4   8  447.75  120.53
   5   4  -8   71.68   46.71
  -4   5  -8   40.33   16.86
   4  -5   8   20.58   30.35
   4  -5   8   39.37   23.48
  -5  -4   8   34.89   11.74
  -5  -4   8   31.11   20.61
   4  -5   8   41.91   35.94
   5   3  -8 1095.94  235.61
   3  -5   8 1001.27  277.67
  -5  -3   8  921.29  242.63
   3  -5   8 1155.78  241.33
   3  -5   8 1145.89  232.82
  -2   5  -8   77.21   24.98
   5   2  -8  104.98   22.32
   5   2  -8   91.69   42.91
  -5  -2   8  102.88   24.41
   2  -5   8   87.94   28.95
  -5  -2   8  110.85   27.37
   2  -5   8   94.52   34.50
  -5  -1   8  817.06  198.76
   1  -5   8  895.03  198.54
   1  -5   8  801.76  190.56
   0   5  -8    8.00   12.46
   5   0  -8   10.23   46.91
  -5   0  -8   -1.95   59.42
  -5   0   8   33.48   23.51
   5   0   8    1.45   12.06
   5   0   8   44.84   42.72
   0  -5   8   -2.85   17.22
   5   0   8   94.16   26.70
   0  -5   8    4.83   21.56
   1   5  -8 1024.88  215.56
   5  -1  -8  857.43  246.55
   5  -1  -8 1077.31  226.85
  -5   1  -8 1200.98  263.37
   5  -1   8  990.83  249.95
   5  -1   8  961.10  224.57
   5  -1   8  965.51  222.45
  -1  -5   8  987.04  217.52
  -5   2  -8  105.68   32.73
  -5   2  -8   96.30   21.14
  -5   2  -8   76.04   71.09
   5  -2   8   92.51   36.03
   5  -2   8  114.98   40.37
   5  -2   8   93.07   23.39
   5  -2   8   45.09   31.95
  -5   3  -8 1013.38  280.33
  -5   3  -8 1145.24  223.37
  -5   3  -8 1101.50  242.71
   5  -3   8  933.79  258.66
   5  -3   8 1150.42  229.43
   5  -3   8  978.12  230.16
   5  -3   8  923.71  235.50
  -5   4  -8   27.74   26.22
  -5   4  -8   27.94   17.69
   5  -4   8   31.14   39.96
   5  -4   8   44.87   20.34
   5  -4   8   59.59   30.73
   5  -4   8   88.21   26.12
   5   5  -8  575.48  155.50
   5  -5   8  667.30  157.93
   5  -5   8  786.41  183.28
   5  -5   8  720.40  150.58
   6   5  -8  145.28   47.91
  -5   6  -8  249.29   45.80
  -6  -5   8  180.34   42.94
   5  -6   8  122.86   49.40
   5  -6   8  337.35   71.51
   5  -6   8  179.88   57.77
   6   4  -8  416.90   83.83
  -4   6  -8  282.91   78.59
   4  -6   8  391.46   81.91
   4  -6   8  327.80   87.07
  -6  -4   8  352.50   75.93
  -6  -4   8  370.84   85.38
   6   3  -8 1277.60  266.73
   6   3  -8 1081.14  310.39
   6   3  -8 1470.84  281.40
  -6  -3   8  925.55  248.21
  -6  -3   8 1066.05  270.71
   3  -6   8 1251.15  265.54
   6   2  -8  620.04  123.46
   6   2  -8  454.31  104.95
  -2   6  -8  493.91  103.39
   6   2  -8  439.62  107.11
   6   2  -8  453.26  122.76
   2  -6   8  497.80  105.25
  -6  -2   8  439.35  109.44
   2  -6   8  466.58  108.40
  -6  -2   8  600.44  115.75
   6   1  -8  103.54   24.94
  -1   6  -8  118.01   29.03
   6   1  -8  142.83   61.89
   6   1  -8  121.40   32.51
   1  -6   8  118.15   31.59
  -6  -1   8  175.82   42.15
   6   1   8  166.38   63.84
  -6  -1   8   98.02   27.27
   1  -6   8  125.44   35.64
  -6   0  -8   98.92   80.31
   6   0  -8   32.95   55.00
   0   6  -8   80.70   20.08
   6   0  -8   46.85   24.81
  -6   0   8   57.84   32.39
   6   0   8   39.64   32.50
   6   0   8   56.48   47.22
  -6   0   8   66.08   24.15
   6  -1  -8  120.97   41.01
  -6   1  -8  163.60   78.67
   6  -1  -8  167.16   65.75
   6  -1   8  157.02   42.93
   6  -1   8   67.95   48.47
  -6   1   8  198.36   43.56
   6  -2  -8  522.37  111.21
  -6   2  -8  514.20  112.82
   6  -2  -8  561.98  123.68
  -6   2  -8  431.46  142.53
   6  -2   8  414.08  106.04
  -6   2   8  516.78  115.35
   6  -2   8  539.22  110.59
   6  -2   8  504.55  111.07
  -6   3  -8 1171.63  239.94
  -6   3  -8  965.16  303.82
  -6   3  -8  791.81  260.60
   6  -3   8 1054.48  252.59
   6  -3   8 1168.16  246.34
   6  -3   8 1257.73  245.43
   6  -3   8 1230.60  279.73
  -6   4  -8  228.23   89.74
  -6   4  -8  439.04   74.08
  -6   4  -8  325.12  128.02
   6  -4   8  321.48   77.33
   6  -4   8  250.07   78.47
   6  -4   8  339.70   83.25
  -6   5  -8  213.99   43.56
   6  -5   8  134.70   47.79
   6  -5   8  180.77   54.93
   6   6  -8   -2.17   17.90
  -6   6  -8   -2.98   19.07
   6  -6   8   37.08   27.09
   6  -6   8   22.57   40.36
  -6   7  -8   19.98   21.03
   7   6  -8   -8.85   21.56
   6  -7   8  -10.70   41.36
   6  -7   8  -14.34   29.08
   6  -7   8   42.62   63.51
   7   5  -8    6.23   22.00
  -5   7  -8   -1.60   20.62
   7   5  -8    8.60   61.23
   5  -7   8    6.57   39.22
  -7  -5   8   14.74   12.46
   5  -7   8   13.53   27.16
  -4   7  -8  331.96  106.14
   7   4  -8  540.33  130.55
   7   4  -8  487.80  113.09
  -7  -4   8  487.40  102.14
   4  -7   8  556.09  115.49
   7   3  -8  315.61   70.34
   7   3  -8  304.08   89.16
  -7  -3   8  299.90   63.87
  -7  -3   8  323.46   83.46
   3  -7   8  282.99   73.66
   7   2  -8  642.96  168.30
   7   2  -8  684.33  148.93
  -7  -2   8  597.23  159.46
  -7  -2   8  736.35  139.57
   7   1  -8  267.47   82.51
   7   1  -8  519.14  115.45
  -7  -1   8  436.30   91.82
   7   1   8  296.87  106.51
  -7   0  -8 -287.90  115.21
  -7   0  -8  -14.55   12.65
   7   0  -8  -20.08   25.02
   7   0  -8  -19.01   71.99
   7   0   8 -124.76   42.79
   7   0   8  -31.03   19.34
  -7   0   8    7.17   37.61
   7   0   8  -24.80   54.10
  -7   1  -8  250.84   71.14
   7  -1  -8  456.95  107.71
   7  -1  -8  306.88   77.67
   7  -1   8  329.04   87.78
  -7   1   8  391.63   85.91
   7  -2  -8  662.08  133.47
  -7   2  -8  107.18  190.04
   7  -2  -8  767.59  154.65
  -7   2  -8  736.08  124.43
  -7   2   8  668.42  141.72
   7  -2   8  480.34  153.29
   7  -2   8  591.95  132.94
   7  -2   8  357.53  133.31
  -7   3  -8  288.18   59.68
  -7   3  -8  258.10   63.02
  -7   3  -8  393.24  111.98
   7  -3   8  259.98   68.04
   7  -3   8  275.60   70.32
   7  -3   8  263.34   84.70
  -7   4  -8  456.63  111.60
  -7   4  -8  568.95  125.40
  -7   4  -8  531.45  163.89
   7  -4   8  514.18  121.83
   7  -4   8  489.22  138.88
   7  -4   8  484.60  115.58
   7  -4   8  549.96  117.37
  -7   5  -8   -5.67   19.04
  -7   5  -8   12.10   35.73
   7  -5   8    4.28   26.65
   7  -5   8  -18.30   36.49
   7  -5   8   41.58   60.93
   7  -5   8    9.58   26.29
  -7   6  -8    7.80   18.88
   7  -6   8   20.59   44.81
   7  -6   8   28.56   66.07
   7  -6   8    1.55   29.81
  -7   7  -8  182.55   44.92
   7  -7   8  130.38   51.41
   7  -7   8  241.42   65.95
   7  -7   8  251.95   91.19
   7  -8   8    2.11   50.69
   8   6  -8   80.28   32.46
   8   5  -8  -57.95   67.01
   8   5  -8  -21.32   25.44
  -8  -5   8    4.42   13.02
   8   4  -8   -7.02   25.79
   8   4  -8  -27.00   65.18
  -8  -4   8    2.65   11.78
   8   3  -8  608.56  150.75
   8   3  -8  450.36  131.13
  -8  -3   8  675.79  147.67
   8   2  -8   25.51   67.94
   8   2  -8   24.44   26.73
  -8  -2   8    7.95   12.16
  -8  -2   8   31.56   47.08
   8   1  -8  265.51   89.77
   8   1  -8  225.14   54.79
   8   1   8  301.55   82.48
   8   1   8  224.62   53.81
  -8  -1   8  124.59   66.34
  -8   0  -8   99.81  103.14
   8   0  -8  131.25   41.11
   8   0  -8  189.93   83.66
  -8   0  -8  105.20   33.62
   8   0   8  192.83   63.34
  -8   0   8  129.22   53.10
   8   0   8  189.65   38.72
   8   0   8  148.21   48.33
   8   0   8  130.38   61.22
   8  -1  -8  218.08   89.38
   8  -1  -8  264.40   57.25
  -8   1  -8  286.58  110.11
  -8   1  -8  147.11   47.11
   8  -1   8  211.58   59.00
  -8   1   8  198.79   64.62
   8  -1   8  275.92   75.02
   8  -1   8  250.91   51.24
   8  -1   8  134.27   62.83
   8  -2  -8   21.92   72.00
  -8   2  -8    2.12   10.24
  -8   2  -8   -5.36   42.73
  -8   2  -8   17.68   92.03
   8  -2  -8   12.42   33.71
   8  -2   8   13.66   34.43
   8  -2   8  -16.56   55.41
  -8   2   8   11.09   40.63
   8  -2   8   -1.12   19.24
   8  -2   8   -3.44   35.16
   8  -3  -8  715.79  154.52
  -8   3  -8  778.00  183.01
  -8   3  -8  422.64  138.83
  -8   3  -8  570.87  125.90
   8  -3   8  529.00  130.92
   8  -3   8  423.67  128.20
   8  -3   8  591.35  133.67
   8  -3   8  657.07  153.62
  -8   3   8  620.17  141.59
  -8   4  -8    5.50   17.91
  -8   4  -8  -31.60   40.00
  -8   4  -8  -45.57  104.02
   8  -4   8  -19.18   29.05
   8  -4   8   -7.35   24.92
   8  -4   8   -2.91   59.21
   8  -4   8  -36.22   37.92
  -8   5  -8   11.92   21.17
  -8   5  -8  -17.46   43.36
   8  -5   8  -23.84   31.34
   8  -5   8    2.98   29.71
   8  -5   8  -24.37   41.86
   8  -5   8    7.98   65.15
  -8   6  -8  111.10   31.54
   8  -6   8  103.45   50.50
   8  -6   8   60.07   38.77
   8  -6   8  103.11   76.43
  -8   7  -8   14.52   25.01
   8  -7   8   50.45   52.52
   8  -7   8   27.98   32.32
   8  -7   8  -12.06   84.11
   8  -8   8  358.98  100.46
   9   7  -8  258.27   65.75
   9   6  -8  116.61   36.22
  -9  -6   8   68.06   24.87
   9   5  -8   -6.46   28.89
   9   5  -8  -49.23   77.74
  -9  -5   8   -6.51   14.02
   9   4  -8   49.76   29.97
   9   4  -8   99.31   74.75
  -9  -4   8   35.91   17.05
   9   3  -8   27.82   76.96
   9   3  -8   30.63   29.75
  -9  -3   8   52.46   16.34
  -9  -3   8   37.99   57.68
   9   2  -8   -3.28   29.30
   9   2  -8  -76.63   80.46
  -9  -2   8    3.04   14.02
  -9  -2   8  -15.48   55.03
   9   1  -8   20.41   29.47
   9   1  -8   60.38   86.69
  -9  -1  -8   38.11   14.67
   9   1   8    3.08   62.42
  -9  -1   8   -2.46   53.89
   9   1   8   44.63   24.27
   9   0  -8    5.37   31.35
  -9   0  -8   10.83   12.90
  -9   0  -8   44.47  102.39
   9   0  -8 -120.66   88.73
   9   0   8  -20.09   54.22
  -9   0   8   -4.73   49.73
   9   0   8    5.62   23.28
   9   0   8   96.60   60.35
   9   0   8  -12.24   41.46
  -9   1  -8  -34.05  100.10
   9  -1  -8    1.98   31.64
  -9   1  -8    4.63   54.16
  -9   1  -8    4.94   11.37
   9  -1  -8   13.40   81.00
   9  -1   8   18.22   60.84
   9  -1   8   -2.03   40.58
   9  -1   8    6.59   23.89
  -9   1   8   14.16   47.10
   9  -1   8   23.53   38.49
   9  -2  -8  -28.88   83.36
  -9   2  -8  -53.96   98.25
  -9   2  -8   -3.57   11.09
   9  -2  -8   31.37   37.31
  -9   2  -8   12.59   49.24
  -9   2   8    7.44   45.92
   9  -2   8   -2.68   23.55
   9  -2   8   -7.11   39.22
   9  -2   8   -5.90   39.34
   9  -2   8   31.61   62.01
   9  -3  -8   18.12   79.08
   9  -3  -8   29.11   40.78
  -9   3  -8   13.75   14.04
  -9   3  -8   27.60   46.67
  -9   3  -8   73.89  110.65
  -9   3  -8   45.07   22.04
   9  -3   8   43.42   25.55
   9  -3   8   13.91   33.11
   9  -3   8   62.51   64.51
  -9   3   8  116.83   51.52
   9  -3   8   71.60   37.85
  -9   4  -8   36.44   20.58
  -9   4  -8   54.08   47.26
  -9   4  -8  120.73  116.83
   9  -4   8   25.73   27.84
   9  -4   8  -35.09   66.25
   9  -4   8  -10.50   29.72
   9  -4   8   54.83   40.47
  -9   5  -8   11.04   21.45
  -9   5  -8   16.41  114.77
  -9   5  -8   24.05   48.15
   9  -5   8  -21.75   33.30
   9  -5   8   -1.95   32.78
   9  -5   8  -22.48   45.64
   9  -5   8   29.06   74.11
  -9   6  -8   86.93   28.99
  -9   6  -8   80.27   56.88
   9  -6   8   60.68   51.46
   9  -6   8   13.91   90.71
   9  -6   8   55.19   35.21
  -9   7  -8  225.66   58.19
   9  -7   8  261.48   78.88
   9  -7   8  224.40   63.98
   9  -8   8  -35.83   61.41
  10   7  -8   70.07   36.93
  10   6  -8   81.73   39.63
 -10  -6   8  111.81   28.37
  10   5  -8   79.98   42.55
  10   5  -8    9.05   99.62
 -10  -5   8  140.35   29.78
  10   4  -8   63.53   88.64
  10   4  -8  -30.68   32.87
 -10  -4   8   26.29   76.55
 -10  -4   8    3.36   16.27
  10   3  -8  123.01   86.00
  10   3  -8   -9.26   34.27
 -10  -3   8   39.96   71.16
 -10  -3   8    5.09   16.43
  10   2  -8  153.70   94.93
  10   2  -8   64.95   37.21
 -10  -2   8  126.47   67.54
 -10  -2   8   50.69   23.02
  10   2   8  103.20   34.95
  10   1  -8   21.12   35.67
  10   1  -8    2.41   94.03
 -10  -1  -8   42.72   15.96
 -10  -1   8   50.45   61.90
  10   1   8   -8.42   28.31
 -10  -1   8   -5.29   16.50
  10   1   8   34.32   67.72
  10   1   8  -21.08   62.87
 -10   0  -8  224.32   46.32
 -10   0  -8  163.70  125.61
  10   0  -8  135.00   56.93
  10   0  -8  254.10  109.98
 -10   0   8  181.60   74.53
  10   0   8   83.98   70.68
  10   0   8  321.68   86.19
  10   0   8  136.76   65.55
  10   0   8  262.60   54.45
  10  -1  -8  -85.27   98.09
 -10   1  -8   37.25   62.19
 -10   1  -8  -44.97  111.14
 -10   1  -8   18.10   14.18
  10  -1  -8    8.80   40.14
  10  -1   8   -1.70   44.21
  10  -1   8  -20.51   70.81
  10  -1   8   12.45   46.05
 -10   1   8   37.01   54.32
  10  -1   8  -30.95   29.16
 -10   2  -8   79.91   62.83
  10  -2  -8   78.55   45.02
 -10   2  -8  178.30  113.99
  10  -2  -8  205.96  100.69
 -10   2  -8   99.67   22.75
  10  -2   8   34.59   44.63
 -10   2   8   85.15   58.31
  10  -2   8   49.63   33.50
  10  -2   8  126.89   72.78
  10  -2   8   68.21   42.52
  10  -3  -8   12.49   92.60
 -10   3  -8  -25.15   13.52
 -10   3  -8   -5.22  111.63
 -10   3  -8   -2.26   52.63
  10  -3  -8   10.66   44.69
 -10   3  -8   -1.48   21.84
  10  -3   8  -16.06   27.19
 -10   3   8   37.63   54.71
  10  -3   8   85.59   74.36
  10  -3   8   -7.65   39.12
  10  -3   8   -6.37   35.19
 -10   4  -8  -13.76   22.01
  10  -4  -8    2.53   92.13
 -10   4  -8   12.87   13.92
 -10   4  -8   40.48   51.03
 -10   4  -8  -44.10  121.77
  10  -4   8   -4.66   32.50
  10  -4   8  -27.12   30.78
  10  -4   8   -4.86   44.15
  10  -4   8  -22.72   78.48
 -10   5  -8  223.01  132.46
 -10   5  -8   77.30   62.80
 -10   5  -8  119.31   37.30
  10  -5   8  112.74   47.25
  10  -5   8  132.31   46.01
  10  -5   8  193.71   92.34
  10  -5   8  168.32   57.66
 -10   6  -8   37.80   61.62
 -10   6  -8  256.43  136.73
 -10   6  -8   51.97   32.38
  10  -6   8  106.48   45.29
  10  -6   8   42.64   96.15
  10  -6   8  105.82   41.59
  10  -6   8  105.61   56.97
 -10   7  -8   25.72   28.62
  10  -7   8   39.83   36.93
  10  -7   8   70.52   60.26
  10  -8   8  166.58   76.02
  11   7  -8    6.15   39.92
  11   6  -8  130.08   42.30
  11   6  -8  -13.10   91.42
 -11  -6   8   53.55   25.16
  11   5  -8   44.97   97.43
  11   5  -8  -17.99   37.95
 -11  -5   8   17.92   18.43
  11   4  -8  162.15   45.16
  11   4  -8   96.29  103.76
 -11  -4   8  103.53   89.31
 -11  -4   8   88.66   29.79
  11   3  -8  -70.04  101.56
  11   3  -8  124.00   43.62
 -11  -3   8   84.08   26.78
 -11  -3   8  126.08   81.00
  11   2  -8 -109.48   48.79
 -11  -2   8 -127.00   84.35
  11   2   8   62.09   34.98
 -11  -2   8  -27.78   20.11
 -11  -1  -8  290.42   89.64
 -11  -1   8  800.39  127.40
  11   1   8  367.55  125.24
  11   1   8  387.01   96.99
 -11  -1   8  440.34   89.28
  11   1   8  459.30  116.29
 -11   0  -8   10.16   16.68
  11   0  -8  -72.18   48.12
 -11   0  -8    3.03  118.58
  11   0   8  -52.45   79.61
  11   0   8  -12.04   53.66
 -11   0   8   87.20   71.02
  11   0   8   -1.80   30.69
 -11   1  -8  321.91   74.09
 -11   1  -8  324.26  153.87
 -11   1  -8  302.83  112.61
  11  -1   8  397.52   81.79
  11  -1   8  242.01   89.92
  11  -1   8  425.52  118.16
  11  -1   8  293.32   90.57
 -11   2  -8   28.69   15.04
 -11   2  -8  -11.07   66.84
  11  -2  -8  -68.26   52.53
 -11   2  -8   11.16   25.47
  11  -2  -8 -317.36  122.77
 -11   2  -8   56.48  120.84
 -11   2   8  -48.41   73.55
  11  -2   8   23.06   32.94
  11  -2   8   53.41   45.10
  11  -2   8   19.58   39.84
  11  -2   8  124.37   81.74
 -11   3  -8   45.00   26.19
 -11   3  -8  -27.58  126.58
 -11   3  -8   -2.57   65.29
  11  -3  -8  111.08   54.72
  11  -3  -8   19.39  109.12
 -11   3  -8   52.62   19.47
  11  -3   8   83.35   36.53
  11  -3   8   36.78   89.06
 -11   3   8   81.72   65.70
  11  -3   8   53.96   38.04
  11  -3   8   93.65   48.20
 -11   4  -8   50.34   63.33
 -11   4  -8   62.96   21.90
 -11   4  -8 -190.76  141.21
  11  -4  -8   16.83  104.09
 -11   4  -8  129.60   29.60
  11  -4   8   54.61   39.23
  11  -4   8   25.58   37.36
  11  -4   8   19.09   93.58
  11  -4   8  100.43   49.14
 -11   4   8  140.80   69.96
 -11   5  -8  -10.56   61.52
 -11   5  -8   45.05   25.34
 -11   5  -8  -62.48  141.02
  11  -5   8   11.31   96.80
  11  -5   8   60.93   52.07
  11  -5   8   18.37   36.69
  11  -5   8    2.31   39.01
 -11   6  -8   59.78   30.53
 -11   6  -8   64.12   65.11
 -11   6  -8  104.39  150.87
  11  -6   8  110.60   59.71
  11  -6   8  148.84  104.81
  11  -6   8   71.78   40.61
  11  -6   8   46.90   47.12
 -11   7  -8   78.37   31.53
  11  -7   8   64.43   66.91
  11  -7   8   50.65   41.33
  11  -8   8  -41.92   70.74
  12   5  -8  -38.35   42.03
 -12  -4   8  -78.74   99.13
  12   3  -8   79.97   43.96
  12   3  -8   -2.80  110.97
 -12  -3   8   10.69   22.66
 -12  -3   8  -55.41   94.55
  12   2  -8  346.95   83.45
  12   2  -8  298.39  143.45
  12   2   8  334.99   83.28
 -12  -2   8  304.27   71.63
 -12  -2   8  312.63  117.05
 -12  -1  -8  -28.21   19.95
  12   1  -8   14.39   42.28
  12   1  -8 -156.74  122.88
  12   1   8 -157.50   90.90
  12   1   8  -10.68   37.30
 -12  -1   8   77.23   78.97
 -12  -1   8   -8.98   24.57
 -12   0  -8  398.32  178.05
 -12   0  -8  636.93  132.40
  12   0  -8  743.79  141.60
  12   0  -8  567.66  194.42
  12   0   8  440.71  169.94
 -12   0   8  621.22  163.26
  12   0   8  663.20  141.62
 -12   1  -8   48.11   83.46
 -12   1  -8    5.18   17.38
  12  -1  -8  -54.24   46.51
  12  -1  -8 -159.84  127.17
  12  -1   8  -30.05   88.46
  12  -1   8  -18.43   37.33
 -12   1   8   49.33   70.15
 -12   2  -8  201.73   60.39
 -12   2  -8  236.95   99.01
  12  -2  -8  317.97   81.28
  12  -2   8  261.56   71.83
 -12   2   8  373.02   97.86
  12  -2   8  276.32  112.10
  12  -3  -8    6.43   57.14
 -12   3  -8    5.83   67.85
 -12   3  -8   34.05   19.71
  12  -3   8   15.91   90.71
  12  -3   8   87.59   39.47
 -12   3   8   -6.88   72.66
 -12   4  -8  -19.66   69.36
 -12   4  -8   16.50   18.81
  12  -4   8   40.32   97.09
  12  -4   8   18.10   42.89
 -12   5  -8   54.88   67.94
 -12   5  -8    9.97  153.65
 -12   5  -8  -16.36   27.00
 -12   5  -8   16.76   17.69
  12  -5   8  -22.86   43.81
  12  -5   8  142.83  108.90
 -12   6  -8   -1.94   27.11
 -12   6  -8   21.85   69.51
 -12   6  -8  -53.94  163.63
 -12   7  -8   39.12   31.77
 -12   7  -8  -73.35  181.90
  12  -7   8   66.67   66.50
  12  -8   8    2.69   70.87
  13   7  -8  -45.10   48.25
  13   6  -8 -246.77  123.39
  13   6  -8   -9.86   46.54
 -13  -6   8    2.59   23.63
  13   5  -8  109.53   53.59
  13   5  -8  521.47  131.99
 -13  -5   8 -121.60  123.41
 -13  -5   8   39.20   29.81
  13   4  -8   21.79  121.27
 -13  -4   8    7.05   24.66
  13   3  -8   76.04  131.95
 -13  -3   8   11.98   24.79
  13   2   8  -14.96   44.93
 -13  -1  -8  251.91   48.49
  13   1   8  145.09   61.92
  13   1   8  116.51  107.81
 -13   0  -8    8.23   20.05
 -13   0  -8    4.37  104.89
  13   0   8    9.42   41.91
  13   0   8 -186.12   96.22
 -13   1  -8  219.01   47.71
 -13   1  -8  180.23  103.62
  13  -1  -8  340.78  143.97
  13  -1   8  168.36  113.25
  13  -1   8  156.74   62.63
  13  -2  -8   33.83  132.93
 -13   2  -8   -1.82   19.43
 -13   2  -8   86.02   86.45
  13  -2   8  150.43  108.04
  13  -2   8    2.34   42.63
  13  -3  -8   74.38   58.73
  13  -3  -8  199.46  132.46
 -13   3  -8   -6.60   80.46
 -13   3  -8   48.92   22.85
  13  -3   8  -40.65   45.24
  13  -3   8   57.68  108.35
 -13   3   8  211.33   79.75
 -13   4  -8   20.49   20.20
  13  -4  -8    3.51   59.02
 -13   4  -8   53.19   75.08
  13  -4   8   78.95  111.01
  13  -4   8   27.81   45.71
 -13   4   8  103.91   82.78
 -13   5  -8   69.70   85.79
  13  -5   8  181.79   66.28
  13  -5   8  529.84  129.74
  14   7  -8 -135.06   53.38
  14   6  -8   11.08   49.30
  14   6  -8  -72.02  129.43
 -14  -6   8  -34.22   28.37
 -14  -6   8   45.12  130.17
  14   5  -8   28.13   54.28
  14   5  -8  198.62  137.33
 -14  -5   8   -5.45   25.19
 -14  -5   8   70.32  130.29
  14   4  -8  -25.59   54.18
  14   4  -8  -72.27  146.40
 -14  -4   8   41.50  124.44
 -14  -4   8  -50.01   23.91
  14   3  -8  -34.62   56.97
  14   3  -8  144.44  151.47
 -14  -3   8   19.79  115.75
 -14  -3   8   39.19   26.49
  14   2  -8 -141.83  157.51
  14   2  -8  -93.43   62.44
 -14  -2  -8    2.54   24.90
 -14  -2   8   32.62  107.98
 -14  -2   8  -19.52   31.11
  14   1  -8  -36.54   67.76
  14   1  -8   -7.15  156.94
 -14  -1  -8   -9.66   23.47
 -14  -1   8   -8.52   37.88
 -14  -1   8   13.33  103.45
  14   0  -8  122.62  160.36
  14   0  -8   61.81   70.93
 -14   0   8   -5.73   37.12
 -14   0   8  -29.26   96.99
  14  -1  -8 -241.01  160.81
 -14   1   8  -73.58   91.27
  14  -2  -8 -332.93  156.01
  14  -2  -8    3.50   62.22
 -14   2   8   -4.08   87.10
 -14   3  -8  -91.03   88.71
  14  -3  -8  -51.71   65.17
  14  -3  -8   -3.73  152.04
 -14   3   8   37.32   87.44
  14  -3   8   -2.68   49.70
  14  -4  -8   -3.83   65.32
 -14   4  -8    3.48   83.39
 -14   4   8   -4.35   85.43
  15   7  -8   30.74   56.47
  15   6  -8 -120.71  145.05
  15   6  -8    3.11   56.88
 -15  -6   8  -43.75  151.74
 -15  -6   8  -25.19   32.92
  15   5  -8  152.26  151.74
  15   5  -8   18.96   56.50
 -15  -5   8  -57.54   31.86
 -15  -5   8 -131.55  139.66
  15   4  -8  -70.51   60.17
  15   4  -8   71.81  144.61
 -15  -4   8 -133.64  137.79
 -15  -4   8   23.50   28.80
  15   3  -8    3.28   60.34
  15   3  -8 -104.87  163.38
 -15  -3   8  -20.44   26.14
 -15  -3   8 -266.02  130.41
 -15  -2  -8   16.58   24.20
  15   2  -8  -72.91   57.46
  15   2  -8   64.94  160.12
 -15  -2   8  -42.44   34.03
  15   2   8    3.02   53.29
 -15  -2   8  109.88  122.16
 -15  -1  -8   97.33  144.32
 -15  -1  -8  -13.16   26.43
  15   1  -8 -127.45   63.60
  15   1  -8   89.38  161.79
 -15  -1   8   25.43   36.03
 -15  -1   8  -44.94  112.69
  15   1   8  -69.46  118.33
  15   1   8  -63.85   55.95
 -15   0  -8  108.93  131.25
  15   0  -8 -244.65  170.01
 -15   0  -8   14.78   24.41
  15   0  -8   27.37   65.58
 -15   0   8   -4.67  106.58
 -15   0   8   38.65   36.16
  15   0   8   41.96   56.86
  15   0   8  254.30  121.86
 -15   1  -8  153.16  121.08
 -15   1  -8  -20.88   22.95
  15  -1  -8 -230.50  165.76
  15  -1  -8  -14.66   66.57
  15  -1   8 -186.96  119.65
  15  -1   8   -2.96   52.74
 -15   1   8   -4.55   99.38
 -15   1   8  -23.22   37.67
 -15   2  -8   24.49   23.15
  15  -2  -8   72.02  163.63
  15  -2  -8    3.85   68.08
 -15   2  -8  -75.92  105.88
  15  -2   8  140.31  123.38
  15  -2   8   24.03   54.72
 -15   2   8   18.08   96.85
 -15   3  -8    2.24   23.65
 -15   3  -8 -126.08   98.22
  15  -3  -8    4.04   72.41
  15  -3   8    3.06   56.96
  15  -3   8 -275.84  129.90
 -15   3   8 -182.77   98.53
 -15   4  -8    9.30   23.10
 -15   4  -8  -11.62   90.62
  15  -4  -8   37.61   72.18
  15  -4   8    3.14   56.33
  15  -4   8   88.79  133.26
 -15   4   8   -4.77   97.26
  15  -5  -8  106.64  169.10
 -15   5  -8    4.66   25.07
 -15   5   8  162.47  102.34
  16   7  -8  -84.69   63.93
 -16  -7   8 -128.66  169.65
  16   6  -8    4.16  152.35
  16   6  -8   65.30   63.26
 -16  -6   8   24.38   36.33
 -16  -6   8  110.69  165.64
  16   5  -8   45.10   64.64
  16   5  -8  126.88  160.99
 -16  -5   8  -26.98   32.80
 -16  -5   8  114.03  156.17
  16   4  -8 -241.68  172.63
  16   4  -8  -21.16   65.30
 -16  -4   8  109.41  149.27
 -16  -4   8   92.02   33.34
  16   3  -8  506.64  185.05
  16   3  -8    3.60   63.81
 -16  -3   8    3.25   34.72
 -16  -3   8  -73.19  146.21
  16   2  -8 -145.31   67.41
  16   2  -8  125.42  176.78
 -16  -2  -8  155.50  180.77
 -16  -2   8  109.01  135.81
 -16  -2   8  -30.25   35.42
  16   2   8  -81.41   67.98
  16   1  -8   22.77   71.79
  16   1  -8  -46.47  181.35
 -16  -1  -8  -47.01  171.62
 -16  -1  -8    2.87   29.14
  16   1   8   27.00   61.02
 -16  -1   8   43.80  123.63
  16   1   8  117.22  132.13
 -16  -1   8   32.07   38.38
  16   0  -8   70.02   70.48
 -16   0  -8    6.12  151.66
 -16   0  -8   16.22   26.56
  16   0  -8 -150.66  176.89
 -16   0   8 -119.78  117.68
 -16   0   8   39.69   40.13
  16   0   8   20.41   65.78
  16   0   8   93.77  126.96
  16  -1  -8    4.05   71.32
 -16   1  -8   60.86  138.74
 -16   1  -8   -5.11   23.88
  16  -1  -8  142.32  185.93
 -16   1   8   76.13  114.37
  16  -1   8  -43.70  130.28
 -16   1   8  -11.01   37.23
  16  -1   8  -33.94   63.17
  16  -2  -8 -108.96  187.76
  16  -2  -8    8.48   73.99
 -16   2  -8 -201.50  125.68
 -16   2  -8    2.45   24.97
  16  -2   8  -86.63   64.30
 -16   2   8 -196.01  110.08
  16  -2   8  -40.96  143.37
  16  -3  -8   -4.43   81.50
 -16   3  -8  194.94  117.35
 -16   3  -8   83.93   30.73
 -16   3   8   -5.05  111.40
  16  -3   8   13.67   65.00
 -16   4  -8  -50.88   26.55
 -16   4  -8   -8.52  103.28
  16  -4  -8  -50.42   80.31
  16  -4   8 -244.25   76.09
 -16   4   8  157.04  110.14
  16  -5  -8   13.54  192.80
 -16   5   8  -88.65  105.61
 -17  -7   8  197.86  215.65
  17   6  -8  -64.20  174.35
  17   6  -8  111.52   71.76
 -17  -6   8   38.56   43.27
 -17  -6   8  475.20  189.06
  17   5  -8   35.15   72.79
  17   5  -8  -13.55  179.79
 -17  -5   8   48.89   41.64
 -17  -5   8    7.50  177.72
  17   4  -8  -22.93  178.46
  17   4  -8    4.00   75.74
 -17  -4   8   36.71   39.95
 -17  -4   8    7.21  168.81
  17   3  -8    9.30  187.18
  17   3  -8  -44.79   74.76
 -17  -3   8    6.80  163.15
 -17  -3   8   -3.62   37.81
  17   2  -8   28.99   74.94
  17   2  -8    4.69  201.51
 -17  -2   8  296.32  152.77
 -17  -2   8    3.64   37.23
  17   1  -8   71.23   79.82
 -17  -1  -8  -62.45   35.02
  17   1  -8   27.50  189.83
 -17  -1  -8  -51.92  188.39
  17   1   8   53.26   77.09
 -17  -1   8  -54.98   39.80
 -17  -1   8  -18.32  135.69
  17   1   8  -75.32  145.18
 -17   0  -8  176.40  166.90
  17   0  -8    4.31   74.35
 -17   0  -8  -53.31   30.01
  17   0  -8 -200.67  189.68
  17   0   8   51.26  143.09
 -17   0   8   93.42  135.97
 -17   0   8  -56.49   44.20
  17   0   8    3.78   68.22
  17  -1  -8   -4.70  199.17
 -17   1  -8   18.24  145.57
 -17   1  -8   47.89   30.43
  17  -1  -8   67.10   83.21
 -17   1   8 -164.27  128.81
 -17   1   8   20.56   42.17
  17  -1   8  276.30  152.30
  17  -1   8   45.16   69.51
  17  -2  -8  -56.06   83.86
 -17   2  -8   26.98   27.62
  17  -2  -8   23.68  196.45
 -17   2  -8  215.35  137.18
 -17   2   8   21.24   41.29
  17  -2   8  -99.77   68.95
 -17   2   8   33.67  122.28
  17  -2   8  -78.29  147.53
 -17   3  -8   31.93   28.99
 -17   3  -8  137.00  122.28
  17  -3  -8  -68.26   86.21
  17  -3   8   38.20  157.99
 -17   3   8  -72.67  119.66
  17  -3   8  -98.71   70.60
  17  -4  -8   24.33  202.09
  17  -4  -8   -5.02   87.13
 -17   4  -8    2.73   28.37
 -17   4   8  -92.27  121.17
  17  -5  -8   69.27  211.70
 -17   5   8  194.04  126.30
  18   6  -8    4.24   77.18
 -18  -6   8  129.02  202.72
 -18  -6   8  -60.15   44.04
  18   5  -8   49.69  194.23
  18   5  -8  -68.78   81.24
 -18  -5   8   41.94   42.29
 -18  -5   8  224.09  196.81
  18   4  -8  492.70  124.77
 -18  -4   8  402.83  234.56
 -18  -4   8  127.46   87.89
  18   3  -8 -106.93   83.21
  18   3  -8 -625.51  220.10
 -18  -3   8    4.04   38.67
 -18  -3   8 -144.92  181.46
  18   2  -8    9.06   81.51
  18   2  -8   -5.16  210.89
 -18  -2  -8  151.23  219.75
 -18  -2   8   48.88   46.52
 -18  -2   8  -50.88  163.63
  18   2   8    4.23   79.07
  18   1  -8  245.69  217.79
 -18  -1  -8  -50.97   31.94
  18   1  -8  189.18   89.23
 -18  -1  -8   16.57  201.90
 -18  -1   8 -109.64  159.04
  18   1   8   17.14   79.68
 -18  -1   8   -4.26   41.11
  18   1   8  107.04  154.89
  18   0  -8   -4.77   89.14
 -18   0  -8   55.14   33.58
 -18   0  -8 -166.36  196.21
  18   0  -8  -40.45  205.08
 -18   0   8  -58.93   45.97
  18   0   8  -48.00  151.35
  18   0   8  -34.47   83.46
 -18   0   8 -288.22  152.16
 -18   1  -8   13.61  167.85
  18  -1  -8   86.99  208.30
 -18   1  -8    3.11   30.74
  18  -1  -8   -4.95   85.58
  18  -1   8   68.39   83.29
  18  -1   8   40.31  159.37
 -18   1   8   73.62   46.66
 -18   1   8  264.80  146.91
 -18   2  -8  -38.76   28.22
 -18   2  -8  -60.89  142.91
  18  -2  -8 -149.33   93.21
 -18   2   8  -33.11   52.77
  18  -2   8   80.39   78.89
  18  -2   8 -138.57  169.82
 -18   2   8  -31.42  141.12
  18  -3  -8 -386.76  102.16
 -18   3  -8    2.93   29.52
 -18   3  -8 -139.15  138.00
  18  -3   8  -95.59   82.27
 -18   3   8 -199.05  143.85
  18  -4  -8 2192.25  463.45
 -18   4   8 1811.86  426.56
  18  -5  -8    5.38  216.39
 -18   5   8   -6.67  137.43
  19   6  -8   81.13   91.05
 -19  -6   8  114.96  231.10
  19   5  -8    9.77   87.54
 -19  -5   8 -148.64  220.80
 -19  -5   8   23.49   49.94
  19   4  -8 -114.83  223.99
  19   4  -8   79.58   91.90
 -19  -4   8   41.36   44.72
 -19  -4   8  291.39  217.59
  19   3  -8 -233.51   95.17
  19   3  -8  -77.55  229.10
 -19  -3   8  -54.40   47.17
 -19  -3   8 -209.93  203.60
  19   2  -8 -220.38   91.57
  19   2  -8  -28.09  233.76
 -19  -2  -8   88.50  234.14
  19   2   8  103.93   87.63
 -19  -2   8  -36.32   47.31
 -19  -2   8   47.97  183.11
  19   1  -8 -153.78  225.72
 -19  -1  -8  -52.05   35.44
  19   1  -8  -81.69   90.70
 -19  -1  -8  264.43  223.30
  19   1   8  132.51   87.01
 -19  -1   8 -227.08  176.97
 -19  -1   8    4.72   48.64
  19   0  -8  120.26  226.08
  19   0  -8    5.27   90.62
 -19   0  -8   24.80  213.15
 -19   0  -8   24.95   35.77
 -19   0   8 -225.98  168.83
  19   0   8  -66.56   82.94
 -19   0   8  -44.94   55.69
  19   0   8   39.52  173.66
  19  -1  -8 -169.73  103.17
  19  -1  -8  138.58  234.57
 -19   1  -8   -6.82   34.92
 -19   1  -8  -59.56  184.41
  19  -1   8    4.70   86.92
 -19   1   8   30.93   56.50
  19  -1   8   17.45  173.46
 -19   1   8  -92.08  167.52
  19  -2  -8    5.84  105.25
 -19   2  -8  -94.83  164.46
 -19   2  -8   36.30   31.79
  19  -2   8 -151.32  182.94
 -19   2   8  -63.43  165.01
  19  -2   8  149.16   88.05
  19  -3  -8  -98.65  110.12
 -19   3   8  -41.65  154.82
  19  -4  -8    6.01  107.04
  19  -4  -8   22.85  244.51
 -19   4   8 -247.84  161.99
 -19   5   8  346.56  172.30
 -20  -2  -8  304.62  283.03
  20   2   8  106.32  105.54
 -20  -1  -8  333.16  250.78
  20   1   8 -123.66   96.63
 -20   0  -8  -54.93  215.94
 -20   0  -8   43.06   38.39
  20   0   8  -21.52  101.50
  20   0   8 -198.04  186.68
 -20   1  -8  175.22  212.90
 -20   1  -8   45.21   39.09
  20  -1   8  -69.64   98.55
  20  -1   8    4.78  191.41
 -20   2  -8   15.12  185.51
 -20   2  -8   47.49   40.09
   0   0  -9   22.16   45.55
   0   0   9    1.98   29.02
   0   0   9   -5.00   16.63
   0   1  -9 1010.23  261.92
  -1   0  -9  909.17  265.59
   1   0  -9 1024.13  268.76
   0  -1   9 1000.45  236.89
   1   0   9 1119.93  230.96
  -1   0   9 1258.42  239.25
   0  -1   9 1068.73  231.07
   1   1  -9    2.78   19.23
  -1   1  -9   -2.82   42.25
   1   1  -9   22.02   40.22
   1  -1   9   -8.48   18.90
  -1  -1   9    1.65   17.69
  -1  -1   9  -18.38   25.39
   2   1  -9   11.25   28.42
   2   1  -9    1.16   46.67
   2   1  -9   -4.64   14.24
  -2  -1   9   10.11   18.43
  -2  -1   9    3.73   23.92
  -2  -1   9   15.85   14.22
   2   0  -9   -8.27   22.01
   0   2  -9   -6.44   44.53
   0  -2   9   39.15   21.31
  -2   0   9   -4.95   28.66
   0  -2   9   -2.47   17.93
   1   2  -9   -2.34   42.40
   1   2  -9    3.94    9.90
   1   2  -9   -2.88   19.18
  -1  -2   9    9.77   10.64
  -1  -2   9   -2.21   19.54
  -1  -2   9    8.33   16.79
   2   2  -9   14.12   10.02
   2   2  -9  -18.17   45.65
   2   2  -9   10.59   25.91
  -2  -2   9    2.10   17.58
  -2  -2   9    1.25   14.52
  -2  -2   9   -7.64   19.05
   3   2  -9  116.27   54.56
  -2   3  -9  277.24   75.84
   3   2  -9  184.15   63.23
   3   2  -9  153.95   41.88
  -3  -2   9  149.31   44.35
  -3  -2   9  209.71   43.68
  -3  -2   9  233.30   46.70
   2  -3   9  160.29   45.02
   2  -3   9  205.77   47.39
   3   1  -9  120.09   49.62
   3   1  -9   34.23   39.66
   3   1  -9   84.16   21.12
   1  -3   9   -1.16   25.75
  -3  -1   9   56.52   23.87
  -3  -1   9   89.66   27.34
  -3  -1   9   65.62   24.25
   3   0  -9   15.37   32.80
  -3   0   9   -1.48   28.90
  -3   0   9   19.97   18.94
   3   0   9   34.23   41.42
   1   3  -9   64.06   17.58
   1   3  -9   50.85   51.82
   1   3  -9  103.69   18.92
   3  -1   9   23.32   37.12
  -1  -3   9   66.69   16.25
  -1  -3   9   99.25   25.48
  -1  -3   9  106.41   23.34
  -1  -3   9   63.15   21.21
   2   3  -9  142.40   65.31
  -3   2  -9  142.83   41.39
   2   3  -9  171.17   38.26
   2   3  -9  242.75   50.47
   2   3  -9  188.92   36.86
  -2  -3   9  175.32   35.26
   3  -2   9  177.15   44.67
   3  -2   9  142.46   36.73
   3  -2   9  132.73   48.17
  -2  -3   9  119.01   42.35
  -2  -3   9  168.26   43.11
  -2  -3   9  126.06   39.94
   3   3  -9    2.54    8.69
  -3   3  -9    0.46   12.73
   3   3  -9   -5.32   31.46
   3   3  -9   34.95   46.93
   3   3  -9   -2.25   11.17
  -3   3  -9   23.90   63.81
  -3   3  -9   -5.01    3.70
   3  -3   9   -3.31   26.08
  -3  -3   9    5.44   18.80
   3  -3   9   -4.03   23.92
  -3  -3   9   -3.55   14.77
   3  -3   9    7.44   18.22
  -3  -3   9  -14.39   21.91
   3  -3   9   -2.80    9.83
  -3  -3   9    1.10    5.20
   4   3  -9  331.71   73.35
   4   3  -9  264.06   84.82
   4   3  -9  437.14   96.23
  -4  -3   9  388.54   80.77
   3  -4   9  296.42   84.01
  -4  -3   9  288.15   75.34
  -4  -3   9  332.01   71.89
  -4  -3   9  281.42   67.13
   3  -4   9  265.44   76.78
   4   2  -9   -4.50   13.62
  -2   4  -9    6.24   13.02
   4   2  -9   -7.03   40.68
   4   2  -9   -8.72   38.82
   4   2  -9    5.09    7.99
  -4  -2   9    5.37   17.32
  -4  -2   9   16.47   24.84
  -4  -2   9   -3.20   14.04
   2  -4   9    5.39   24.26
   2  -4   9    2.31   21.09
   4   1  -9  153.52   44.23
   4   1  -9  115.39   62.81
  -1   4  -9  187.79   41.26
   4   1  -9  227.72   67.76
  -4  -1   9  237.67   47.25
  -4  -1   9  188.51   46.34
   1  -4   9  167.82   44.92
   1  -4   9  103.72   48.53
  -4  -1   9  228.89   49.66
  -4   0  -9  107.51   65.53
   0   4  -9    0.91   11.70
   4   0  -9    6.19   19.48
   4   0   9   -7.65   44.48
   0  -4   9   -8.88   17.40
  -4   0   9   12.97   27.30
  -4   0   9    9.61   21.19
   4   0   9   -7.69   28.19
  -4   1  -9  332.24   84.58
   1   4  -9  204.57   48.89
   4  -1   9  211.76   48.36
   4  -1   9  222.62   61.89
   4  -1   9  178.15   53.70
  -4   2  -9    5.38   64.86
  -4   2  -9    0.71   20.34
   2   4  -9    9.54    9.38
  -4   2  -9    3.99    4.28
   4  -2   9   -3.05   25.57
   4  -2   9    3.01    8.13
   4  -2   9    8.98   24.67
   4  -2   9    5.00   31.14
  -2  -4   9   -8.43   20.82
  -4   3  -9  344.65   81.33
  -4   3  -9  304.43  111.32
  -4   3  -9  346.65   72.76
   3   4  -9  382.94   78.40
  -3  -4   9  324.33   79.97
   4  -3   9  375.70   81.02
  -3  -4   9  394.89   73.25
   4  -3   9  235.71   87.90
   4  -3   9  327.56   78.98
   4  -3   9  341.36   76.26
   4   4  -9    1.53   10.31
   4   4  -9   67.01   38.73
  -4   4  -9   -5.85   15.72
   4   4  -9   -7.50   14.90
  -4  -4   9    6.34    6.62
  -4  -4   9    7.29   21.10
   4  -4   9   -1.82   29.20
  -4  -4   9    2.06   13.62
   4  -4   9    1.24   27.30
   4  -4   9   12.01   24.39
  -4   5  -9  519.04  113.43
   5   4  -9  546.78  133.54
  -5  -4   9  540.13  111.29
   4  -5   9  450.36  122.46
  -5  -4   9  531.57  122.46
   4  -5   9  605.51  141.55
   4  -5   9  504.30  116.65
   5   3  -9  509.51  124.43
   5   3  -9  547.23  151.22
   5   3  -9  772.83  141.69
   3  -5   9  481.84  151.43
  -5  -3   9  505.51  130.77
   3  -5   9  659.72  131.20
  -5  -3   9  565.49  126.53
   5   2  -9  349.59   88.15
   5   2  -9  403.79  115.24
   2  -5   9  388.08   96.80
  -5  -2   9  419.71   92.89
   2  -5   9  400.57   92.01
  -5  -2   9  481.41   96.92
   5   1  -9  229.16   81.50
  -1   5  -9  234.90   56.54
   1  -5   9  272.90   59.50
   1  -5   9  297.92   63.51
  -5  -1   9  215.30   60.89
   0   5  -9  522.16   98.18
  -5   0  -9  330.07  140.59
   5   0  -9  597.10  124.01
   0  -5   9  381.64  101.02
   0  -5   9  400.54  105.93
   5   0   9  465.54  106.43
  -5   0   9  461.09  110.08
   5   0   9  367.10  117.54
   1   5  -9  325.21   57.99
   5  -1  -9  236.90   80.86
  -5   1  -9  247.24   97.58
   5  -1  -9  202.77   64.78
  -1  -5   9  236.61   64.14
   5  -1   9  261.93   60.37
   5  -1   9  205.99   73.97
  -1  -5   9  241.03   60.07
  -5   1   9  272.89   68.59
   5  -1   9  316.56   66.28
  -5   2  -9  402.06  100.92
  -5   2  -9  646.32  136.78
   2   5  -9  405.88   92.72
   5  -2   9  372.33  101.45
   5  -2   9  432.87   94.00
   5  -2   9  377.81   98.82
   5  -2   9  392.29  111.75
  -2  -5   9  442.48   94.34
  -5   3  -9  459.94  136.68
   3   5  -9  696.53  132.34
  -5   3  -9  758.14  165.98
   5  -3   9  579.93  131.82
   5  -3   9  622.64  133.84
   5  -3   9  521.96  145.40
   5  -3   9  598.16  129.34
  -5   4  -9  452.11  117.05
  -5   4  -9  603.77  148.49
   5  -4   9  410.59  113.09
   5  -4   9  329.87  106.76
  -4  -5   9  489.68  111.19
   5  -4   9  498.73  125.51
   5  -4   9  504.23  111.53
   5   5  -9  -12.16   17.77
  -5   5  -9    9.40   17.24
   5  -5   9   22.97   33.55
   5  -5   9  -19.08   26.24
   5  -5   9    2.74   42.53
  -5  -5   9   -7.77   21.72
  -5  -5   9   -1.08    9.53
  -5   6  -9   26.87   22.21
   6   5  -9   60.43   23.15
   6   5  -9   51.78   57.54
   5  -6   9   49.84   37.73
  -6  -5   9   82.30   24.95
   5  -6   9   72.65   50.92
   5  -6   9   98.63   29.35
  -6  -5   9   28.91   15.68
   6   4  -9  622.72  150.04
   6   4  -9  715.84  162.97
  -6  -4   9  722.42  136.98
   4  -6   9  613.63  143.97
   4  -6   9  700.48  151.04
  -6  -4   9  550.99  152.42
   4  -6   9  550.85  181.31
   6   3  -9 1027.37  272.74
   6   3  -9 1358.89  252.26
   6   3  -9  970.40  233.43
   3  -6   9  672.62  232.08
  -6  -3   9  821.07  214.40
  -6  -3   9 1152.84  237.85
  -6  -3   9 1084.54  250.55
   6   2  -9  555.08  121.04
   6   2  -9  464.49  116.42
   6   2  -9  482.18  144.67
  -2   6  -9  598.69  115.65
   6   2  -9  609.38  138.95
  -6  -2   9  533.56  119.77
  -6  -2   9  508.79  129.50
   2  -6   9  624.31  118.53
  -6  -2   9  540.70  112.92
   2  -6   9  520.62  122.78
  -6  -2   9  478.87  125.34
   6   1  -9  218.67   83.26
  -1   6  -9  263.60   52.60
   6   1  -9  186.52   56.54
   1  -6   9  228.53   55.48
   6   1   9  169.00   82.42
  -6  -1   9  223.16   55.18
   1  -6   9  251.54   59.08
  -6  -1   9  245.49   65.38
   6   0  -9   -1.37   21.94
   6   0  -9  -23.36   59.30
   0   6  -9    9.66   13.89
  -6   0  -9   43.28   81.33
   6   0   9  -19.15   49.26
   0  -6   9    3.35   19.03
  -6   0   9  -24.02   30.55
  -6   0   9    6.25   24.89
   0  -6   9    2.24   24.16
   6   0   9    1.49   32.12
   1   6  -9  229.40   55.29
  -6   1  -9  219.34   99.75
   6  -1  -9  219.01   82.96
   6  -1  -9  180.41   61.98
  -1  -6   9  218.12   60.00
   6  -1   9  280.65   56.69
   6  -1   9  272.32   63.84
   6  -1   9  257.85   72.13
  -6   1   9  292.39   66.02
  -6   2  -9  444.78  117.76
  -6   2  -9  440.22  107.07
   6  -2  -9  426.09  130.91
  -6   2  -9  460.23  152.48
   6  -2   9  525.67  129.79
  -2  -6   9  549.99  112.50
   6  -2   9  540.33  116.45
   6  -2   9  474.70  109.12
   6  -2   9  517.36  114.30
  -6   3  -9 1127.13  235.49
  -6   3  -9 1162.08  254.49
   6  -3   9 1287.62  274.33
  -3  -6   9 1061.59  244.09
   6  -3   9 1037.35  242.61
   6  -3   9  908.52  240.03
  -6   4  -9  813.08  167.46
  -6   4  -9  565.26  150.83
  -6   4  -9  726.76  201.94
   6  -4   9  790.47  155.54
   6  -4   9  889.89  176.39
   6  -4   9  535.25  161.96
   6  -4   9  660.06  158.82
  -6   5  -9   32.14   20.99
   5   6  -9   34.91   18.83
   6  -5   9   48.63   37.94
   6  -5   9    4.29   29.49
  -6   6  -9  -18.76   19.75
   6   6  -9   10.04   19.90
   6  -6   9    6.68   41.11
   6  -6   9  -10.77   30.88
   7   6  -9   -1.28   22.85
  -6   7  -9   10.23   22.11
   6  -7   9    6.57   30.05
   6  -7   9   -5.52   44.35
   7   5  -9  153.66   46.68
  -5   7  -9  187.14   43.88
   7   5  -9  206.23   73.66
   5  -7   9  265.29   48.51
   5  -7   9  124.86   58.10
  -7  -5   9  120.91   39.44
  -4   7  -9  -11.05   20.12
   7   4  -9   -9.64   60.57
   7   4  -9   21.10   21.44
  -7  -4   9   19.98   12.14
   4  -7   9    1.50   27.35
   4  -7   9   -1.59   33.83
   7   3  -9 1768.09  482.20
   7   3  -9 2110.74  505.13
  -7  -3   9 2116.50  445.78
   3  -7   9 2144.83  474.41
  -7  -3   9 2495.77  511.87
  -2   7  -9   34.45   18.76
   7   2  -9   13.01   23.70
   7   2  -9  158.94   64.52
   2  -7   9   10.99   29.82
  -7  -2   9   15.52   41.96
  -7  -2   9    1.16   11.59
   7   1  -9  706.33  161.94
   7   1  -9  654.44  134.93
   7   1   9  566.45  155.10
   1  -7   9  574.59  136.32
  -7  -1   9  497.94  145.46
   7   0  -9   11.91   25.85
  -7   0  -9  -12.56   11.42
  -7   0  -9 -212.80  107.39
   7   0  -9  -32.16   68.50
  -7   0   9    5.60   17.31
   7   0   9    7.41   17.00
  -7   0   9   -9.14   37.65
   7   0   9  -55.34   56.42
   7   0   9  -59.27   37.98
  -7   1  -9  624.52  123.88
  -7   1  -9  602.86  171.77
   7  -1  -9  507.91  129.86
   7  -1  -9  469.44  152.29
   7  -1   9  586.52  131.25
   7  -1   9  432.53  137.33
   7  -1   9  597.43  148.40
   7  -1   9  582.06  127.10
  -7   1   9  604.80  137.23
  -7   2  -9   57.58   88.26
   7  -2  -9  -26.78   64.92
   7  -2  -9    5.95   31.36
  -7   2  -9   14.02    9.40
   7  -2   9   -0.94   14.42
   7  -2   9   36.01   35.59
   7  -2   9   45.37   37.38
  -7   2   9  103.77   40.06
   7  -2   9   21.60   48.80
  -7   3  -9 2136.09  567.08
  -7   3  -9 2144.09  453.50
   7  -3   9 2288.33  463.53
   7  -3   9 1948.53  472.14
   7  -3   9 1908.14  523.97
  -7   4  -9  -11.95   93.07
  -7   4  -9    6.95   17.49
   7  -4   9    1.51   29.82
   7  -4   9   -7.64   36.46
   7  -4   9   -8.23   50.76
  -7   5  -9  255.71   47.19
  -7   5  -9  218.81   60.87
   7  -5   9  120.96   51.60
   7  -5   9  207.15   75.56
   7  -5   9  150.77   58.52
   7  -5   9  199.53   50.90
  -7   6  -9   -9.82   21.32
   7  -6   9   35.44   45.27
   7  -6   9    8.03   29.93
   7  -6   9   16.15   62.77
  -7   7  -9  -16.01   24.13
   7   7  -9    6.48   24.33
   7  -7   9    5.81   48.36
   7  -7   9   19.11   31.22
  -7   8  -9  252.29   57.55
   8   7  -9  206.26   59.79
   7  -8   9  223.01   75.75
  -6   8  -9   83.42   27.56
   8   6  -9   42.32   29.78
  -8  -6   9   52.37   19.94
   6  -8   9   43.99   49.78
  -5   8  -9   22.40   24.75
   8   5  -9   35.34   69.96
   8   5  -9   21.81   25.52
   5  -8   9    9.24   42.90
  -8  -5   9   -7.34   13.88
   8   4  -9   61.90   70.63
   8   4  -9   59.15   28.78
  -8  -4   9   43.96   15.85
   8   3  -9    1.78   66.75
   8   3  -9   -4.40   25.72
  -8  -3   9   14.03   51.39
  -8  -3   9   21.99   13.49
   8   2  -9  291.83   68.94
   8   2  -9  378.17  101.26
  -8  -2   9  231.87   83.39
  -8  -2   9  239.78   59.84
   8   1  -9  208.02   88.65
   8   1  -9  158.66   46.85
   8   1   9  228.99   75.57
   8   1   9  139.04   43.71
  -8  -1   9  201.41   60.72
  -8   0  -9   -1.23   10.99
   8   0  -9    6.11   79.73
   8   0  -9  -13.42   30.22
  -8   0  -9  109.63   95.05
   8   0   9  -26.13   54.00
  -8   0   9   -6.29   40.86
   8   0   9  -10.37   39.16
   8   0   9   30.78   21.05
   8   0   9  -36.45   55.39
  -8   1  -9  151.41   35.82
   8  -1  -9  140.74   86.76
  -8   1  -9  195.93  103.28
   8  -1  -9  185.25   49.04
   8  -1   9  138.38   59.19
  -8   1   9  116.62   55.64
   8  -1   9  193.45   40.62
   8  -1   9  164.42   65.42
   8  -1   9   98.76   51.08
   8  -2  -9  317.43  104.37
  -8   2  -9  318.82  127.57
   8  -2  -9  213.73   77.11
  -8   2  -9  266.64   80.97
  -8   2  -9  236.58   65.42
   8  -2   9  242.21   77.71
  -8   2   9  359.67   82.97
   8  -2   9  301.05   92.23
   8  -2   9  393.12   77.06
   8  -2   9  363.21   69.44
  -8   3  -9   55.79   23.22
  -8   3  -9  118.44  104.27
  -8   3  -9   44.33   42.83
   8  -3  -9   61.66   71.08
  -8   3  -9   30.04   13.39
   8  -3   9   22.36   38.82
   8  -3   9   29.50   57.97
   8  -3   9   55.45   36.39
   8  -3   9   39.54   22.96
  -8   4  -9  102.27  107.41
  -8   4  -9   38.32   21.52
  -8   4  -9   15.00   11.38
  -8   4  -9   39.43   40.38
   8  -4   9   57.76   60.90
   8  -4   9  -12.76   42.03
   8  -4   9   44.50   24.48
   8  -4   9    9.46   31.15
  -8   5  -9  -12.50   22.36
  -8   5  -9  -78.13  113.65
  -8   5  -9   -7.63   43.60
   8  -5   9   55.49   44.16
   8  -5   9   14.90   64.13
   8  -5   9   31.23   29.63
   8  -5   9   -7.78   31.30
  -8   6  -9   22.28   26.32
   8  -6   9   45.20   33.67
   8  -6   9   59.69   47.22
   8  -6   9  100.78   71.13
  -8   7  -9  291.25   59.19
   8  -7   9  168.20   76.49
   8  -7   9  226.21   64.43
  -8   8  -9   18.91   27.79
   8  -8   9   -2.28   58.56
   9   7  -9   14.96   29.24
   9   6  -9  268.16   42.95
  -9  -6   9   50.26   31.07
   9   5  -9  176.58   82.57
   9   5  -9   85.75   35.55
  -9  -5   9   51.93   21.37
   9   4  -9  139.88   85.18
   9   4  -9  122.68   38.13
  -9  -4   9   88.89   27.10
  -9  -4   9  154.49   73.69
   9   3  -9   16.65   30.17
   9   3  -9 -104.88   82.93
  -9  -3   9   10.95   14.77
  -9  -3   9  -10.80   55.76
   9   2  -9  -72.29   83.19
   9   2  -9   20.61   31.96
  -9  -2   9   38.79   54.57
  -9  -2   9   21.79   15.38
   9   1  -9   88.76   85.25
   9   1  -9   21.31   32.55
  -9  -1   9    4.89   52.18
   9   1   9   57.72   69.47
   9   1   9    1.51   26.64
  -9   0  -9   11.21   12.93
   9   0  -9   18.82   33.95
  -9   0  -9  -28.00  111.34
   9   0  -9   32.21   88.04
   9   0   9   -4.24   24.85
   9   0   9    7.48   42.08
   9   0   9   25.33   55.53
  -9   0   9    4.73   48.45
   9   0   9   44.56   59.73
  -9   1  -9    5.23  103.68
  -9   1  -9    8.91   12.73
   9  -1  -9   25.29   35.86
   9  -1  -9  -13.74   86.49
   9  -1   9   -7.03   48.49
   9  -1   9   25.24   23.08
   9  -1   9   38.81   41.25
  -9   1   9   36.12   47.49
   9  -1   9   -3.28   62.17
   9  -2  -9   95.49   84.48
  -9   2  -9   67.77  108.83
  -9   2  -9    9.33   12.27
   9  -2  -9  -27.91   37.56
  -9   2  -9   14.58   50.46
  -9   2   9   22.75   50.03
   9  -2   9    7.98   61.96
   9  -2   9    7.93   40.57
   9  -2   9    3.97   41.03
   9  -2   9   51.06   25.65
   9  -3  -9   11.43   86.09
  -9   3  -9   11.56   11.44
  -9   3  -9   23.58  110.03
   9  -3  -9  -37.55   43.15
  -9   3  -9    4.64   21.95
  -9   3  -9   -5.93   47.45
  -9   3   9   83.36   50.42
   9  -3   9   24.65   61.30
   9  -3   9    6.96   25.71
   9  -3   9    1.74   33.08
   9  -3   9   12.54   39.83
  -9   4  -9  139.87  120.21
  -9   4  -9   43.18   51.98
  -9   4  -9   98.66   22.54
  -9   4  -9   97.72   30.76
   9  -4   9  107.06   35.11
   9  -4   9  142.91   73.78
   9  -4   9   26.20   38.69
   9  -4   9   86.79   47.51
  -9   5  -9  -20.24  123.87
  -9   5  -9  101.77   28.66
  -9   5  -9   40.91   51.97
   9  -5   9   69.57   77.05
   9  -5   9   62.75   51.15
   9  -5   9   38.11   35.39
   9  -5   9   74.35   36.48
  -9   6  -9    3.58   27.16
  -9   6  -9   79.07   57.99
   9  -6   9   31.31   38.43
   9  -6   9   51.55   53.74
  -9   7  -9   19.34   26.47
   9  -7   9  -25.97   55.47
   9  -7   9   37.10   36.03
  -9   8  -9  205.38   54.20
   9  -8   9  196.70   79.66
   9  -9   9  -46.21   71.02
  10   7  -9  118.94   42.06
  10   6  -9  236.73   57.40
  10   6  -9  266.46  103.31
 -10  -6   9  148.88   47.05
  10   5  -9  -21.87   32.46
  10   5  -9   27.27   87.96
 -10  -5   9    3.61   17.10
  10   4  -9  112.23   39.70
  10   4  -9  223.96  100.59
 -10  -4   9  132.82   74.58
 -10  -4   9   37.33   22.64
  10   3  -9   36.74   90.61
  10   3  -9   35.69   34.87
 -10  -3   9   -1.77   18.51
 -10  -3   9  -30.86   69.48
  10   2  -9   69.35   93.57
  10   2  -9    7.76   36.81
 -10  -2   9   33.62   19.19
 -10  -2   9  -14.74   65.35
  10   1  -9  112.38   43.38
  10   1  -9    2.47  100.61
 -10  -1  -9  123.39   28.89
 -10  -1   9   86.15   65.18
  10   1   9  137.29   38.28
  10   1   9   76.69   73.81
 -10   0  -9    9.40   15.06
  10   0  -9  -31.66   39.95
  10   0  -9   58.84  101.03
 -10   0  -9   15.04  117.36
  10   0   9   17.00   63.25
  10   0   9   -7.60   68.68
  10   0   9   -1.62   28.21
 -10   0   9   -5.33   56.22
  10  -1  -9  115.28  102.46
 -10   1  -9  124.21  120.21
  10  -1  -9   45.20   44.00
 -10   1  -9   64.39   69.25
 -10   1  -9   92.93   23.79
  10  -1   9   90.36   34.01
  10  -1   9   34.56   48.62
  10  -1   9  161.74   74.25
  10  -1   9  109.38   54.32
 -10   1   9   80.31   59.27
  10  -2  -9  -65.54   45.42
 -10   2  -9   -5.27   13.41
 -10   2  -9  -36.30   59.24
  10  -2  -9 -131.78   95.22
 -10   2  -9  -16.10  114.26
  10  -2   9   35.42   45.24
  10  -2   9   24.34   43.97
 -10   2   9   33.72   57.10
  10  -2   9   10.85   73.17
  10  -2   9   17.04   27.17
 -10   3  -9    8.89   52.89
 -10   3  -9   44.59  119.97
  10  -3  -9  117.26   96.81
 -10   3  -9   -1.62   24.27
  10  -3  -9   48.41   47.26
 -10   3  -9   13.27   13.79
  10  -3   9    3.19   27.84
  10  -3   9  -24.45   74.17
  10  -3   9   16.17   36.84
  10  -3   9   -8.22   43.58
 -10   3   9   11.95   58.06
 -10   4  -9   43.80   16.21
 -10   4  -9  209.59  132.69
 -10   4  -9   22.79   25.84
 -10   4  -9   83.83   53.75
  10  -4   9  -13.56   36.55
  10  -4   9   -1.72   49.51
  10  -4   9   63.81   34.98
  10  -4   9   55.80   77.37
 -10   5  -9   13.78   25.36
 -10   5  -9  123.79  138.12
 -10   5  -9  -33.13   53.27
  10  -5   9   40.11   51.58
  10  -5   9   53.36   36.28
  10  -5   9   13.40   35.43
  10  -5   9    3.81   83.14
 -10   6  -9  308.73  159.34
 -10   6  -9  270.44   52.37
  10  -6   9  124.08   71.93
  10  -6   9  149.48   58.66
 -10   7  -9   34.41   29.30
  10  -7   9   64.64   59.33
  10  -7   9   46.16   37.97
 -10   8  -9    6.82   31.36
  10  -8   9  -82.05   67.91
  10  -9   9   25.55   71.71
  11   7  -9    2.05   37.47
  11   6  -9    8.26   38.63
  11   6  -9    2.61   97.85
 -11  -6   9   -4.29   20.54
  11   5  -9  -40.74   95.28
  11   5  -9   86.68   40.32
 -11  -5   9   34.03   21.46
  11   4  -9  -23.05   40.81
  11   4  -9 -152.17  106.11
 -11  -4   9   60.94   19.70
 -11  -4   9   14.54   85.79
  11   3  -9  -66.60   41.13
  11   3  -9 -151.19  106.67
 -11  -3   9   -1.95   20.35
 -11  -3   9  -20.98   83.31
  11   2  -9  195.70   57.93
  11   2  -9  138.52  113.62
 -11  -2   9  171.54   42.79
  11   2   9  164.86   54.45
 -11  -2   9  249.72   88.28
  11   1  -9 -141.65   50.96
 -11  -1  -9   31.69   17.50
  11   1   9   22.92   70.89
 -11  -1   9  -26.52   22.07
  11   1   9    3.85   32.75
 -11  -1   9  -75.46   74.29
 -11   0  -9  413.30   70.75
  11   0  -9   54.27   85.00
 -11   0  -9  381.06  148.93
 -11   0   9  221.63   99.11
  11   0   9  340.61   96.03
  11   0   9  336.66  108.33
  11   0   9  373.51   78.57
 -11   1  -9  -99.98  126.08
 -11   1  -9   15.90   16.11
 -11   1  -9  -64.20   75.09
  11  -1   9    8.91   31.35
  11  -1   9   40.95   76.83
  11  -1   9   31.36   49.64
  11  -1   9  -13.76   48.27
 -11   1   9  -74.89   67.03
 -11   2  -9  263.90  137.50
  11  -2  -9  206.64   58.84
  11  -2  -9    2.81  112.10
 -11   2  -9  126.90   37.82
 -11   2  -9   91.12   76.07
  11  -2   9  249.64   89.34
  11  -2   9  157.86   48.91
  11  -2   9  118.69   56.03
 -11   2   9  267.19   75.10
  11  -2   9  191.52   58.92
  11  -3  -9    2.82  106.53
 -11   3  -9   -3.37   26.05
  11  -3  -9    8.86   50.89
 -11   3  -9  -20.75   14.30
 -11   3  -9    2.54   57.77
 -11   3  -9  -37.91  130.10
 -11   3   9   55.32   66.30
  11  -3   9  -15.66   47.19
  11  -3   9   27.21   32.20
  11  -3   9    5.35   38.79
  11  -3   9    5.87   83.80
 -11   4  -9   20.55   24.36
 -11   4  -9    9.93   14.82
  11  -4  -9  204.78  102.03
 -11   4  -9  143.90  138.23
 -11   4  -9  -17.30   59.99
  11  -4   9    1.70   35.03
 -11   4   9   24.74   66.41
  11  -4   9  -13.95   35.12
  11  -4   9  -14.32   49.71
  11  -4   9    2.03   86.53
 -11   5  -9  -13.22  142.95
 -11   5  -9  -49.15   63.95
 -11   5  -9   58.05   28.40
 -11   5  -9   26.87   16.30
  11  -5   9   10.39   38.22
  11  -5   9   20.42   40.00
  11  -5   9  128.87   55.55
  11  -5   9   -4.26   90.09
 -11   6  -9   -7.06  154.66
 -11   6  -9    9.70   29.76
  11  -6   9   19.72   58.67
  11  -6   9   14.87   40.61
 -11   7  -9  -37.36  157.40
 -11   7  -9   12.66   30.89
  11  -7   9  -19.40   66.64
  11  -7   9   25.81   39.67
 -11   8  -9   30.67   31.77
  11  -8   9   -2.66   71.53
  12   5  -9   23.35   41.83
 -12  -5   9   -4.28  100.17
  12   4  -9  -61.55   45.53
 -12  -4   9   -2.13   17.41
 -12  -4   9    4.07   94.76
  12   3  -9   23.91   45.38
 -12  -3   9   83.04   27.62
 -12  -3   9  242.66   95.24
  12   2  -9  -76.51  118.91
  12   2  -9   19.94   44.32
 -12  -2   9  -29.51   86.20
  12   2   9   11.22   36.70
 -12  -2   9    2.28   22.49
  12   1  -9  342.89   84.66
  12   1  -9  214.49  147.95
 -12  -1  -9  306.65   71.78
  12   1   9  365.90   81.83
 -12  -1   9  404.50  110.82
 -12  -1   9  273.44   71.98
 -12   0  -9   32.51   19.81
  12   0  -9  336.00  123.50
  12   0  -9   -5.26   45.44
 -12   0   9   16.78   73.59
  12   0   9  -41.65   86.21
  12   0   9  -31.19   38.68
 -12   1  -9  175.57  105.28
 -12   1  -9  314.55   63.50
  12  -1  -9  288.04   79.47
  12  -1   9  265.12  109.16
 -12   1   9  340.11   99.10
  12  -1   9  241.18   73.59
 -12   2  -9  -19.69   16.07
  12  -2  -9   27.25   47.81
 -12   2  -9  -40.94   80.98
  12  -2   9    6.78   88.82
 -12   2   9  157.61   75.72
  12  -2   9    2.08   40.72
 -12   3  -9   33.43   27.35
 -12   3  -9   13.22   17.93
 -12   3  -9   23.03   70.30
 -12   3  -9  -18.33  139.41
  12  -3   9  -38.40   39.74
  12  -3   9  -90.07   90.87
 -12   4  -9    7.14   27.41
 -12   4  -9   -4.83   16.74
 -12   4  -9  -24.85   63.83
 -12   4  -9   55.54  150.14
  12  -4   9   29.03   38.69
  12  -4   9  -11.30   96.04
 -12   5  -9  -68.12   70.62
 -12   5  -9   15.19   27.68
 -12   5  -9   33.19   17.03
 -12   5  -9   45.86  167.02
  12  -5   9    5.94   55.14
  12  -5   9   14.25   37.24
 -12   6  -9   37.56  173.21
 -12   6  -9   36.34   29.27
  12  -6   9  -11.34   40.52
  12  -6   9   86.52   65.55
 -12   7  -9 -272.42  182.97
 -12   7  -9    2.19   30.81
  12  -7   9    4.09   42.55
  12  -7   9 -110.83   73.62
 -12   8  -9   50.98  193.39
  12  -9   9  490.63  139.76
  13   7  -9    2.52   45.67
  13   6  -9 -106.42  122.57
  13   6  -9   10.14   47.85
 -13  -6   9  -20.81   23.30
  13   5  -9 -163.39  128.35
  13   5  -9  -23.20   50.27
 -13  -5   9   -7.42   25.97
 -13  -5   9  138.36  115.75
  13   4  -9  258.66   79.93
 -13  -4   9  577.82  125.66
  13   3  -9  -31.62  128.24
 -13  -3   9   26.79   24.97
  13   2  -9 -110.17  141.26
 -13  -2   9   12.89   27.73
  13   2   9   37.36   45.18
 -13  -1  -9   33.78   21.52
  13   1  -9 -189.75  139.31
 -13  -1   9  -15.46   26.89
  13   1   9   62.98   45.71
 -13   0  -9  185.18  110.50
  13   0  -9   -3.37  144.31
 -13   0  -9  131.98   32.40
  13   0   9   88.72   49.10
  13   0   9  210.52  101.03
 -13   0   9   71.50   35.82
 -13   1  -9   -3.87   19.07
 -13   1  -9   27.40   96.09
  13  -1  -9  -75.22  138.16
  13  -1   9 -147.40  102.73
  13  -1   9  -13.90   44.67
 -13   2  -9   39.83   24.00
  13  -2  -9   20.64  133.93
  13  -2  -9  232.72   63.21
 -13   2  -9   24.93   87.42
 -13   2   9  185.02   74.79
  13  -2   9   49.26   46.00
  13  -2   9  190.01  101.14
 -13   3  -9   68.36   77.32
 -13   3  -9    3.57   19.41
  13  -3  -9  -28.35   62.41
  13  -3  -9   51.35  132.80
  13  -3   9   35.82   41.97
  13  -3   9    7.28  100.13
 -13   3   9   42.41   77.70
  13  -4  -9  -86.14   61.27
 -13   4  -9  -43.23   20.51
  13  -4  -9 -279.43  141.37
 -13   4  -9  -64.62   73.48
 -13   4   9  -70.36   84.77
  13  -4   9   12.48   44.79
  14   7  -9   41.99   52.00
  14   6  -9  -62.62   54.95
  14   6  -9   61.97  133.50
 -14  -6   9  -34.44   28.51
 -14  -6   9   38.56  132.89
  14   5  -9  -68.15  135.21
  14   5  -9  -58.01   53.48
 -14  -5   9  -79.18  123.75
 -14  -5   9    2.75   25.99
  14   4  -9  346.98  148.73
  14   4  -9   -2.95   55.41
 -14  -4   9  -10.63   27.77
 -14  -4   9 -118.24  124.18
  14   3  -9  -15.07   55.69
  14   3  -9 -100.07  153.42
 -14  -3   9   24.49   29.84
 -14  -3   9  255.56  120.21
  14   2  -9   63.70  152.72
  14   2  -9  -24.30   58.65
  14   2   9  144.01   46.33
 -14  -2   9   93.16  109.90
 -14  -2   9  -40.06   29.83
  14   1  -9 -383.07  164.00
 -14  -1  -9   34.35   24.17
  14   1  -9   -3.09   63.35
 -14  -1   9  -61.30   98.98
 -14  -1   9   34.74   33.08
  14   0  -9  -22.66   67.17
  14   0  -9    7.38  163.27
 -14   0   9   49.89   32.92
 -14   0   9   -4.19   96.61
  14  -1  -9  -64.28   64.04
  14  -1  -9  -89.01  152.51
 -14   1   9  119.61   88.45
  14  -2  -9  -82.54  158.90
  14  -2  -9   85.34   64.74
 -14   2  -9  -39.49   96.16
  14  -2   9   -2.63   43.16
 -14   2   9  -45.87   87.54
  14  -3  -9  -54.54   66.50
 -14   3  -9  -69.73   91.69
  14  -3  -9  -90.49  154.46
 -14   3   9    8.46   88.89
  14  -3   9    2.67   51.50
 -14   4  -9  -41.15   83.08
  14  -4  -9   14.96  154.93
  14  -4  -9  -85.54   69.38
 -14   4   9  107.43   91.46
  15   7  -9    3.08   57.11
 -15  -7   9 -119.33  152.45
  15   6  -9   21.94   55.51
  15   6  -9  330.18  149.50
 -15  -6   9   48.81  148.76
 -15  -6   9    9.51   33.98
  15   5  -9    6.36   57.05
  15   5  -9 -135.44  147.82
 -15  -5   9 -153.75  144.28
 -15  -5   9  -24.40   32.79
  15   4  -9   77.20  158.08
  15   4  -9  -48.61   63.71
 -15  -4   9   50.43   30.45
 -15  -4   9   73.99  137.07
  15   3  -9  126.57  161.59
  15   3  -9  -59.63   63.14
 -15  -3   9  -29.62   29.72
 -15  -3   9 -129.79  127.40
  15   2  -9   73.43   60.93
  15   2  -9 -121.11  161.76
 -15  -2   9   -6.34   34.11
 -15  -2   9   92.13  122.08
  15   2   9   24.48   56.11
  15   1  -9 -170.90   65.79
 -15  -1  -9   55.93   26.24
  15   1  -9    3.97  164.79
 -15  -1  -9  -12.22  146.13
  15   1   9  -72.13   55.99
 -15  -1   9   16.21   35.46
 -15  -1   9  131.71  113.13
  15   1   9  -94.96  115.14
  15   0  -9    4.01  169.59
 -15   0  -9   -2.49   25.50
 -15   0  -9  -76.18  128.54
  15   0  -9 -122.02   67.48
 -15   0   9   60.95  102.05
  15   0   9  -81.85  110.40
  15   0   9  -36.27   57.18
 -15   0   9   16.43   34.25
  15  -1  -9 -173.45  168.70
  15  -1  -9    3.73   67.01
 -15   1  -9  147.67  123.93
 -15   1  -9   -2.33   21.77
 -15   1   9    4.59   99.14
  15  -1   9   -3.00  115.92
  15  -1   9   56.40   57.71
 -15   2  -9  -13.15   22.44
 -15   2  -9   13.29  109.11
  15  -2  -9   35.20   70.19
  15  -2  -9 -214.90  168.93
  15  -2   9   39.06  118.84
 -15   2   9  -55.39   95.96
  15  -2   9   12.07   58.73
  15  -3  -9    4.28   75.98
 -15   3  -9   32.27   97.99
  15  -3  -9 -368.75  174.46
 -15   3  -9    6.35   21.20
  15  -3   9   21.24  121.23
  15  -3   9  -44.78   56.38
 -15   3   9   13.94   97.18
  15  -4  -9   33.82   75.28
 -15   4   9  160.77  101.77
  16   7  -9   10.35   63.27
 -16  -7   9 -132.01  165.90
  16   6  -9  -38.66   65.25
  16   6  -9  381.09  165.02
 -16  -6   9   -3.51   34.93
 -16  -6   9  114.39  163.62
  16   5  -9 -215.91  166.87
  16   5  -9   46.48   67.35
 -16  -5   9    6.61  163.28
 -16  -5   9 -159.64   36.83
  16   4  -9    3.67   65.95
  16   4  -9 -118.56  175.21
 -16  -4   9  165.51  152.21
 -16  -4   9  -39.85   32.51
  16   3  -9 -178.24  182.18
  16   3  -9 -190.68   72.39
 -16  -3   9   49.61   33.19
 -16  -3   9  228.94  141.90
  16   2  -9  582.68  187.62
  16   2  -9  280.95   78.00
 -16  -2   9   10.31   41.57
 -16  -2   9  160.56  141.61
  16   2   9   10.23   69.03
 -16  -1  -9  -80.90  167.16
  16   1  -9  -61.60   71.85
  16   1  -9 -405.45  187.29
 -16  -1  -9   69.28   30.23
 -16  -1   9  -65.33  125.23
 -16  -1   9  -40.10   39.34
  16   1   9  -94.90   67.58
 -16   0  -9   55.04  154.35
  16   0  -9    3.97   70.48
 -16   0  -9   13.55   27.87
  16   0  -9 -555.39  191.73
 -16   0   9   78.61  123.48
  16   0   9 -392.79  136.41
  16   0   9  -93.74   66.75
 -16   0   9  -18.28   39.67
  16  -1  -9   -4.12   76.40
 -16   1  -9  -60.74  136.00
  16  -1  -9    4.40  191.17
 -16   1  -9  -22.97   27.39
 -16   1   9  -22.49   40.58
 -16   1   9 -111.84  111.86
  16  -1   9  -40.91   66.55
 -16   2  -9  311.24  123.05
  16  -2  -9  251.34  190.60
  16  -2  -9  184.85   82.36
 -16   2  -9   52.92   28.73
  16  -2   9   26.74   69.03
  16  -2   9  -49.24  146.21
 -16   2   9  -92.24  110.30
 -16   3  -9  -30.36   25.30
  16  -3  -9  -70.31   81.92
  16  -3  -9 -169.54  189.87
 -16   3  -9 -161.60  118.23
 -16   3   9   61.53  113.56
  16  -4  -9   -4.61   79.03
 -16   4   9   -5.33  113.14
 -17  -7   9 -206.61  188.19
  17   6  -9 -245.09  186.68
  17   6  -9 -134.81   73.86
 -17  -6   9  196.01  178.09
 -17  -6   9  -35.04   38.92
  17   5  -9 -160.06  183.71
  17   5  -9 -176.68   75.65
 -17  -5   9 -153.62  172.07
 -17  -5   9  -26.55   39.06
  17   4  -9    4.03   66.64
  17   4  -9   32.61  187.19
 -17  -4   9   -7.11  165.50
 -17  -4   9  -59.38   40.32
  17   3  -9  147.10  195.76
  17   3  -9   -4.09   71.73
 -17  -3   9   69.87   38.87
 -17  -3   9  141.61  156.57
  17   2  -9  -60.72  191.91
  17   2  -9  120.57   77.22
 -17  -2  -9 -129.93  209.65
  17   2   9  -45.15   72.25
 -17  -2   9   19.04   38.76
 -17  -2   9 -283.72  159.44
 -17  -1  -9  -88.69  185.40
  17   1  -9  -37.30  195.03
  17   1  -9  -50.83   74.79
 -17  -1  -9  -12.50   30.30
  17   1   9   -3.83   72.12
 -17  -1   9  -32.18   40.10
 -17  -1   9  -18.31  139.44
 -17   0  -9  217.65  168.89
  17   0  -9 -100.78   77.91
 -17   0  -9   23.71   28.00
  17   0  -9  132.72  192.12
  17   0   9   -3.61  136.69
 -17   0   9   92.70  129.32
  17   0   9  -79.69   69.74
 -17   0   9   24.65   41.87
 -17   1  -9  -13.94   26.51
  17  -1  -9  150.21   84.83
  17  -1  -9  -38.11  197.36
 -17   1  -9   24.26  151.46
  17  -1   9  -24.83  142.24
 -17   1   9   79.57   46.04
 -17   1   9  -45.39  124.14
  17  -1   9   45.36   71.44
  17  -2  -9  229.50  209.20
 -17   2  -9   76.48  135.59
 -17   2  -9  -42.47   26.16
  17  -2  -9   -4.87   84.22
 -17   2   9   96.89  124.71
  17  -2   9  -68.01  143.92
  17  -2   9  161.63   75.51
 -17   2   9   13.02   47.80
  17  -3  -9    4.82  195.28
  17  -3  -9  -56.40   91.93
 -17   3   9 -164.52  115.66
  17  -4  -9   30.26   92.59
 -17   4   9 -123.32  124.44
  18   7  -9 -106.33   74.55
 -18  -7   9    8.54  204.55
  18   6  -9    4.33   82.12
  18   6  -9   10.22  203.72
 -18  -6   9  193.39  205.37
 -18  -6   9  -25.95   41.35
  18   5  -9   85.76  202.42
  18   5  -9   22.25   85.72
 -18  -5   9   -8.47   40.43
 -18  -5   9   24.48  203.13
  18   4  -9 -209.06   84.17
 -18  -4   9 -287.28  203.24
 -18  -4   9   29.08   43.89
  18   3  -9  348.77  130.99
 -18  -3   9  770.10  219.16
 -18  -2  -9 -275.21  226.40
 -18  -2   9  -53.79   41.95
 -18  -2   9 -410.14  171.49
  18   2   9  -54.97   77.36
  18   1  -9  -19.23   88.98
 -18  -1  -9   -6.76   33.85
 -18  -1  -9 -148.10  207.39
  18   1  -9 -158.22  220.12
 -18  -1   9 -194.81  158.72
  18   1   9  -25.26   74.27
 -18  -1   9   73.88   44.25
  18   0  -9 -164.75   93.55
 -18   0  -9  -29.03   31.20
 -18   0  -9   30.09  186.87
  18   0  -9 -374.50  225.66
  18   0   9  -90.70  148.79
 -18   0   9   19.52  146.56
 -18   0   9   -9.15   43.48
  18   0   9  -38.87   83.03
  18  -1  -9 -243.45  222.75
 -18   1  -9  195.52  170.97
  18  -1  -9 -171.29   94.83
 -18   1  -9  -33.59   32.13
  18  -1   9 -188.87   78.37
 -18   1   9   -4.66   45.93
  18  -1   9  -50.38  149.47
 -18   1   9  -76.19  146.48
 -18   2  -9  -42.98  146.45
 -18   2  -9  -35.00   31.10
 -18   2   9 -140.01  146.70
 -18   2   9    9.58   48.25
 -18   3   9  397.15  177.21
 -18   4   9 -525.49  160.06
  19   5  -9 -266.64  180.70
  19   5  -9  -24.43   86.52
 -19  -5   9  161.20  228.62
  19   4  -9   61.83  225.42
  19   4  -9 -159.08   92.57
 -19  -4   9  -23.31   50.74
 -19  -4   9 -173.99  200.36
  19   3  -9  214.94  239.65
  19   3  -9   -5.07   91.10
 -19  -3   9  108.26  194.38
 -19  -3   9  -55.15   47.22
 -19  -2  -9  -68.00  234.03
  19   2  -9    5.17   96.57
  19   2  -9   -5.72  230.55
 -19  -2   9   23.14   46.92
 -19  -2   9  102.58  184.69
  19   2   9    4.74   86.36
 -19  -1  -9  -14.64   34.46
  19   1  -9   94.30  231.98
 -19  -1  -9 -336.60  231.88
  19   1  -9    5.32   94.21
 -19  -1   9   28.90   50.20
 -19  -1   9    7.54  170.58
  19   1   9  -23.71   88.40
 -19   0  -9   -7.02   33.52
  19   0  -9 -231.76  101.06
 -19   0  -9 -166.73  216.36
  19   0  -9  127.47  232.57
 -19   0   9   30.65   49.70
  19   0   9 -128.71   95.71
 -19   0   9  124.04  169.37
  19   0   9 -190.02  164.38
 -19   1  -9  -80.86  182.65
  19  -1  -9    5.74  100.43
  19  -1  -9  157.13  242.87
 -19   1  -9   13.40   32.74
 -19   1   9  -85.46  166.78
  19  -1   9 -190.65  168.39
 -19   1   9  157.35   53.09
  19  -1   9    9.43   84.90
  19  -2  -9    5.65  242.26
  19  -2  -9    5.92  110.96
 -19   2   9 -120.81  164.53
 -19   2   9   80.58   58.14
  19  -3  -9 -135.88  111.88
 -19   3   9    7.03  155.08
  19  -4  -9 -407.33  110.36
 -19   4   9   -7.21  151.55
 -20  -1  -9  279.76  247.61
  20   1   9   85.97  102.82
 -20   0  -9  289.58  233.29
 -20   0  -9   11.48   39.71
  20   0   9  156.24  178.52
  20   0   9  134.75   98.58
 -20   1  -9  -51.43   35.28
   0   0 -10 5177.11 1332.18
   0   0  10 4962.77 1146.13
   1   0 -10   15.53   53.31
   0   1 -10   11.83   53.31
  -1   0  10   24.41   34.15
   0  -1  10  -12.91   20.35
   1   1 -10  169.58   78.30
   1   1 -10  272.28   61.07
  -1  -1  10  203.64   60.24
  -1  -1  10  196.45   54.97
   2   1 -10   72.87   53.00
   2   1 -10   37.46   31.48
   1  -2  10   10.98   29.59
  -2  -1  10   30.88   30.78
  -2  -1  10   29.70   22.51
  -2   0  10 2507.24  562.42
   1   2 -10   70.72   24.97
   1   2 -10   22.50   51.94
   2  -1  10   -1.12   22.80
   2  -1  10   64.25   37.83
  -1  -2  10   40.48   22.97
   2   2 -10  423.55  113.00
   2   2 -10  475.61  137.76
  -2   2 -10  372.70  142.40
   2   2 -10  577.26  123.70
   2  -2  10  476.42  113.05
  -2  -2  10  663.46  117.90
  -2  -2  10  479.96  113.54
   2  -2  10  464.90  115.77
  -2  -2  10  431.22  112.59
   3   2 -10  207.49   75.59
  -2   3 -10  239.05   95.37
   3   2 -10  324.35   85.17
   3   2 -10  331.99   62.56
  -3  -2  10  262.20   67.31
   2  -3  10  354.97   67.03
  -3  -2  10  217.96   64.93
   2  -3  10  296.68   67.50
  -3  -2  10  236.44   65.06
   3   1 -10  184.35   58.98
   3   1 -10  122.24   29.44
   3   1 -10  105.16   47.56
  -1   3 -10  126.77   68.71
  -3  -1  10  115.62   31.77
   1  -3  10   87.14   33.31
  -3  -1  10   88.79   36.27
  -3  -1  10   73.33   32.45
   1  -3  10   84.06   34.32
  -3   0 -10  -28.56   68.53
   3   0 -10   12.23   33.52
  -3   0  10   11.84   31.67
   3   0  10  -10.53   26.50
   0  -3  10    3.60   21.73
   3   0  10   -5.40   48.68
  -3   1 -10   72.37   66.53
   1   3 -10  115.14   25.60
   1   3 -10  145.96   34.99
   3  -1  10   74.19   35.89
  -1  -3  10  110.00   28.33
  -1  -3  10  104.51   23.86
   3  -1  10   89.57   43.59
  -3   2 -10  274.79   98.83
   2   3 -10  257.40   62.97
   2   3 -10  262.31   89.00
   2   3 -10  323.27   73.36
  -2  -3  10  299.59   59.32
   3  -2  10  258.63   67.88
   3  -2  10  254.63   61.52
  -2  -3  10  238.97   67.03
  -2  -3  10  356.04   67.31
   3   3 -10    4.56   33.44
   3   3 -10    6.99    9.24
  -3   3 -10  -37.24   68.84
   3   3 -10   22.28   52.50
  -3   3 -10    6.89   12.02
  -3   3 -10    8.65    3.63
   3   3 -10    2.92   11.98
   3  -3  10   10.36   16.49
  -3  -3  10    1.14    6.14
  -3  -3  10   27.64   18.09
  -3  -3  10   16.24   20.40
   3  -3  10   14.31   27.01
  -3  -3  10   38.55   22.78
   3  -3  10   15.08    8.48
   4   3 -10   -0.95   41.08
  -3   4 -10  -47.17   71.57
   4   3 -10    3.19    9.91
   4   3 -10  -10.51   48.92
   4   3 -10   -2.21   14.97
  -4  -3  10   17.28   26.77
   3  -4  10  -20.20   27.38
  -4  -3  10   -0.72   16.02
  -4  -3  10    2.17    7.30
  -4  -3  10   -2.11   20.17
   3  -4  10    7.62   18.74
  -2   4 -10  119.36   26.23
   4   2 -10   89.68   53.25
   4   2 -10   68.70   26.69
   4   2 -10   93.14   48.67
   2  -4  10  145.29   36.06
  -4  -2  10  165.67   34.87
  -4  -2  10   87.36   29.27
   2  -4  10   93.08   32.59
  -4  -2  10   86.01   30.67
   4   1 -10  156.30   38.86
  -1   4 -10  110.76   35.81
   4   1 -10  248.06   55.79
   4   1 -10  252.53   66.18
  -4  -1  10  125.08   40.97
   1  -4  10  109.46   43.15
  -4  -1  10  193.41   42.50
   1  -4  10  140.20   40.10
  -4  -1  10  200.00   43.92
  -4   0 -10  -41.11   78.19
   0   4 -10   -6.86   12.29
   4   0 -10   -1.29   20.95
   0  -4  10   -4.11   24.64
  -4   0  10   20.96   32.78
   4   0  10    8.44   48.15
   0  -4  10   13.22   20.74
   4   0  10  -11.21   29.57
   1   4 -10  106.31   30.70
   1   4 -10  120.90   30.21
  -4   1 -10  116.57   75.69
   4  -1  10  173.41   50.80
  -1  -4  10  159.32   34.75
   4  -1  10  138.31   39.95
   4  -1  10  125.65   30.84
  -4   2 -10   85.70   19.44
  -4   2 -10  139.92   79.24
   2   4 -10  107.61   22.45
   4  -2  10   74.66   33.92
   4  -2  10  101.78   40.15
   4  -2  10   66.11   20.79
  -4   3 -10   11.98    5.25
  -4   3 -10    2.75   20.19
  -4   3 -10   18.08   70.17
   3   4 -10   18.60   12.56
   3   4 -10  -43.04   36.59
  -3  -4  10   -9.23   21.94
  -3  -4  10    4.05    6.33
   4  -3  10    4.98   30.27
   4  -3  10    5.01   26.60
   4  -3  10    3.16   11.48
   4  -3  10   35.62   29.50
  -4   4 -10  481.15  129.46
   4   4 -10  371.05   84.22
   4   4 -10  377.13   90.00
  -4   4 -10  403.69   84.59
  -4  -4  10  425.02   82.53
  -4  -4  10  373.63   86.76
   4  -4  10  331.65  100.25
   4  -4  10  320.52   89.51
  -4  -4  10  403.27   90.98
   4  -4  10  399.20   93.62
   5   4 -10  381.96   92.31
   5   4 -10  269.20  117.11
  -4   5 -10  444.70   90.88
  -5  -4  10  459.41   98.38
   4  -5  10  389.42  111.27
   4  -5  10  409.12   99.77
  -5  -4  10  444.44   88.40
   4  -5  10  484.03   95.12
   5   3 -10   62.08   58.84
   5   3 -10  144.05   57.26
   5   3 -10  112.27   29.16
   3  -5  10  132.76   43.08
  -5  -3  10  131.73   32.47
  -5  -3  10  121.46   35.59
   3  -5  10  128.64   43.72
  -5  -3  10  132.60   28.08
   5   2 -10  438.66  111.86
  -2   5 -10  274.54   85.73
   5   2 -10  310.85   84.73
   5   2 -10  598.00  108.24
  -5  -2  10  365.81   93.37
   2  -5  10  486.94   93.81
   2  -5  10  460.87   89.23
  -5  -2  10  344.14   89.48
  -1   5 -10   11.50   15.00
   5   1 -10   -6.67   54.38
   1  -5  10    8.22   20.43
   1  -5  10    2.38   27.14
  -5  -1  10   22.87   22.42
   0   5 -10    4.40   13.27
   5   0 -10   22.10   22.79
  -5   0 -10  -46.05   78.89
   5   0 -10   -9.74   53.20
  -5   0  10    5.24   30.75
  -5   0  10   -2.95   29.17
   0  -5  10    2.25   26.55
   0  -5  10   -4.46   19.88
   5   0  10  -37.45   32.42
   5   0  10  -11.82   51.62
   5  -1 -10    2.78   45.77
   1   5 -10   19.94   14.02
  -5   1 -10  -14.60   76.22
   5  -1  10   26.73   46.05
   5  -1  10   42.57   30.73
  -1  -5  10   11.54   20.54
  -1  -5  10    6.49   25.21
   5  -1  10   13.81   12.18
  -5   1  10   28.36   29.26
  -5   2 -10  553.79  126.33
  -5   2 -10  226.92   91.64
  -5   2 -10  388.33   83.59
   2   5 -10  473.69   88.39
   2   5 -10  456.84   83.08
   5  -2  10  375.69   84.26
   5  -2  10  267.23   93.74
   5  -2  10  412.21   90.39
  -2  -5  10  372.55   90.58
  -2  -5  10  374.50   85.28
   5  -2  10  306.76  100.14
   3   5 -10  158.26   35.88
  -5   3 -10  151.94   34.33
  -5   3 -10  109.68   92.32
  -5   3 -10  106.55   43.87
   3   5 -10  172.86   37.99
  -3  -5  10  193.52   37.99
   5  -3  10  102.39   46.73
   5  -3  10  189.49   50.83
   5  -3  10  173.10   36.90
   5  -3  10  112.12   47.43
  -5   4 -10  394.20   84.47
  -5   4 -10  249.31  140.90
  -5   4 -10  285.20   97.89
   5  -4  10  299.44   94.90
   5  -4  10  422.94  103.12
   5  -4  10  395.89   89.70
   5  -4  10  480.92   91.28
   5   5 -10    2.90   18.43
  -5   5 -10    7.04   18.50
  -5  -5  10    1.07   10.20
   5  -5  10   -7.32   38.24
   5  -5  10    1.49   28.37
   5  -5  10    4.55   36.25
  -5  -5  10    0.86   24.63
  -5   6 -10  115.91   32.05
   6   5 -10  173.13   64.84
   6   5 -10  134.15   34.25
  -6  -5  10  126.39   36.58
   5  -6  10   61.69   37.26
   5  -6  10   87.98   44.74
  -6  -5  10   86.16   26.67
   6   4 -10   68.32   26.56
   6   4 -10  138.79   57.18
  -4   6 -10   29.56   24.11
  -6  -4  10   72.23   17.57
   4  -6  10   51.62   30.41
  -6  -4  10  107.00   26.46
   4  -6  10   69.91   40.92
   6   3 -10 1555.18  438.65
   6   3 -10 1751.95  379.68
   6   3 -10 1679.57  400.92
  -6  -3  10 1794.99  352.32
  -6  -3  10 1674.93  376.44
  -6  -3  10 1835.25  400.28
   3  -6  10 1484.45  378.01
  -6  -3  10 1671.49  386.81
   6   2 -10  251.13   51.72
  -2   6 -10  169.77   45.20
   6   2 -10  289.98   43.17
  -6  -2  10  121.28   46.40
   2  -6  10  177.97   49.46
  -6  -2  10   94.89   52.83
  -6  -2  10  228.62   60.31
   2  -6  10  172.68   54.98
   6   1 -10  515.57  109.12
   6   1 -10  470.24  139.12
   1  -6  10  445.16  107.47
   1  -6  10  485.35  112.53
  -6  -1  10  462.31  111.84
  -6  -1  10  383.36  119.12
   6   0 -10   72.89   70.99
  -6   0 -10 -100.71   98.85
   6   0 -10   91.83   34.45
   0   6 -10  128.23   28.82
   6   0  10   75.49   65.00
  -6   0  10  140.62   40.69
   0  -6  10  154.83   32.53
  -6   0  10  107.95   42.56
   0  -6  10   87.17   36.75
   6   0  10   59.36   42.70
   6  -1 -10  545.62  146.34
   1   6 -10  590.20  118.28
   6  -1 -10  640.79  125.80
  -6   1 -10  466.19  167.02
  -1  -6  10  543.22  124.69
   6  -1  10  526.27  126.42
  -6   1  10  556.27  132.24
  -1  -6  10  544.22  120.46
   6  -1  10  507.49  122.77
   6  -1  10  464.00  135.12
  -6   2 -10  186.87  102.91
  -6   2 -10  153.14   56.99
  -6   2 -10  188.35   43.69
   2   6 -10  254.01   46.05
   6  -2 -10  236.34   78.22
   6  -2  10  184.76   59.44
  -2  -6  10  166.46   51.50
   6  -2  10  182.71   56.18
   6  -2  10  189.36   45.39
  -6   3 -10 1744.07  390.02
  -6   3 -10 1679.24  451.42
  -6   3 -10 1696.82  365.41
   6  -3  10 1578.12  372.01
   6  -3  10 1633.41  378.60
   6  -3  10 1845.65  374.02
   6  -3  10 1676.27  418.37
  -3  -6  10 1654.32  380.66
  -6   4 -10   29.65   32.92
  -6   4 -10   46.12   12.85
  -6   4 -10   72.34   21.31
  -6   4 -10  153.22   97.03
   6  -4  10   48.00   23.29
   6  -4  10    7.37   40.68
  -4  -6  10    2.94   26.82
   6  -4  10  107.85   34.01
   6  -4  10   58.53   38.31
  -6   5 -10  106.54  100.26
   5   6 -10  147.45   33.01
  -6   5 -10   96.26   31.58
   6  -5  10   84.31   40.05
   6  -5  10  106.67   48.15
   6   6 -10   15.91   21.08
  -6   6 -10   -1.62   21.66
   6  -6  10    3.47   44.16
   6  -6  10   22.53   29.09
  -6   7 -10    7.05   22.32
   7   6 -10  -19.64   24.46
   6  -7  10   13.72   33.93
   6  -7  10    7.45   47.89
   7   5 -10   65.10   27.29
  -5   7 -10   27.06   24.83
   7   5 -10   43.63   63.04
  -7  -5  10   58.06   16.98
   5  -7  10   44.42   32.56
   5  -7  10   40.77   44.25
  -4   7 -10  662.86  139.85
   7   4 -10  590.12  150.24
   7   4 -10  564.27  165.63
   4  -7  10  617.87  150.71
  -7  -4  10  799.74  166.80
   4  -7  10  651.22  143.65
   7   3 -10    9.55   63.13
   7   3 -10   23.13   24.60
  -7  -3  10    1.22   11.07
  -7  -3  10   18.22   45.32
   3  -7  10   -6.19   35.79
   7   2 -10 1358.09  290.91
   7   2 -10 1104.40  262.23
  -7  -2  10 1100.12  277.06
  -7  -2  10 1191.88  245.01
   2  -7  10 1187.45  254.21
   2  -7  10  994.85  260.81
  -1   7 -10  338.36   68.13
   7   1 -10  277.91   71.99
   7   1 -10  300.15  103.57
   1  -7  10  336.82   71.45
   7   1  10  232.81  100.64
  -7  -1  10  298.59   81.26
   1  -7  10  278.55   73.86
   0   7 -10  -29.17   18.03
   7   0 -10   -4.78   27.77
   7   0 -10    7.41   70.31
  -7   0 -10   -7.84   96.30
   0  -7  10   11.55   28.22
   7   0  10   33.65   61.00
   7   0  10   12.94   17.70
  -7   0  10   -1.87   38.77
   7   0  10   36.11   36.74
  -7   1 -10  288.90   68.63
   7  -1 -10  289.32   76.62
   7  -1 -10  245.92  100.98
  -7   1 -10  381.71  122.95
   7  -1  10  404.30   78.90
  -7   1  10  310.09   81.44
   7  -1  10  300.36   89.82
   7  -1  10  275.02   71.05
   7  -1  10  338.59   87.86
  -1  -7  10  312.38   73.81
  -7   2 -10 1460.64  314.00
   7  -2 -10 1202.10  283.21
   7  -2  10 1060.45  256.20
  -7   2  10  958.89  272.02
   7  -2  10 1204.46  288.78
  -2  -7  10 1044.28  254.68
   7  -2  10  935.59  259.07
  -7   3 -10  -44.57   96.04
  -7   3 -10    4.32    9.04
   7  -3  10   -7.36   36.33
  -3  -7  10    6.69   26.85
   7  -3  10   -7.59   36.98
  -7   4 -10  753.60  199.49
  -7   4 -10  698.73  136.25
   7  -4  10  555.69  148.62
   7  -4  10  499.94  141.43
  -7   5 -10  178.36  108.88
  -7   5 -10   26.45   24.30
   7  -5  10   86.68   45.74
   7  -5  10   52.40   55.84
   7  -5  10   43.95   33.15
  -7   6 -10   13.54   23.61
   6   7 -10   17.17   19.86
   7  -6  10    1.84   45.15
   7  -6  10  -23.47   33.20
   7   7 -10   26.35   23.95
  -7   7 -10   33.08   24.28
   7  -7  10   12.50   33.58
   7  -7  10   32.06   50.91
   8   7 -10    1.50   27.85
  -7   8 -10    8.13   25.15
   7  -8  10   32.87   37.21
   7  -8  10   39.12   54.92
  -6   8 -10   17.61   25.19
   8   6 -10  -29.78   28.39
   6  -8  10    1.86   34.48
  -8  -6  10  -16.41   15.03
   6  -8  10  -10.23   50.70
  -5   8 -10    9.45   26.50
   8   5 -10   14.83   69.18
   8   5 -10  -13.36   27.78
  -8  -5  10    1.47   14.04
   5  -8  10   10.63   32.90
   5  -8  10  -24.86   47.17
   8   4 -10  144.23   82.93
   8   4 -10  161.58   45.11
  -4   8 -10  150.05   40.23
   4  -8  10  201.29   52.86
  -8  -4  10  128.67   67.24
  -8  -4  10  148.21   34.70
   8   3 -10  124.25   35.02
   8   3 -10  124.20   75.92
  -3   8 -10  116.41   30.28
  -8  -3  10   37.98   22.40
   3  -8  10   56.53   42.57
  -8  -3  10  129.35   57.52
   8   2 -10   74.86   37.79
   8   2 -10  226.69   84.05
  -8  -2  10  109.12   27.77
  -8  -2  10  139.69   58.89
   8   1 -10  102.62   81.19
   8   1 -10   69.51   33.06
  -8  -1  10   25.56   47.25
   8   1  10  167.86   75.18
   8   1  10   68.04   26.65
   8   0 -10   71.19   36.11
  -8   0 -10  103.23  103.85
   8   0 -10   79.77   81.69
  -8   0  10  127.71   48.04
   8   0  10   62.09   65.37
   8   0  10   81.57   30.07
   8   0  10  118.18   47.74
   8  -1 -10  149.18   79.70
  -8   1 -10   52.19   20.77
   8  -1 -10  107.11   38.67
  -8   1 -10   67.64  103.94
   8  -1  10  104.43   42.77
   8  -1  10   70.81   58.01
  -8   1  10   85.32   47.84
   8  -1  10   90.03   26.43
   8  -1  10   57.17   54.82
  -8   2 -10  125.76  107.11
  -8   2 -10   98.35   29.33
  -8   2 -10   80.61   51.47
   8  -2 -10  139.16   82.40
   8  -2 -10  112.77   45.45
   8  -2  10  151.87   34.98
   8  -2  10  162.11   48.65
   8  -2  10  113.77   51.96
   8  -2  10  176.66   62.28
  -8   2  10  161.48   54.86
  -8   3 -10   16.72   50.39
  -8   3 -10  152.61   28.51
  -8   3 -10  139.28  112.11
  -8   3 -10  110.70   35.47
   8  -3  10  150.88   48.25
   8  -3  10  111.46   34.53
   8  -3  10  156.74   61.94
   8  -3  10  111.93   49.85
  -8   4 -10  127.39   35.45
  -8   4 -10   84.70   50.68
  -8   4 -10  183.19  120.41
  -8   4 -10  109.44   27.99
   8  -4  10  180.65   64.04
   8  -4  10   71.37   50.85
   8  -4  10  111.54   43.95
   8  -4  10  119.48   36.58
  -8   5 -10   14.70   21.73
  -8   5 -10   45.65  118.42
  -8   5 -10   -7.48   44.27
   8  -5  10    5.07   33.58
   8  -5  10   27.87   45.95
  -8   6 -10   19.49   25.11
   8  -6  10   -7.84   51.28
   8  -6  10   -8.71   34.12
  -8   7 -10   19.15   27.65
   8  -7  10  -82.01   55.31
   8  -7  10  -11.12   35.70
  -8   8 -10  236.63   52.93
   8  -8  10  104.59   76.93
   8  -8  10  196.82   61.33
   8  -9  10    2.58   64.77
   9   7 -10   35.42   31.76
   7  -9  10    9.55   59.58
   9   6 -10  149.67   88.81
   9   6 -10  195.27   45.39
  -9  -6  10   89.55   33.78
   9   5 -10   99.65   36.29
   9   5 -10   87.46   82.69
  -9  -5  10   69.88   23.34
   9   4 -10   30.60   31.79
   9   4 -10  -12.53   84.54
  -9  -4  10   10.68   14.61
  -9  -4  10   36.72   64.67
   9   3 -10  115.80   43.59
   9   3 -10  107.86   89.42
  -9  -3  10  202.79   70.93
  -9  -3  10  131.64   32.53
   9   2 -10  183.46   90.67
   9   2 -10   53.48   39.43
  -9  -2  10  155.25   59.16
   9   1 -10  -11.43   93.68
   9   1 -10  -25.74   33.74
   9   1  10   55.74   73.69
  -9  -1  10   -7.30   49.13
   9   1  10   41.48   26.24
  -9   0 -10  -15.71   11.71
  -9   0 -10   62.75  111.88
   9   0 -10   75.72   95.39
   9   0 -10   36.74   35.99
   9   0  10    6.31   65.85
   9   0  10  -21.89   45.87
  -9   0  10    9.57   48.85
   9   0  10   -4.31   25.39
   9  -1 -10   10.84   37.66
   9  -1 -10   -4.71   90.88
  -9   1 -10    9.23   12.01
  -9   1 -10   64.58  113.20
   9  -1  10   32.37   62.14
   9  -1  10    5.24   56.34
  -9   1  10    4.96   47.65
   9  -1  10   54.26   44.58
   9  -1  10   -5.27   23.10
  -9   2 -10   37.58  112.08
  -9   2 -10    4.13   51.73
  -9   2 -10   44.16   17.61
   9  -2 -10   86.31   92.55
   9  -2 -10   56.07   42.39
   9  -2  10  101.80   48.81
   9  -2  10  124.72   62.84
   9  -2  10   92.14   44.29
  -9   2  10   68.10   52.23
   9  -2  10   47.10   27.00
  -9   3 -10  175.46   37.81
   9  -3 -10  157.23   89.65
  -9   3 -10  187.29  126.13
  -9   3 -10   62.25   55.20
  -9   3 -10  113.24   29.08
   9  -3  10   78.82   36.68
  -9   3  10   63.56   60.26
   9  -3  10  161.17   51.32
   9  -3  10  100.53   49.04
   9  -3  10  196.24   71.34
  -9   4 -10    3.22   12.83
  -9   4 -10   17.29   46.26
  -9   4 -10   33.13   23.61
  -9   4 -10   14.72  124.52
   9  -4  10   -1.77   47.03
   9  -4  10   48.69   37.12
   9  -4  10   40.83   65.94
   9  -4  10   33.88   27.91
  -9   5 -10   12.22  133.38
  -9   5 -10   51.39   26.78
  -9   5 -10   31.71   49.90
   9  -5  10   42.68   50.73
   9  -5  10   57.76   37.99
  -9   6 -10  124.29   42.10
  -9   6 -10  163.43  139.65
   9  -6  10  205.10   65.35
   9  -6  10  140.94   49.93
  -9   7 -10   99.89   33.39
   9  -7  10   58.84   62.16
   9  -7  10   88.34   43.62
  -9   8 -10    4.40   26.87
   9  -8  10 -104.07   65.00
   9  -8  10   -2.08   41.01
   9  -9  10   46.00   69.52
  10   7 -10   69.12   36.83
  10   6 -10   52.90   36.53
  10   6 -10  -45.32   90.79
 -10  -6  10   -5.89   19.43
  10   5 -10   86.95   42.13
  10   5 -10   48.60   90.04
 -10  -5  10  102.90   27.65
 -10  -5  10  148.20   79.29
  10   4 -10 -282.02   95.63
  10   4 -10   46.74   36.91
 -10  -4  10   66.85   75.75
 -10  -4  10   41.31   17.71
  10   3 -10  -13.65   38.78
 -10  -3  10   10.87   18.86
 -10  -3  10  119.38   71.64
  10   2 -10   29.46  100.29
  10   2 -10  -48.32   37.35
 -10  -2  10  -14.50   18.97
 -10  -2  10   78.30   65.45
  10   1 -10   35.31   36.48
  10   1 -10  -38.23  105.71
  10   1  10    3.66   74.83
 -10  -1  10   13.80   60.63
  10   1  10   -5.23   30.06
 -10   0 -10  112.02  127.17
  10   0 -10   97.46   46.44
 -10   0 -10  107.72   29.62
  10   0 -10  123.10  106.39
  10   0  10  174.04   75.94
  10   0  10  126.02   71.99
  10   0  10  128.10   40.21
 -10   0  10   70.56   61.64
  10  -1 -10   73.38  103.37
  10  -1 -10  -23.96   40.17
 -10   1 -10  -20.67   12.74
 -10   1 -10  -16.22   64.10
 -10   1 -10   15.02  123.17
  10  -1  10   -1.54   27.87
 -10   1  10   19.18   57.98
  10  -1  10   34.59   58.22
  10  -1  10   27.21   49.01
  10  -1  10   47.12   69.59
  10  -2 -10   25.96  100.04
 -10   2 -10   -2.41   57.90
  10  -2 -10   24.25   46.91
 -10   2 -10   17.16  118.26
 -10   2 -10  -14.76   14.02
  10  -2  10  -24.84   49.68
  10  -2  10    1.52   27.55
 -10   2  10   14.29   58.65
  10  -2  10   32.08   73.01
  10  -2  10   12.61   46.47
 -10   3 -10  117.70  146.81
  10  -3 -10  -25.96  106.54
 -10   3 -10  -20.17   61.56
 -10   3 -10    7.68   16.68
 -10   3 -10  -17.72   29.26
  10  -3 -10  -66.34   50.35
  10  -3  10  163.72   35.90
  10  -3  10  273.00   56.03
  10  -3  10   64.86   46.86
 -10   3  10  -65.46   60.99
  10  -3  10  122.00   82.03
 -10   4 -10   55.77   17.41
 -10   4 -10  101.36   30.51
 -10   4 -10   52.02   53.86
 -10   4 -10   97.01  139.15
  10  -4  10   69.50   33.40
  10  -4  10   46.08   50.77
  10  -4  10   -1.82   40.57
  10  -4  10   -8.60   78.03
 -10   5 -10   95.50  142.40
 -10   5 -10  105.25   33.69
  10  -5  10   63.33   42.77
  10  -5  10  104.14   57.16
 -10   6 -10    5.81   26.85
 -10   6 -10  -48.25  150.04
  10  -6  10   29.91   41.85
  10  -6  10   62.43   60.23
 -10   7 -10   56.21   31.88
 -10   7 -10  151.16  152.80
  10  -7  10   91.17   67.07
  10  -7  10   31.78   43.75
 -10   8 -10   11.44   32.22
  10  -8  10    2.15   41.88
  10  -8  10   62.12   67.94
  11   7 -10   20.84   40.01
  11   6 -10  -43.47   38.68
  11   6 -10  -10.41   94.86
 -11  -6  10   -2.16   20.58
  11   5 -10  -51.43   40.83
  11   5 -10   10.29   99.33
 -11  -5  10  -22.65   86.89
 -11  -5  10   38.19   19.40
  11   4 -10   -5.26  106.28
  11   4 -10   43.35   40.86
 -11  -4  10  -90.17   82.10
 -11  -4  10  -11.60   20.41
  11   3 -10   10.92   40.95
  11   3 -10   31.52  106.29
 -11  -3  10   -2.04   19.56
 -11  -3  10    3.46   83.28
  11   2 -10   -6.77   44.56
  11   2 -10   76.60  108.85
 -11  -2  10   13.15   77.41
 -11  -2  10   39.17   22.44
  11   1 -10  109.59   61.56
  11   1 -10  118.22  125.58
  11   1  10  199.32   55.98
 -11  -1  10  236.77   46.08
 -11  -1  10  174.36   84.69
  11   1  10  187.73   87.68
  11   0 -10   57.82  118.42
  11   0 -10  -33.85   44.40
 -11   0 -10    1.79   17.91
 -11   0 -10   54.82  123.46
 -11   0  10  -36.48   66.51
  11   0  10  -74.44   77.48
  11   0  10  -64.79   67.94
  11   0  10   11.17   34.70
  11  -1 -10  218.49  128.02
 -11   1 -10  247.25  147.90
 -11   1 -10  113.66   95.04
 -11   1 -10  205.21   49.57
  11  -1 -10  161.38   67.83
 -11   1  10  191.65   84.75
  11  -1  10  280.34   70.74
  11  -1  10  261.61   58.94
  11  -1  10  318.01   75.99
  11  -1  10  118.81   90.05
  11  -2 -10   34.00   52.14
 -11   2 -10  217.22  141.05
 -11   2 -10   11.94   15.46
  11  -2 -10    8.62  110.15
 -11   2 -10   60.82   70.15
  11  -2  10   -7.95   83.04
 -11   2  10  -37.67   63.75
  11  -2  10  -27.45   49.89
  11  -2  10  -24.84   34.04
  11  -2  10   34.43   47.96
  11  -3 -10   25.63  110.21
  11  -3 -10   17.87   52.08
 -11   3 -10   58.44  133.49
 -11   3 -10  -22.15   26.15
 -11   3 -10  -25.56   62.01
 -11   3 -10   14.29   14.44
  11  -3  10   -8.04   45.98
  11  -3  10   -1.81   33.50
  11  -3  10  -28.51   77.45
 -11   3  10   67.03   65.50
  11  -3  10   57.96   51.45
 -11   4 -10   36.62   25.63
 -11   4 -10   55.88  150.34
 -11   4 -10   18.25   15.85
 -11   4 -10  -17.02   60.17
  11  -4  10   20.55   40.93
  11  -4  10   -3.81   50.03
 -11   5 -10    3.80   28.08
 -11   5 -10 -193.30  163.47
  11  -5  10   16.30   39.05
  11  -5  10   36.97   53.78
 -11   6 -10  -70.23  162.72
 -11   6 -10   -8.14   29.66
  11  -6  10   19.17   38.59
  11  -6  10   -6.89   62.71
 -11   7 -10    8.67   31.07
 -11   7 -10   50.80  170.62
  11  -7  10  -15.26   68.07
  11  -7  10  -30.72   41.82
  11  -8  10   -2.75   74.19
  12   4 -10   31.27   44.72
 -12  -4  10    8.14   98.42
  12   3 -10 -102.72   50.15
  12   3 -10   -2.92  108.82
 -12  -3  10  136.48   91.99
 -12  -3  10   98.15   24.68
 -12  -2  10  125.89   91.00
 -12  -2  10  137.13   36.92
 -12  -1  10  118.61   83.99
  12   0 -10   -3.15  118.90
  12   0 -10  150.74   59.41
 -12   0 -10  149.40   36.81
 -12   0  10  210.76   83.71
  12   0  10  171.28   50.12
  12   0  10   72.18   93.31
  12  -1 -10   23.38   53.63
 -12   1 -10    1.81   17.89
 -12   1 -10   47.76  134.44
 -12   1 -10  -72.70   88.32
 -12   1  10   20.25   74.39
  12  -1  10    2.22   82.60
  12  -1  10   26.49   40.63
 -12   2 -10   53.12   78.94
 -12   2 -10  130.87   36.04
 -12   2 -10   39.55   21.34
 -12   2 -10   75.29  148.84
  12  -2  10    8.80   88.07
  12  -2  10   58.50   38.99
 -12   3 -10   -1.58   15.00
 -12   3 -10  -42.13  144.45
 -12   3 -10   45.46   65.43
 -12   3 -10    7.66   27.44
  12  -3  10   -2.05   38.67
  12  -3  10  -15.84   45.83
  12  -3  10   19.46   53.51
  12  -3  10  102.06   90.48
 -12   4 -10   22.18   17.90
 -12   4 -10   23.06   29.12
 -12   4 -10 -123.76  157.05
 -12   4 -10   51.63   68.09
  12  -4 -10  -31.62  122.47
  12  -4  10   37.33   40.93
  12  -4  10  113.69   54.51
 -12   5 -10  -14.85  162.95
 -12   5 -10   11.91   30.13
  12  -5  10  -52.12   42.55
  12  -5  10   12.61   57.78
 -12   6 -10  -91.43  180.53
 -12   6 -10  -21.15   33.08
  12  -6  10  -19.70   43.70
  12  -6  10  -20.98   67.02
 -12   7 -10  -58.94  189.09
 -12   7 -10   -2.25   29.12
  12  -7  10   77.90   44.17
  12  -7  10   28.95   68.85
  12  -9  10  -88.84   86.62
  13   7 -10  -82.03   49.16
 -13  -7  10   24.53   26.22
  13   6 -10    7.86   47.71
  13   6 -10    3.14  120.36
 -13  -6  10   13.07   24.78
 -13  -6  10   -9.73  119.53
  13   5 -10   31.62  124.09
  13   5 -10  -18.71   48.22
 -13  -5  10    9.34  105.94
 -13  -5  10    2.49   22.76
  13   4 -10  133.06   56.02
  13   4 -10 -100.42  133.49
 -13  -4  10   19.32   27.20
 -13  -4  10  319.06  114.93
  13   3 -10   -2.77   44.38
  13   3 -10 -315.76  151.81
 -13  -3  10  -17.43   25.20
 -13  -3  10   -4.37   93.35
 -13  -2  10   26.08   27.54
  13   2  10   30.19   41.14
  13   1 -10 -193.96  148.76
  13   1  10  -17.14   43.82
 -13  -1  10   31.60   27.33
 -13   0 -10  208.25  107.71
  13   0 -10  -96.37  145.40
 -13   0 -10   -2.15   21.35
  13   0  10  -16.48   44.01
  13   0  10   -7.62   96.07
  13  -1 -10 -212.90  145.68
  13  -1 -10  171.17   54.33
 -13   1 -10  -19.51   98.30
 -13   1 -10   25.71   21.97
  13  -1  10   65.30   44.20
  13  -1  10 -112.03   97.56
 -13   1  10  426.75   85.22
  13  -2 -10   -3.39   59.90
 -13   2 -10   28.37   81.97
  13  -2 -10 -321.65  141.31
 -13   2 -10  -27.13   18.60
  13  -2  10   18.79   44.69
 -13   2  10    3.84   76.40
  13  -2  10  -58.15   97.17
  13  -3 -10  -60.61   66.80
 -13   3 -10  -32.07   83.11
 -13   3 -10  -13.68   19.11
 -13   3  10  -79.49   84.44
  13  -3  10  -95.57   47.81
  13  -3  10 -125.35  103.02
  13  -4 -10  -34.69  141.46
 -13   4  10  119.52   84.22
  14   7 -10    2.82   55.93
 -14  -7  10    2.99   29.26
 -14  -7  10   49.86  131.44
  14   6 -10   11.53   50.70
  14   6 -10 -290.74  135.59
 -14  -6  10   21.56  128.54
 -14  -6  10    2.89   28.97
  14   5 -10  146.60   60.19
  14   5 -10  248.19  138.79
 -14  -5  10   24.92   31.94
 -14  -5  10  125.66  123.22
  14   4 -10   60.78  144.51
  14   4 -10   53.81   52.39
 -14  -4  10  -80.81  122.98
 -14  -4  10    2.70   29.01
  14   3 -10   10.70  154.74
  14   3 -10 -125.13   60.11
 -14  -3  10  -13.84   29.36
 -14  -3  10   86.36  119.13
  14   2 -10  -25.46   62.83
  14   2 -10    3.63  163.12
 -14  -2  10  109.67  115.25
 -14  -2  10  -14.68   31.69
  14   2  10  223.63   54.36
  14   1 -10   60.95   60.93
 -14  -1 -10  -12.38   23.76
  14   1 -10   14.90  160.28
 -14  -1  10  -49.95   30.55
 -14  -1  10  -82.96   99.42
  14   0 -10    9.93   64.91
  14   0 -10 -267.04  165.93
 -14   0  10  -55.06   95.21
 -14   0  10   -3.01   32.50
  14  -1 -10  224.59   75.28
  14  -1 -10   -3.77  163.47
 -14   1  10   95.58   98.52
 -14   2 -10  -11.99  102.47
  14  -2 -10    3.72   67.52
  14  -2 -10   -3.81  152.60
  14  -2  10   34.25   48.19
 -14   2  10  -72.15   89.16
  14  -3 -10  -89.87   69.21
 -14   3 -10   97.67   88.75
  14  -3 -10    3.80  156.84
 -14   3  10  164.53   93.79
  14  -4 -10 -186.12  155.92
 -14   4  10  -97.10   88.45
  15   7 -10    6.31   59.12
 -15  -7  10   12.25  144.53
 -15  -7  10   29.57   33.83
  15   6 -10 -194.80  154.22
  15   6 -10 -129.08   61.59
 -15  -6  10  -83.17  138.10
 -15  -6  10   47.95   31.08
  15   5 -10  -55.97   59.98
  15   5 -10   68.74  152.56
 -15  -5  10    6.17   30.14
 -15  -5  10  -64.28  139.52
  15   4 -10 -114.21  159.73
  15   4 -10    3.39   66.60
 -15  -4  10  -54.10   30.98
 -15  -4  10   45.18  139.86
  15   3 -10  -17.21   64.40
  15   3 -10   20.10  168.57
 -15  -3  10  -58.95  126.41
 -15  -3  10  -15.05   29.91
  15   2 -10  139.49   65.28
  15   2 -10 -348.19  173.30
 -15  -2  10  -20.52  125.38
 -15  -2  10    6.48   34.65
  15   2  10  -74.31   60.22
  15   1 -10   -3.54   68.10
 -15  -1 -10  -26.77   27.09
  15   1 -10  -85.23  170.92
 -15  -1 -10   12.23  146.66
  15   1  10  126.96   54.34
 -15  -1  10 -108.99   34.43
 -15  -1  10    4.89  111.23
  15   0 -10  142.88  175.33
  15   0 -10 -267.01   72.30
 -15   0 -10   22.72   25.97
 -15   0 -10    5.44  135.52
  15   0  10   60.81   54.64
  15   0  10  -33.17  113.25
 -15   0  10   -6.71   35.25
 -15   0  10  116.83  105.31
 -15   1 -10   78.93  116.74
 -15   1 -10   21.05   23.12
  15  -1 -10   23.59   70.76
  15  -1 -10 -139.30  168.55
  15  -1  10    8.73  113.14
  15  -1  10  -98.42   52.46
 -15   1  10   13.86  103.78
 -15   2 -10   13.18  108.21
  15  -2 -10  223.33  179.78
  15  -2 -10  -28.62   77.34
 -15   2 -10  -10.92   22.31
  15  -2  10  -30.25   55.85
 -15   2  10   98.52  100.32
  15  -2  10    5.79  114.46
  15  -3 -10   54.07  172.67
  15  -3 -10   25.74   74.48
 -15   3  10 -218.55  100.00
  15  -4 -10   34.47   74.72
  15  -4 -10  -29.19  175.07
 -15   4  10    5.03   96.91
  16   7 -10  -83.44   65.98
 -16  -7  10  -10.85   35.35
 -16  -7  10 -135.02  167.41
  16   6 -10  -16.88  167.32
  16   6 -10  222.33   70.79
 -16  -6  10  119.57  155.54
 -16  -6  10   10.63   35.31
  16   5 -10  -14.44   68.67
  16   5 -10   88.50  171.61
 -16  -5  10 -109.93  151.71
 -16  -5  10  -20.59   32.68
  16   4 -10 -103.96  174.49
  16   4 -10  155.87   71.69
 -16  -4  10   62.95  148.00
 -16  -4  10   40.31   35.89
  16   3 -10   -3.76   70.34
  16   3 -10 -571.80  189.32
 -16  -3  10   29.96  142.67
 -16  -3  10   33.64   36.73
  16   2 -10 -273.70  186.76
  16   2 -10    3.83   74.25
 -16  -2  10  -90.18  131.29
  16   2  10 -116.58   67.52
 -16  -2  10    7.02   33.35
 -16  -1 -10  -20.21   28.97
  16   1 -10    3.90   73.53
 -16  -1 -10 -168.21  160.06
  16   1 -10  167.38  193.94
 -16  -1  10   86.14  126.57
  16   1  10   71.47   66.66
 -16  -1  10   22.11   40.69
  16   0 -10   95.85   83.12
 -16   0 -10   27.32   32.53
 -16   0 -10   -6.08  155.68
  16   0 -10  595.83  197.75
 -16   0  10    7.47   41.22
  16   0  10  218.68   68.94
 -16   0  10  172.22  116.77
  16  -1 -10   -4.46  187.74
 -16   1 -10  -76.92  136.65
  16  -1 -10    8.68   74.08
 -16   1 -10   28.04   26.86
 -16   1  10  -92.15   42.57
 -16   1  10    5.14  113.18
  16  -1  10  146.91   68.10
 -16   2 -10   16.71   24.69
  16  -2 -10 -290.59  188.96
  16  -2 -10 -125.98   75.16
 -16   2 -10 -142.94  122.26
 -16   2  10   -5.19  112.08
  16  -3 -10  -95.00  184.73
  16  -3 -10   61.07   81.89
 -16   3  10   47.11  111.05
  16  -4 -10 -237.64  189.14
  16  -4 -10   56.34   80.67
 -16   4  10   38.33  114.13
  17   7 -10 -147.22   72.99
 -17  -7  10  -15.98   37.04
 -17  -7  10  501.31  191.86
  17   6 -10 -564.84  209.41
  17   6 -10  217.76   81.74
 -17  -6  10   23.59   39.01
 -17  -6  10   51.82  180.54
  17   5 -10  139.35  184.26
  17   5 -10   -4.08   74.19
 -17  -5  10   28.82  173.03
 -17  -5  10  -84.29   39.01
  17   4 -10   20.89   76.17
  17   4 -10   94.76  187.77
 -17  -4  10 -185.30  161.07
 -17  -4  10  -15.05   37.58
  17   3 -10    4.27   81.15
  17   3 -10  -14.57  201.71
 -17  -3  10  -14.97   37.85
 -17  -3  10  144.46  153.25
  17   2 -10 -237.52   81.07
 -17  -2 -10 -161.47  200.64
  17   2 -10  -37.89  200.71
  17   2  10  268.14   73.94
 -17  -2  10 -100.48  145.80
 -17  -2  10   31.09   40.88
 -17  -1 -10   36.78  177.10
  17   1 -10    4.76  197.68
  17   1 -10    4.43   79.43
 -17  -1  10  257.68  135.91
  17   1  10    3.78   68.01
 -17  -1  10   -4.12   39.97
 -17   0 -10  -13.54  180.62
 -17   0 -10  -29.54   29.77
  17   0 -10 -160.79   88.26
  17   0 -10  -24.14  198.07
  17   0  10  -71.45  137.26
 -17   0  10  -41.86   42.00
  17   0  10   26.65   73.47
 -17   0  10 -128.32  131.28
 -17   1 -10   11.10   27.35
 -17   1 -10  116.24  154.70
  17  -1 -10  101.36  194.30
  17  -1 -10 -272.69   85.64
 -17   1  10   -5.73  127.12
  17  -1  10   26.54   68.92
 -17   1  10  -25.62   43.13
  17  -1  10 -252.41  135.95
  17  -2 -10  -67.84  201.02
  17  -2 -10  -34.67   86.92
 -17   2  10    5.76  123.16
  17  -3 -10 -128.87   92.54
  17  -3 -10  -19.50  198.29
 -17   3  10  -69.40  123.49
  17  -4 -10 -139.10  203.39
  17  -4 -10    5.13   84.55
 -17   4  10   -6.01  127.07
  18   7 -10  -78.17   82.57
 -18  -7  10   91.94  204.25
  18   6 -10   60.80   81.00
  18   6 -10 -175.58  196.32
 -18  -6  10  -16.33  189.00
 -18  -6  10   -4.37   44.44
  18   5 -10    4.47   82.46
  18   5 -10   -5.12  206.20
 -18  -5  10   25.69   41.49
 -18  -5  10  -16.02  200.54
  18   4 -10   52.09  207.39
  18   4 -10   13.69   85.86
 -18  -4  10  -54.61   41.94
 -18  -4  10   53.74  176.79
  18   3 -10 -153.66   87.79
 -18  -3  10  -96.03   44.42
 -18  -3  10 -154.66  175.59
  18   2 -10  437.25  123.64
 -18  -2  10  783.70  200.06
 -18  -2  10   75.80   85.71
  18   1 -10    4.90   93.83
 -18  -1 -10   73.35  211.15
  18   1 -10    5.21  244.61
  18   1  10    4.22   76.08
 -18  -1  10   13.43  160.43
 -18  -1  10  -99.91   51.08
 -18   0 -10 -148.80  193.44
  18   0 -10 -187.74   97.30
 -18   0 -10  -31.92   31.83
 -18   0  10  -91.21  152.20
  18   0  10 -140.08  150.19
  18   0  10    4.20   74.84
 -18   0  10   18.68   50.58
 -18   1 -10   20.00  180.74
 -18   1 -10   93.57   38.32
  18  -1 -10  126.81  108.55
  18  -1 -10  457.04  258.44
 -18   1  10   66.49   54.78
 -18   1  10  217.45  148.48
  18  -2 -10 1331.87  241.66
 -18   2  10  685.88  259.72
  18  -4 -10    5.62  100.03
 -18   4  10  139.54  139.08
  19   5 -10    5.04   93.92
 -19  -5  10 -393.90  221.72
  19   4 -10    9.96   90.74
 -19  -4  10   -9.43   44.93
 -19  -4  10   67.34  191.31
  19   3 -10  250.76  100.31
  19   3 -10 -155.33  236.25
 -19  -3  10   27.91   44.23
 -19  -3  10 -145.99  182.75
  19   2 -10  -88.79   98.39
  19   2 -10   -5.82  243.46
 -19  -2  10  185.74  189.09
 -19  -2  10  -89.41   51.39
  19   1 -10  -86.55  102.67
  19   1 -10   84.49  244.01
 -19  -1 -10   18.02  222.06
  19   1  10   80.68   87.86
 -19  -1  10  263.71  177.64
 -19  -1  10    4.92   47.02
 -19   0 -10  -32.94  203.65
  19   0 -10  -11.28  236.84
 -19   0 -10  -13.87   34.42
  19   0 -10    5.60  103.70
 -19   0  10 -415.57  167.16
  19   0  10  138.43   90.89
 -19   0  10    5.23   55.24
  19  -1 -10 -142.51  237.95
  19  -1 -10    5.83  101.89
 -19   1  10  -14.37  160.56
 -19   1  10  -16.00   58.80
  19  -2 -10 -192.88  108.51
  19  -2 -10  -22.83  242.91
 -19   2  10 -121.53  166.14
 -19   2  10  -92.84   57.71
  19  -3 -10 -186.00  112.87
  19  -3 -10   -5.75  176.94
 -19   3  10    7.16  159.48
 -19   3  10 -124.84   56.16
  19  -4 -10    6.18  109.78
 -19   4  10  125.22  159.73
 -20  -1 -10  -78.65  247.02
  20   1  10   31.27   95.84
 -20   0 -10   52.54   37.08
  -1   0 -11 2169.49  478.08
   1   0  11 2005.66  436.24
  -1   1 -11  110.26   63.69
   1   1 -11  -13.20   25.23
   1  -1  11   25.91   38.03
   1  -1  11   26.96   24.73
   2   1 -11  375.54  115.50
   2   1 -11  498.08  105.69
  -1   2 -11  270.54  119.05
   1  -2  11  350.19   94.77
   1  -2  11  325.15   90.56
  -2  -1  11  351.87   91.37
  -2  -1  11  544.11   96.45
  -2   0 -11  -35.78   66.99
   2   0  11   -1.36   27.00
   0  -2  11    1.64   30.11
   2   0  11  -27.83   49.34
  -2   0  11   70.60   38.37
   1   2 -11  400.67   95.25
  -2   1 -11  291.56  114.74
   2  -1  11  319.66   86.98
   2  -1  11  411.26   96.17
   2   2 -11  -22.14   15.71
   2   2 -11   21.76   54.10
   2   2 -11  -24.65   32.48
  -2   2 -11  -25.75   66.60
  -2  -2  11   -5.13   17.00
   2  -2  11    1.95   34.81
  -2  -2  11    1.84   22.81
   2  -2  11    1.17   24.41
  -2   3 -11   60.71   72.69
   3   2 -11   69.10   24.55
   3   2 -11  110.65   57.27
   3   2 -11   98.21   43.11
   2  -3  11   73.32   35.50
   2  -3  11   82.62   33.44
  -3  -2  11  100.33   30.12
  -3  -2  11  105.86   28.19
  -3  -2  11   70.41   31.38
   3   1 -11   -4.47   58.15
   3   1 -11    5.84   41.30
   3   1 -11   14.87   18.97
  -1   3 -11   56.95   63.39
   1  -3  11  -20.50   29.19
  -3  -1  11    8.96   24.48
  -3  -1  11   13.47   31.14
   1  -3  11   25.85   27.78
  -3  -1  11   12.71   20.15
   0   3 -11   82.87   66.24
   3   0 -11   52.79   41.14
  -3   0 -11  175.15   77.69
   0  -3  11  108.14   30.25
   0  -3  11   78.82   30.42
  -3   0  11   71.95   39.89
   3   0  11   -2.96   52.73
   3   0  11   25.87   32.39
   1   3 -11   11.27    9.74
   1   3 -11   29.49   22.06
  -3   1 -11    9.89   69.37
  -1  -3  11    7.41   23.49
   3  -1  11   18.42   27.79
  -1  -3  11    6.88    4.05
  -1  -3  11   23.56   12.22
  -3   2 -11  183.38   74.11
   2   3 -11   63.45   19.03
   2   3 -11   55.18   33.89
  -2  -3  11   73.93   24.28
  -2  -3  11   63.19   15.53
   3  -2  11   69.88   16.78
   3  -2  11   71.33   33.34
   3   3 -11  -49.92   37.92
  -3   3 -11  -24.44   73.78
   3   3 -11  -22.13   57.55
   3   3 -11  -15.53   13.64
  -3   3 -11    5.52   11.37
  -3  -3  11    0.86   22.88
   3  -3  11    2.91    7.21
   3  -3  11   -7.72   29.78
  -3  -3  11   -1.75    5.63
  -3  -3  11  -14.20   22.15
   4   3 -11   26.44   16.72
  -3   4 -11   52.90   78.48
   4   3 -11   70.37   57.09
   4   3 -11   18.79   10.80
  -3   4 -11   10.67    4.98
   3  -4  11    9.67   32.45
  -4  -3  11   31.70   23.00
   3  -4  11   14.70   16.19
  -4  -3  11   19.60   27.93
  -4  -3  11   12.39   18.78
  -4  -3  11   40.73    8.01
  -2   4 -11  461.28  133.83
   4   2 -11  483.71   94.94
   4   2 -11  509.17  120.71
  -2   4 -11  241.42   91.15
  -4  -2  11  386.68   97.66
  -4  -2  11  393.93  101.54
   2  -4  11  444.28  100.20
   2  -4  11  468.65   96.77
  -4  -2  11  465.04   99.17
   4   1 -11   39.85   19.67
   4   1 -11  -40.93   57.06
  -1   4 -11    9.09   14.83
  -1   4 -11    7.58   72.25
  -4  -1  11   -3.69   24.38
   1  -4  11   18.05   28.67
   1  -4  11   17.27   24.69
  -4  -1  11    3.94   29.62
   0   4 -11  -22.18   13.90
  -4   0 -11   56.19   76.86
   0   4 -11   34.08   66.39
  -4   0  11  -10.25   35.72
   4   0  11    9.12   30.97
   4   0  11   -3.08   54.21
   0  -4  11   -4.94   22.71
   0  -4  11  -11.37   27.34
   1   4 -11   -0.99   14.20
   1   4 -11   26.27    8.91
   1   4 -11   27.06   65.04
  -4   1 -11   38.04   76.88
   4  -1  11   51.34   47.22
  -1  -4  11   22.34   25.93
  -1  -4  11   22.29   14.84
  -1  -4  11   36.97   23.17
   4  -1  11    4.20   29.86
  -4   2 -11  436.55  134.27
   2   4 -11  387.20   96.02
  -2  -4  11  412.86   95.06
   4  -2  11  467.94  104.79
   4  -2  11  460.76   99.51
  -2  -4  11  452.81  102.09
   4  -2  11  393.91   93.60
  -4   3 -11   24.89    7.16
   3   4 -11   35.04   14.02
   3   4 -11   16.21   39.20
  -4   3 -11  -13.09   79.78
  -4   3 -11   32.78   20.38
  -3  -4  11   22.04   25.49
   4  -3  11   17.97   11.75
  -3  -4  11   31.01    8.52
   4  -3  11   51.09   36.53
   4  -3  11   12.30   24.78
   4  -3  11    9.58   33.09
  -4   4 -11  117.50   37.01
   4  -4  11  233.17   51.45
   4  -4  11  147.22   47.78
  -4   5 -11   31.12   19.30
   5   4 -11   -1.23   50.50
   5   4 -11   -0.95   16.44
   5   4 -11    0.79   11.45
   5   4 -11  -73.55   59.28
  -5  -4  11   -0.90    9.18
  -5  -4  11   11.03   16.38
  -5  -4  11   22.56   24.48
   4  -5  11    7.77   29.38
   4  -5  11   -9.05   36.13
   5   3 -11  169.24   96.58
   5   3 -11  344.92   62.29
   3  -5  11  267.34   73.47
  -5  -3  11  144.26   73.28
  -5  -3  11  373.99   60.62
  -5  -3  11  231.63   67.12
  -2   5 -11    5.11   16.53
   5   2 -11 -192.50   66.86
   2  -5  11   28.79   26.41
   2  -5  11   -2.65   33.31
  -5  -2  11  -49.05   25.87
  -1   5 -11  122.82   33.78
   5   1 -11  159.28   67.09
   5   1 -11  193.58   38.16
   1  -5  11  102.99   43.31
  -5  -1  11  151.08   42.06
  -5  -1  11  115.35   42.29
   1  -5  11  112.68   38.60
   5   0 -11   30.06   24.82
  -5   0 -11   86.88   85.64
   0   5 -11   23.01   15.46
   5   0 -11   68.43   56.53
   0  -5  11   15.71   29.34
  -5   0  11    6.02   37.10
   5   0  11   45.27   57.35
   5   0  11   -4.85   37.26
  -5   0  11    9.30   29.39
   0  -5  11    9.50   21.28
   1   5 -11  177.35   31.11
   1   5 -11  117.78   30.58
   5  -1 -11   98.57   61.59
  -5   1 -11  108.65   91.78
   5  -1  11   59.29   59.90
   5  -1  11   92.38   31.36
  -1  -5  11  136.58   38.96
   5  -1  11  107.48   43.08
  -1  -5  11  102.48   34.16
  -5   2 -11   18.69    6.60
   2   5 -11  -16.97   13.41
  -5   2 -11 -156.61   97.96
   2   5 -11    3.14   13.70
  -2  -5  11   22.29   20.33
   5  -2  11   22.60   45.16
  -2  -5  11  -18.50   27.64
   5  -2  11   10.10   11.27
   5  -2  11   -8.59   34.94
  -5   3 -11  261.85   85.04
  -5   3 -11  316.21  130.16
   3   5 -11  407.87   76.91
   3   5 -11  325.40   82.53
  -5   3 -11  434.56   77.02
  -3  -5  11  263.93   84.90
   5  -3  11  414.93   86.60
   5  -3  11  339.64   78.55
   5  -3  11  337.60   86.55
   5  -3  11  219.75   94.59
  -3  -5  11  509.72   79.60
  -5   4 -11    8.76   19.35
  -5   4 -11   -1.94   26.04
  -5   4 -11   -2.08    6.57
   4   5 -11  -11.93   13.84
  -5   4 -11   45.87   94.14
  -4  -5  11  -22.60   18.10
   5  -4  11    1.55   36.80
   5  -4  11   15.49   33.27
   5  -4  11    4.51   18.15
   5  -4  11    1.39   34.11
   5   5 -11   -8.83   18.74
   5   5 -11   18.07   54.49
  -5   5 -11  -24.83   93.23
  -5   5 -11   -1.49   20.60
   5  -5  11   -8.15   29.39
   5  -5  11   -1.63   38.95
  -5  -5  11   10.68    9.80
   6   5 -11  164.44   64.77
  -5   6 -11  110.46   34.29
   6   5 -11   79.89   36.13
   5  -6  11  145.98   49.71
  -6  -5  11  124.42   28.69
   5  -6  11   75.74   40.80
  -6  -5  11  168.30   39.17
   6   4 -11 1194.54  252.83
   6   4 -11 1335.46  265.10
  -4   6 -11 1221.10  237.29
   6   4 -11  974.00  245.34
   4  -6  11 1045.07  241.57
  -6  -4  11 1014.89  267.69
  -6  -4  11 1065.37  256.45
  -6  -4  11 1082.07  233.95
   4  -6  11 1083.25  250.66
   6   3 -11    8.98   22.37
   6   3 -11   10.66   49.88
  -3   6 -11   -1.47   18.14
   6   3 -11   -3.60   10.38
   6   3 -11   -7.03   57.02
  -6  -3  11    2.54   16.77
   3  -6  11   22.63   34.43
  -6  -3  11  -17.41   23.69
  -6  -3  11   -1.70   38.90
  -6  -3  11   -1.05   10.45
   6   2 -11 1770.22  393.12
   6   2 -11 2066.40  454.85
   6   2 -11 1563.75  410.14
   6   2 -11 1965.73  498.21
   2  -6  11 1821.25  414.82
  -6  -2  11 1754.08  415.17
  -6  -2  11 1890.49  435.42
   2  -6  11 1891.40  400.67
  -6  -2  11 1730.60  438.14
  -1   6 -11  217.97   39.82
   6   1 -11  115.93   76.58
   6   1 -11  173.92   42.84
   1  -6  11  149.32   44.25
   1  -6  11  155.20   48.76
  -6  -1  11  158.41   51.95
  -6  -1  11  124.75   43.43
   0   6 -11   -2.59   16.79
  -6   0 -11   -2.63   98.66
   6   0 -11  -22.27   27.25
   6   0 -11  -68.27   66.45
   0  -6  11   -5.14   22.41
   6   0  11   17.22   36.35
  -6   0  11  -31.41   35.04
  -6   0  11  -18.28   34.53
   6   0  11   16.53   62.42
   0  -6  11    6.50   31.38
   1   6 -11  107.06   34.56
   6  -1 -11  141.98   70.02
   6  -1 -11  183.37   44.42
  -6   1 -11  162.51   98.32
  -1  -6  11  162.65   44.96
   6  -1  11  154.10   36.10
   6  -1  11  104.61   48.03
  -6   1  11  209.78   51.21
   6  -1  11  100.14   64.32
  -1  -6  11   97.06   38.22
   2   6 -11 1991.95  408.30
  -6   2 -11 1783.96  496.79
  -6   2 -11 1958.52  439.98
   6  -2  11 1835.31  418.05
   6  -2  11 2025.74  430.39
  -2  -6  11 1993.36  430.87
   6  -2  11 1700.73  423.81
   6  -2  11 1727.45  475.85
  -2  -6  11 2069.44  415.58
   3   6 -11    3.69   15.90
  -6   3 -11  -44.84   96.34
  -6   3 -11   14.62    8.58
  -6   3 -11   -5.70   31.02
   3   6 -11   21.90   13.71
  -3  -6  11    1.13   28.43
   6  -3  11   12.90   15.81
   6  -3  11    7.47   40.42
   6  -3  11   32.37   38.32
   6  -3  11    6.11   40.15
  -6   4 -11 1170.71  300.95
  -6   4 -11 1034.00  234.96
  -6   4 -11 1092.82  260.15
   6  -4  11  926.20  271.35
   6  -4  11  936.26  246.65
   6  -4  11 1335.37  241.25
  -4  -6  11 1196.31  250.31
  -6   5 -11  206.82  107.80
  -6   5 -11  123.92   35.23
   5   6 -11  181.77   36.43
   6  -5  11   67.88   53.00
  -5  -6  11  127.38   40.79
   6  -5  11   61.35   42.17
   6   6 -11    1.18   21.82
  -6   6 -11  -23.45   22.61
   6  -6  11   29.04   44.59
   6  -6  11   -8.40   33.43
   7   6 -11  -25.49   25.40
  -6   7 -11    1.83   25.59
   6  -7  11  -10.78   32.26
  -7  -6  11   -2.99   13.65
   6  -7  11    1.94   49.54
   7   5 -11   13.19   24.84
   7   5 -11  -36.69   65.17
  -5   7 -11  -17.52   23.81
  -7  -5  11   18.46   12.31
   5  -7  11   -3.45   31.17
   5  -7  11    1.81   41.59
  -4   7 -11   -1.68   27.04
   7   4 -11  120.62   30.68
   7   4 -11  150.93   68.52
   4  -7  11   57.83   43.23
   4  -7  11   79.66   35.48
  -7  -4  11   62.00   18.18
  -7  -4  11   16.88   52.66
   7   3 -11  356.41   95.61
   7   3 -11  300.15   69.57
  -3   7 -11  289.24   65.23
   3  -7  11  298.34   74.79
  -7  -3  11  238.85   82.34
  -7  -3  11  254.54   61.48
   7   2 -11  150.24   78.86
  -2   7 -11  132.26   33.35
   7   2 -11  131.27   38.31
  -7  -2  11  123.52   51.02
   2  -7  11  136.75   46.45
   2  -7  11   99.67   38.45
  -1   7 -11  207.15   40.25
   7   1 -11  135.35   83.91
   7   1 -11  110.19   43.89
   1  -7  11  164.71   43.99
  -7  -1  11  160.57   54.54
   1  -7  11  151.68   49.42
   7   1  11  152.12   86.40
   7   0 -11  512.36  147.81
   0   7 -11  653.91  140.32
  -7   0 -11  674.99  197.26
   7   0 -11  564.24  177.90
   0  -7  11  721.71  143.67
   7   0  11  717.69  152.35
  -7   0  11  627.65  157.72
   7   0  11  727.72  169.69
   0  -7  11  589.30  148.31
   7  -1 -11  159.58   49.58
   1   7 -11  149.63   38.76
   7  -1 -11  197.46   81.84
  -7   1 -11  239.24  109.80
  -7   1  11   88.39   55.37
  -1  -7  11  171.62   46.89
   7  -1  11  193.39   66.67
   7  -1  11  163.95   53.67
   7  -1  11  138.28   40.13
   7  -2 -11   86.24   75.20
  -7   2 -11   55.48  103.55
  -7   2 -11  127.48   26.87
   7  -2  11   84.52   46.53
  -2  -7  11   89.37   39.57
   7  -2  11  110.66   53.18
   7  -2  11  154.73   55.06
  -7   3 -11  424.69  130.63
   7  -3  11  230.93   77.56
   7  -3  11  266.80   79.33
  -3  -7  11  346.44   73.53
   4   7 -11  107.25   25.78
  -7   4 -11   54.77  113.51
  -7   4 -11   74.64   29.62
  -4  -7  11   97.07   35.78
   7  -4  11   56.82   48.02
   7  -4  11   79.11   43.20
  -7   5 -11   13.18   22.33
  -7   5 -11  -36.82  112.83
   5   7 -11    2.01   18.96
  -5  -7  11   -9.86   28.30
   7  -5  11   -5.33   35.45
   7  -5  11   11.13   48.13
  -7   6 -11   -1.75   24.86
  -7   6 -11  -11.63  112.51
   6   7 -11    7.05   22.06
   7  -6  11   -3.87   50.35
   7  -6  11   -6.99   33.73
   7   7 -11   -4.05   25.09
  -7   7 -11    3.81   27.41
   7  -7  11  -26.12   35.58
   7  -7  11   10.20   54.44
   8   7 -11   13.78   28.34
  -7   8 -11   12.46   29.27
   7  -8  11    3.95   36.63
   7  -8  11    2.23   54.43
  -6   8 -11  -12.00   28.01
   8   6 -11   27.52   28.76
   8   6 -11    8.08   76.82
   6  -8  11    1.90   36.95
  -8  -6  11    9.81   15.29
   6  -8  11   16.60   50.01
   8   5 -11  364.11   97.85
   8   5 -11  325.34   71.52
  -5   8 -11  268.13   65.65
   5  -8  11  211.00   70.38
   5  -8  11  238.38   81.34
  -8  -5  11  271.91   61.16
   8   4 -11    9.35   74.49
   8   4 -11   35.68   29.27
   4  -8  11   67.84   47.25
  -8  -4  11    4.86   54.91
  -8  -4  11   29.88   14.67
   8   3 -11  370.45   85.92
  -3   8 -11  237.04   80.09
   8   3 -11  510.58  113.33
   3  -8  11  366.02   83.86
   3  -8  11  445.07   89.44
  -8  -3  11  345.53   98.33
  -8  -3  11  376.68   77.02
   8   2 -11  271.40   95.84
   8   2 -11  247.76   59.34
  -2   8 -11  262.39   54.03
   2  -8  11  213.24   62.83
  -8  -2  11  204.21   74.07
  -8  -2  11  182.33   50.43
   8   1 -11  147.07   48.57
   8   1 -11  197.51   94.13
  -1   8 -11  191.14   43.14
   1  -8  11  103.13   52.33
   8   1  11  125.45   91.55
  -8  -1  11  240.37   61.87
   8   1  11  178.14   45.64
   8   0 -11  103.08   88.86
  -8   0 -11  -74.32  111.34
   8   0 -11  -15.16   33.85
  -8   0  11   -8.68   43.33
   8   0  11   59.16   46.78
   8   0  11  -29.17   22.59
   0  -8  11   10.26   32.40
   8   0  11   13.80   69.13
  -8   1 -11  119.38   40.52
   8  -1 -11  210.62   54.77
  -8   1 -11  131.46  117.06
   8  -1 -11  203.39   92.86
   8  -1  11  195.15   60.19
  -8   1  11  224.87   60.53
   8  -1  11  202.45   68.19
   8  -1  11  188.41   44.74
   8  -1  11  189.27   72.12
  -8   2 -11  292.58   50.27
   8  -2 -11   68.56   96.80
  -8   2 -11  365.54  127.83
  -8   2 -11  117.64   68.49
   8  -2  11  184.81   65.43
   8  -2  11  208.99   53.20
   8  -2  11  242.23   77.77
   8  -2  11  209.48   71.41
  -8   2  11  259.10   72.06
  -8   3 -11  113.24   78.59
  -8   3 -11  308.39  138.63
  -8   3 -11  227.03   62.43
   8  -3  11  300.70   66.56
   8  -3  11  248.00   76.89
   8  -3  11  416.98   78.83
   8  -3  11  367.02   90.91
  -8   4 -11   -4.97   41.23
  -8   4 -11   35.70   25.52
  -8   4 -11   88.18  123.39
  -8   4 -11   19.81   11.18
   8  -4  11   20.85   38.50
   8  -4  11   48.57   46.30
  -8   5 -11  381.40  147.04
  -8   5 -11  248.70   63.14
   8  -5  11  214.91   69.81
   8  -5  11  312.92   81.36
  -8   6 -11  -47.05  129.69
  -8   6 -11    7.34   26.89
   8  -6  11  -29.08   57.68
   8  -6  11   29.05   38.85
  -8   7 -11    1.99   30.01
   8  -7  11    4.41   57.38
   8  -7  11   15.48   36.94
  -8   8 -11    4.32   28.79
   8   8 -11   -3.03   27.94
   8  -8  11  -30.95   62.39
   8  -8  11   14.33   39.39
   9   8 -11  -18.76   31.63
   8  -9  11    2.57   64.62
  -7   9 -11   67.76   36.91
   9   7 -11  100.62   38.19
   7  -9  11   83.08   66.94
   9   6 -11   41.42   79.35
   9   6 -11   17.24   32.97
  -6   9 -11   -9.03   30.04
   6  -9  11    2.27   56.46
  -9  -6  11   17.93   17.17
   9   5 -11  267.89   90.01
   9   5 -11   82.79   43.37
  -9  -5  11  118.74   31.28
  -9  -5  11  147.10   79.69
   5  -9  11  115.17   60.09
   9   4 -11  419.27  117.09
   9   4 -11  358.54   82.27
  -9  -4  11  385.22  104.06
  -9  -4  11  277.37   71.29
   9   3 -11  -31.98   86.88
   9   3 -11   27.05   33.58
  -9  -3  11   10.74   57.24
  -9  -3  11   17.87   15.43
   9   2 -11  180.15   50.66
   9   2 -11  184.10  101.88
  -9  -2  11  175.12   40.68
  -9  -2  11  186.18   68.34
   9   1 -11   31.71   36.46
   9   1 -11   54.51   97.57
   9   1  11   57.50   29.46
  -9  -1  11   19.39   51.88
   9   1  11  149.48   84.24
  -9   0 -11   -6.36  123.56
   9   0 -11   41.11   97.67
   9   0 -11   40.87   37.57
   9   0  11   52.20   26.24
   9   0  11   -3.48   71.49
  -9   0  11   36.57   53.55
   9   0  11   -2.11   47.87
   9  -1 -11   81.42   95.48
  -9   1 -11   86.71  118.46
   9  -1 -11   80.03   41.07
  -9   1 -11    5.45   13.46
   9  -1  11    1.34   24.92
   9  -1  11  -40.57   47.67
   9  -1  11   13.03   61.05
   9  -1  11   26.82   57.51
  -9   1  11   17.90   52.81
  -9   2 -11   32.75   62.32
  -9   2 -11  214.67  119.52
   9  -2 -11  165.53   97.98
   9  -2 -11  147.55   50.98
  -9   2 -11  152.02   33.87
   9  -2  11  145.58   55.87
   9  -2  11  140.27   39.91
   9  -2  11   65.08   58.88
  -9   2  11  120.07   61.59
   9  -2  11  188.03   72.19
  -9   3 -11    4.46   12.52
  -9   3 -11   28.67   49.45
  -9   3 -11  -14.73   27.56
  -9   3 -11   23.64  125.82
   9  -3  11   -2.74   25.18
   9  -3  11  -34.76   44.86
   9  -3  11   19.61   64.82
   9  -3  11   -1.81   47.14
  -9   4 -11  293.85  145.63
  -9   4 -11  247.90   59.02
   9  -4  11  178.21   66.80
   9  -4  11  222.20   73.76
  -9   5 -11  195.65  141.31
  -9   5 -11  149.73   40.12
   9  -5  11  104.67   47.26
   9  -5  11  115.99   61.28
  -9   6 -11  -23.05   29.24
  -9   6 -11   -3.37  143.87
   9  -6  11    6.69   61.66
   9  -6  11  -16.94   39.21
  -9   7 -11  113.84   33.07
  -9   7 -11  -17.39  143.59
   9  -7  11   56.54   63.46
   9  -7  11   16.01   42.83
  -9   8 -11   -2.25   30.31
   9  -8  11  -14.98   64.71
   9  -8  11    4.24   41.80
  10   8 -11   28.47   35.06
  10   7 -11   51.56   37.52
  10   6 -11   22.81   36.15
  10   6 -11   56.95   90.20
 -10  -6  11    9.83   18.81
  10   5 -11   37.33   41.08
  10   5 -11   37.36   92.39
 -10  -5  11   34.46   19.63
 -10  -5  11  102.92   79.56
  10   4 -11   50.13   97.81
  10   4 -11    3.95   36.05
 -10  -4  11   22.64   15.61
 -10  -4  11  -66.88   71.75
  10   3 -11 -165.40  107.07
  10   3 -11   34.64   40.92
 -10  -3  11   79.39   70.24
 -10  -3  11   50.22   20.74
  10   1 -11 -166.33   49.68
  10   1  11   43.74   30.90
  10   1  11  -71.87   82.84
 -10  -1  11   27.78   66.43
 -10   0 -11 -142.57  134.74
  10   0 -11 -111.77   47.11
  10   0  11  -19.76   29.23
 -10   0  11  -30.05   59.97
  10   0  11    6.95   73.24
 -10   1 -11  -35.11  133.87
  10  -1 -11  -88.02   49.37
 -10   1 -11  -10.73   15.32
  10  -1  11   -6.20   50.94
  10  -1  11   23.32   28.29
  10  -1  11   -5.92   63.51
 -10   1  11  -53.74   62.93
  10  -1  11  -14.51   67.48
 -10   2 -11   47.73   63.13
 -10   2 -11  222.28  140.35
  10  -2 -11  225.07   57.81
  10  -2  11   36.64   54.38
  10  -2  11   40.18   75.51
  10  -2  11   25.69   58.97
 -10   2  11  236.62   70.11
  10  -3 -11 -191.98  103.94
 -10   3 -11   -2.21   56.00
 -10   3 -11   43.96   16.90
 -10   3 -11  113.97   31.74
 -10   3 -11   77.51  137.46
  10  -3  11   40.05   52.24
  10  -3  11  112.86   73.96
  10  -3  11   40.04   48.62
  10  -3  11   44.27   32.05
 -10   3  11   35.64   64.61
 -10   4 -11   26.20   27.91
 -10   4 -11  -23.08  147.27
  10  -4  11   18.13   42.86
  10  -4  11   31.33   52.78
 -10   5 -11  132.44  150.59
 -10   5 -11   61.04   29.91
  10  -5  11    8.42   56.49
  10  -5  11   40.40   41.60
 -10   6 -11  -80.36  160.81
 -10   6 -11   -2.02   29.34
  10  -6  11   16.30   60.95
  10  -6  11   15.56   38.91
 -10   7 -11   33.98  164.43
 -10   7 -11   19.36   30.49
  10  -7  11   18.59   43.73
  10  -7  11    7.57   66.81
  10  -8  11   21.52   69.75
 -10   9 -11 -109.52   42.37
  11   7 -11  -44.60   40.65
  11   6 -11   13.00  101.74
  11   6 -11  -10.73   42.10
 -11  -6  11  100.52   92.66
 -11  -6  11   30.26   21.96
  11   5 -11   38.98  104.55
  11   5 -11   13.15   41.17
 -11  -5  11   18.17   21.80
 -11  -5  11   25.99   87.12
  11   4 -11  130.79   46.16
  11   4 -11   69.54  111.22
 -11  -4  11  154.90   85.76
 -11  -4  11   50.92   24.30
  11   3 -11  170.87  112.36
  11   3 -11   36.51   43.16
 -11  -3  11  -13.82   79.36
 -11  -3  11    2.09   20.73
  11   2 -11   40.09   46.01
  11   2 -11   36.54  117.83
 -11  -2  11    8.38   22.82
 -11  -2  11   45.30   72.35
  11   1 -11  199.62  125.17
  11   1 -11  -11.81   44.67
  11   1  11   29.43   34.29
  11   1  11   90.81   83.04
 -11  -1  11   18.77   71.83
  11   0 -11  103.92  133.80
 -11   0 -11  231.52   51.16
  11   0 -11  134.71   66.64
  11   0  11  216.68   59.49
  11   0  11  242.25   92.16
 -11   0  11  385.10   88.19
 -11   1 -11   43.15   76.32
 -11   1 -11   61.14  144.98
 -11   1 -11   -5.08   17.10
  11  -1 -11  -54.04   50.44
  11  -1 -11  142.02  121.35
 -11   1  11    3.12   64.42
  11  -1  11    8.74   53.96
  11  -1  11  -23.34   61.95
  11  -1  11    3.55   33.40
  11  -1  11   38.19   76.16
 -11   2 -11   10.98   70.10
  11  -2 -11  -17.94   54.68
 -11   2 -11   22.96   15.87
 -11   2 -11  -65.13  139.67
  11  -2 -11   32.32  118.44
 -11   2  11   61.19   64.32
  11  -2  11   -6.07   53.04
  11  -2  11   62.24   76.78
  11  -2  11  -12.73   52.83
  11  -2  11   10.65   33.15
 -11   3 -11   19.53  148.10
 -11   3 -11   34.35   30.88
 -11   3 -11   36.40   16.18
  11  -3 -11  398.83  115.06
 -11   3 -11  -25.23   64.30
  11  -3 -11   -3.05   51.44
  11  -3  11    2.20   47.31
  11  -3  11  107.39   55.18
 -11   3  11 -101.31   70.92
 -11   4 -11  124.26   37.48
 -11   4 -11  125.14  150.19
  11  -4  11   68.71   59.64
  11  -4  11  100.68   49.46
 -11   5 -11   47.81   29.22
 -11   5 -11   22.21  158.57
  11  -5  11   56.41   60.80
  11  -5  11   27.58   41.44
 -11   6 -11    2.12   30.83
 -11   6 -11  -89.90  174.41
  11  -6  11   71.83   64.78
  11  -6  11   10.01   41.53
 -11   7 -11 -146.94  178.72
 -11   7 -11  149.51   36.70
  11  -7  11   96.76   47.87
  11  -7  11  -21.28   76.13
  11  -9  11   -3.13   83.57
  11 -10  11  114.78   92.55
  12   8 -11   18.55   41.93
 -12  -7  11  -10.02   23.95
  12   4 -11  -10.01   50.96
 -12  -4  11  129.20  101.08
  12   3 -11   20.29   49.55
 -12  -3  11  -64.97   91.45
  12   2 -11    2.63   48.19
 -12  -2  11  -69.34   83.92
 -12  -2  11   -2.37   23.44
  12   1 -11   34.33   49.92
 -12  -1  11   -2.40   19.54
 -12  -1  11  115.87   82.51
  12   1  11   41.67   38.88
  12   0 -11  -14.14   53.43
 -12   0 -11   -8.04   19.29
 -12   0  11  -30.72   76.84
  12   0  11  -18.81   38.65
  12  -1 -11   -2.99   57.96
 -12   1 -11   -6.95   86.15
 -12   1 -11   53.77   20.62
 -12   1 -11   35.97  148.58
  12  -1  11   81.21   60.02
 -12   1  11   -3.44   70.75
  12  -1  11  123.68   86.42
  12  -1  11    5.70   65.03
  12  -1  11   55.22   39.27
 -12   2 -11  -11.78   16.13
 -12   2 -11  -40.50   78.64
 -12   2 -11  -31.33  148.94
  12  -2  11   40.82   87.16
  12  -2  11   34.20   54.46
  12  -2  11  -12.12   37.88
  12  -2  11   -9.81   55.34
 -12   3 -11   25.12   30.48
  12  -3 -11    3.20  126.23
 -12   3 -11  -41.14  147.18
  12  -3  11  -15.64   51.38
  12  -3  11    2.07   54.81
 -12   4 -11   22.64   30.15
 -12   4 -11   10.82  162.62
  12  -4  11   16.79   57.03
  12  -4  11    4.11   45.28
 -12   5 -11    6.32   31.47
 -12   5 -11  129.45  175.83
  12  -5  11  -33.38   61.17
  12  -5  11   21.60   44.31
 -12   6 -11 -279.52  194.59
 -12   6 -11  -19.86   33.06
  12  -6  11   24.40   67.65
  12  -6  11   10.29   45.49
 -12   8 -11  -12.65   34.74
 -12   8 -11   -4.58  170.67
  12  -8  11  -27.75   44.63
 -12   9 -11  -33.46  203.74
  12  -9  11   16.59   91.03
  12 -10  11   -3.61   97.81
  13   8 -11  -22.90   47.34
  13   7 -11   10.38   49.53
 -13  -7  11  -34.28  114.45
 -13  -7  11   27.46   26.58
  13   6 -11  -82.55   50.77
  13   6 -11   18.92  118.03
 -13  -6  11   33.43  114.25
 -13  -6  11  -28.82   24.64
  13   5 -11   22.45  131.37
  13   5 -11  -32.55   49.90
 -13  -5  11   41.86  110.79
 -13  -5  11    2.51   23.41
  13   4 -11   58.02   53.81
  13   4 -11  -72.94  137.56
 -13  -4  11   94.37  110.19
 -13  -4  11  -17.19   26.54
  13   3 -11  -56.09  166.78
  13   3 -11  190.50   68.86
 -13  -3  11  521.57  119.97
  13   2 -11  360.07   69.32
 -13  -2  11    8.00   32.61
  13   1 -11 -194.95  161.48
  13   1 -11  258.59   56.19
 -13  -1  11  519.55   96.86
  13   1  11  -26.97   47.31
 -13  -1  11   -2.69   31.27
  13   0 -11 -183.53  156.63
  13   0 -11  131.88   59.73
 -13   0 -11  -21.91   22.02
  13   0  11    4.74   46.23
 -13   0  11  258.72   87.06
  13  -1 -11    3.30   59.76
 -13   1 -11  -15.52  100.53
 -13   1 -11  -14.13   21.53
 -13   1  11  -41.83   87.15
  13  -1  11   39.92   42.85
  13  -1  11 -234.38   95.63
 -13   2 -11   17.59   88.79
  13  -2 -11 -409.76  155.23
 -13   2 -11  -14.72   19.70
  13  -2 -11 -156.35   64.46
 -13   2  11 -116.19   84.11
  13  -3 -11   17.93   65.80
  13  -3 -11 -105.35  144.66
 -13   3  11   85.64   89.30
 -13   8 -11   23.66   37.69
 -13   9 -11  317.53  252.88
 -13  10 -11   91.53  233.13
  13 -10  11    7.58  111.07
  14   8 -11   22.66   55.49
  14   7 -11  -84.13   54.65
 -14  -7  11   59.56  130.31
 -14  -7  11  -24.10   29.07
  14   6 -11   53.65   57.85
  14   6 -11    6.97  129.64
 -14  -6  11  -84.25  123.42
 -14  -6  11    2.90   26.89
  14   5 -11  134.89  147.55
  14   5 -11  -42.66   58.42
 -14  -5  11   88.31  128.40
 -14  -5  11    2.79   26.94
  14   4 -11  149.80  152.34
  14   4 -11    3.13   61.23
 -14  -4  11   30.12  121.99
 -14  -4  11  -10.94   26.82
  14   3 -11  -66.59   62.00
  14   3 -11  101.62  155.41
 -14  -3  11   -9.58  117.72
 -14  -3  11  -11.32   29.18
  14   2 -11 -265.97   70.19
 -14  -2  11  -33.02   32.76
  14   1 -11 -232.49  167.61
  14   1 -11    3.26   60.43
 -14  -1  11   21.05   32.81
 -14  -1  11   73.58  104.67
  14   0 -11  -38.38  164.55
  14   0 -11   10.43   63.50
 -14   0  11   55.08   94.03
 -14   0  11  -33.97   35.12
  14  -1 -11    3.64   64.15
  14  -1 -11 -180.93  159.90
 -14   1  11  -42.15   90.40
  14  -2 -11 -263.36  160.54
  14  -2 -11  -41.87   72.94
 -14   2  11   17.07   90.46
  14  -3 -11 -270.18  163.48
  14  -3 -11   31.43   68.58
 -14   3  11  -71.31   91.46
  14  -4 -11  181.68  153.39
 -14   4  11  -28.50   94.42
  15   8 -11   65.26   56.41
 -15  -8  11  -54.71  152.00
  15   7 -11  -54.25   59.23
 -15  -7  11 -119.49  150.73
 -15  -7  11   -9.94   31.14
  15   6 -11  119.36  152.03
  15   6 -11  -48.85   62.48
 -15  -6  11   -9.66   31.46
 -15  -6  11  -47.05  138.59
  15   5 -11  360.92  165.89
  15   5 -11   93.47   66.21
 -15  -5  11  103.34  135.57
 -15  -5  11  -18.70   31.62
  15   4 -11 -169.00  170.74
  15   4 -11    3.43   63.72
 -15  -4  11    3.06   30.33
 -15  -4  11   -5.50  131.05
  15   3 -11   52.05   64.42
  15   3 -11 -143.01  178.25
 -15  -3  11    6.29   30.61
 -15  -3  11  -20.93  124.17
  15   2 -11    3.55   68.13
  15   2 -11   -8.12  174.12
 -15  -2  11    6.65   32.61
 -15  -2  11  -10.08  117.14
  15   1 -11 -159.25   68.50
 -15  -1  11   53.93   37.09
 -15  -1  11  101.17  112.63
  15   1  11   15.19   56.00
 -15   0 -11   -7.67   23.52
  15   0 -11    7.68   71.73
 -15   0 -11  130.50  132.47
  15   0 -11 -212.06  177.60
 -15   0  11  103.79  103.55
 -15   0  11  -13.65   34.77
  15   0  11    6.00   56.29
  15  -1 -11    4.01   71.86
 -15   1 -11  -58.94  126.02
  15  -1 -11   54.40  170.85
 -15   1 -11    7.10   23.41
  15  -1  11   62.91  107.40
  15  -1  11  -56.85   55.90
 -15   1  11   14.03  102.71
  15  -2 -11 -248.59  167.24
  15  -2 -11  -25.08   71.50
 -15   2  11  256.40  102.62
  15  -3 -11   38.79   72.63
  15  -3 -11 -202.90  178.55
 -15   3  11  156.27   99.76
  15  -4 -11   -8.47  167.68
 -15   4  11  124.15  105.15
  16   7 -11   -7.11   68.55
 -16  -7  11    6.58  160.96
 -16  -7  11  -80.38   36.19
  16   6 -11   18.23   69.29
  16   6 -11    8.52  157.79
 -16  -6  11  -50.02   35.74
 -16  -6  11 -183.30  162.05
  16   5 -11    3.77   68.38
  16   5 -11    4.28  170.29
 -16  -5  11    6.39  157.59
 -16  -5  11  -31.30   37.69
  16   4 -11 -154.49  176.97
  16   4 -11 -100.41   71.09
 -16  -4  11   61.02  151.52
 -16  -4  11   33.98   34.19
  16   3 -11 -311.75  196.00
  16   3 -11   11.83   76.17
 -16  -3  11  102.55   34.88
 -16  -3  11  111.14  137.22
  16   2 -11    3.99   76.61
  16   2 -11  204.78  187.41
 -16  -2  11    7.35   37.40
 -16  -2  11 -106.40  132.71
  16   1 -11    8.99  192.97
  16   1 -11 -204.63   77.10
 -16  -1 -11 -227.57  162.48
 -16  -1  11 -156.09  117.36
 -16  -1  11   26.36   36.57
  16   1  11 -153.91   67.48
  16   0 -11  317.01  196.31
 -16   0 -11   30.25   28.25
  16   0 -11    4.24   78.79
 -16   0 -11    6.03  151.05
 -16   0  11 -178.56  118.23
  16   0  11    3.38   59.00
 -16   0  11  -57.25   39.29
 -16   1 -11  -48.90  133.01
  16  -1 -11   61.92   77.43
 -16   1 -11   46.16   23.36
  16  -1 -11  -40.76  190.73
 -16   1  11 -114.42  110.79
 -16   1  11  -54.99   40.35
  16  -2 -11 -154.30  192.40
  16  -2 -11    4.59   84.01
 -16   2  11 -136.51  110.90
  16  -3 -11   68.86  200.22
  16  -3 -11 -127.72   80.17
 -16   3  11    5.36  109.99
  16  -4 -11 -231.76  193.79
 -16   4  11 -107.40  112.85
  17   7 -11    3.89   70.20
 -17  -7  11  338.51  178.05
 -17  -7  11  -60.52   40.28
  17   6 -11 -239.32   83.62
 -17  -6  11  -51.61   42.04
 -17  -6  11 -547.77  185.70
  17   5 -11 -148.27   82.67
 -17  -5  11   -7.09  174.22
 -17  -5  11   19.33   37.61
  17   4 -11 -236.32  197.98
  17   4 -11    4.20   79.78
 -17  -4  11   -6.81  161.80
 -17  -4  11   -3.80   37.77
  17   3 -11   89.09  199.14
  17   3 -11   30.09   76.34
 -17  -3  11  -11.45   36.33
 -17  -3  11  170.55  156.42
  17   2 -11 -256.00  200.00
  17   2 -11  113.91   79.99
 -17  -2  11  137.38  141.71
 -17  -2  11   11.92   39.52
  17   1 -11 -149.25   84.95
  17   1 -11  141.26  205.06
 -17  -1 -11   29.26  180.33
  17   1  11   22.68   72.10
 -17  -1  11   18.03  135.69
 -17  -1  11   16.88   42.48
  17   0 -11    4.68   89.10
  17   0 -11   29.49  203.89
 -17   0 -11   80.42  176.06
 -17   0 -11   -8.86   29.08
  17   0  11  -99.15   71.26
 -17   0  11   17.06   44.83
 -17   0  11 -233.97  132.70
  17  -1 -11   -4.87   88.43
  17  -1 -11   97.99  199.03
 -17   1  11  -56.31   45.96
 -17   1  11 -185.73  124.15
  17  -2 -11   60.69   89.35
  17  -2 -11  117.94  207.30
 -17   2  11   17.32  123.67
  17  -3 -11  -93.94  209.72
  17  -3 -11  129.70   89.46
 -17   3  11    5.93  128.28
  17  -4 -11   -5.04  200.07
 -17   4  11   18.58  129.31
  18   7 -11  148.06   83.77
 -18  -7  11 -187.68  194.82
 -18  -7  11  -13.40   44.15
  18   6 -11   27.02   85.94
  18   6 -11  -99.16  209.46
 -18  -6  11   30.92   45.69
 -18  -6  11  104.31  196.82
  18   5 -11   83.28   84.82
  18   5 -11  275.55  208.20
 -18  -5  11  247.13  190.43
 -18  -5  11   21.60   44.25
  18   4 -11   -4.58   82.08
  18   4 -11  -95.38  213.88
 -18  -4  11  -85.17   44.64
 -18  -4  11  -22.34  179.25
  18   3 -11  183.59  223.08
  18   3 -11  -84.84   87.95
 -18  -3  11  -93.49  163.38
 -18  -3  11  -25.45   41.79
  18   2 -11 -301.44  243.84
  18   2 -11  -14.43   90.85
 -18  -2  11  -74.81   47.32
 -18  -2  11 -330.40  163.67
  18   1 -11 -413.52  102.12
 -18  -1 -11    8.04  203.40
 -18  -1  11 -166.28  166.39
 -18  -1  11  -46.38   51.93
  18   1  11   76.03   82.44
  18   0 -11 -116.87  242.34
  18   0 -11 -325.38  107.36
 -18   0 -11   22.18   31.30
 -18   0  11 -403.15  157.60
 -18   0  11  -38.11   47.78
 -18   1  11 -168.83  150.39
 -18   1  11  -14.54   52.41
  18  -2 -11 -345.57  105.52
 -18   2  11   14.98   55.45
 -18   2  11 -590.50  152.45
  18  -3 -11   -5.69  100.95
  18  -3 -11   42.95  225.49
 -18   3  11    6.57  139.69
  18  -4 -11 -158.17  227.00
 -18   4  11  -54.62  145.67
  19   5 -11   55.46   99.06
  19   4 -11 -202.31   95.91
 -19  -4  11  -91.65  206.82
  19   3 -11    5.29   94.70
 -19  -3  11 -143.77  183.43
 -19  -3  11   -4.74   45.64
  19   2 -11   81.76  106.10
  19   2 -11  -11.84  252.63
 -19  -2  11    4.79   50.26
 -19  -2  11  398.75  180.64
  19   1 -11    5.67  106.47
  19   1 -11  120.33  240.72
 -19  -1 -11  -35.49  230.33
 -19  -1  11 -119.40  165.84
 -19  -1  11   70.33   49.49
  19   0 -11 -172.21  247.42
  19   0 -11  -88.29  106.42
 -19   0  11 -386.37  163.56
 -19   0  11   80.19   55.57
  19  -1 -11    6.08  109.34
 -19   1  11  -21.70   55.48
 -19   1  11 -312.80  166.29
  19  -2 -11   12.79  111.55
 -19   2  11 -139.05   57.96
 -19   2  11  171.99  157.21
  19  -3 -11    6.23  108.50
 -19   3  11 -138.86  154.39
   0   0 -12 2636.76  704.28
   0   0  12 2917.88  632.89
   0   1 -12   42.35   65.23
  -1   0 -12  -35.21   70.10
  -1   0  12  -24.89   44.40
   1   0  12  -11.42   29.31
   0  -1  12  -12.30   26.08
   0  -1  12   17.85   43.68
   1   0  12   25.60   49.85
   1   1 -12  503.95  141.59
  -1   1 -12  527.40  156.15
   1  -1  12  694.37  127.21
   1  -1  12  665.01  135.00
  -1  -1  12  351.53  133.60
   2   1 -12  -45.03   36.81
  -1   2 -12   -1.85   68.24
   1  -2  12   -8.13   35.34
   1  -2  12   -1.22   28.76
   0   2 -12  100.50   68.85
   0   2 -12   78.90   35.21
  -2   0 -12  255.52   84.22
   2   0  12  141.26   41.21
   0  -2  12  188.94   43.97
   0  -2  12  153.36   38.19
   2   0  12   66.77   56.92
  -2   1 -12   -8.15   70.29
   1   2 -12  -42.99   27.86
  -1  -2  12   63.51   24.92
   2  -1  12    2.70   29.88
  -1  -2  12   -3.40   31.35
   2  -1  12  -12.75   47.30
   2   2 -12  173.63   49.83
  -2   2 -12  150.55   79.23
  -2  -2  12  161.12   39.58
   2  -2  12  102.28   43.69
   2  -2  12   91.25   51.65
  -2   3 -12  -27.08   77.14
   3   2 -12   48.23   18.76
   3   2 -12   66.29   44.25
  -3  -2  12   -5.98   26.13
   2  -3  12   -5.24   28.96
  -3  -2  12   -9.91   21.64
   2  -3  12    3.71   35.59
   3   1 -12  -83.41   62.75
   3   1 -12    1.04   46.03
  -1   3 -12   54.56   73.64
  -3  -1  12    4.50   27.64
   1  -3  12   50.41   33.58
   1  -3  12   -9.86   29.94
   0   3 -12  -43.68   67.52
   3   0 -12   27.42   38.23
  -3   0 -12   64.49   75.66
   0  -3  12   -8.09   30.50
   0  -3  12    9.27   27.10
   3   0  12   14.02   33.78
   1   3 -12    1.70   68.88
  -3   1 -12  -34.58   75.92
   1   3 -12   20.61   22.75
   1   3 -12   26.75   13.07
  -1  -3  12   47.84   28.30
  -1  -3  12   26.08   26.47
  -1  -3  12   21.43   14.31
   3  -1  12   24.27   31.90
  -1  -3  12   34.28    7.14
  -3   2 -12    2.11   77.74
   2   3 -12   87.51   31.39
   2   3 -12   11.96   13.16
  -2  -3  12    0.68   18.06
   3  -2  12   37.16   31.33
   3  -2  12   -0.29    6.72
  -2  -3  12   -8.86   23.76
  -2  -3  12    6.27    5.30
   3   3 -12  296.89   60.79
  -3   3 -12  198.84  106.88
   3   3 -12  301.74   74.39
  -3  -3  12  180.10   66.11
   3  -3  12  259.42   61.12
   3  -3  12  338.00   68.30
  -3   4 -12  894.81  216.90
   4   2 -12  -71.77   64.79
  -2   4 -12  -69.56   83.41
  -2   4 -12  -10.70   14.72
   4   2 -12  -24.18   19.85
  -4  -2  12  -62.60   28.49
   2  -4  12  -16.84   35.28
  -4  -2  12  -13.91   27.31
   2  -4  12   -6.39   30.75
  -1   4 -12   16.24   17.79
   4   1 -12   -8.27   64.58
  -1   4 -12  -49.19   78.97
  -4  -1  12   19.79   33.40
   1  -4  12   30.03   28.73
   1  -4  12   13.23   31.86
   0   4 -12   23.17   16.33
  -4   0 -12   42.71   85.08
   0   4 -12  -13.55   73.52
   4   0  12   56.90   60.58
   4   0  12   27.92   32.91
   0  -4  12   32.21   27.24
  -4   0  12    5.77   40.81
   0  -4  12    8.76   30.88
   1   4 -12   14.95   14.34
   1   4 -12    5.10    7.86
  -4   1 -12    4.60   85.36
   1   4 -12   18.24   70.89
  -1  -4  12   16.67   13.16
   4  -1  12   -8.47   51.76
  -1  -4  12   17.69   28.78
  -1  -4  12    6.30   25.39
   4  -1  12   -3.02   30.29
   2   4 -12   -4.95   13.79
   2   4 -12   -2.65   11.39
   2   4 -12 -210.50   79.87
  -4   2 -12  -47.24   81.82
  -2  -4  12   -6.82   22.59
   4  -2  12    0.42   10.05
  -2  -4  12  -13.30    6.22
  -2  -4  12  -41.01   31.36
   4  -2  12   -1.47   35.35
  -2  -4  12  -42.83   19.91
   4  -2  12    9.75   45.30
  -4   3 -12  664.63  159.36
   4  -3  12  310.95  115.75
   4  -3  12  552.87  115.86
  -4   4 -12  180.52   52.72
  -4   4 -12  359.63  113.87
   4   4 -12  269.05   53.69
  -4  -4  12  143.63   61.14
   4  -4  12  226.85   62.38
   4  -4  12  246.52   63.79
   5   4 -12  251.06   72.71
  -4   5 -12  341.57  109.44
   4  -5  12  125.18   56.16
   4  -5  12  209.39   61.64
  -5  -4  12  175.53   46.52
  -5  -4  12  392.80   61.54
  -5  -4  12  213.12   55.51
   5   3 -12   20.69   13.07
   5   3 -12   29.19   54.23
  -3   5 -12   37.32   20.51
   5   3 -12   -8.51   59.40
  -3   5 -12  -21.41   88.50
   3  -5  12   53.80   36.77
  -5  -3  12    8.90   10.74
  -5  -3  12   36.50   20.20
  -5  -3  12   32.24   26.30
   5   2 -12  991.01  249.28
   5   2 -12 1126.67  219.65
   5   2 -12  875.39  266.14
   2  -5  12  778.14  216.37
  -5  -2  12 1274.53  233.13
  -5  -2  12  882.33  224.19
   2  -5  12  960.58  225.67
  -5  -2  12  980.59  231.41
   5   1 -12  -10.27   68.90
  -1   5 -12   34.49   18.17
   5   1 -12   -1.34   26.96
   1  -5  12   -2.73   35.84
  -5  -1  12  -68.33   36.58
  -5  -1  12  -99.03   39.37
   1  -5  12   -1.40   25.61
   5   0 -12  122.60   36.51
   5   0 -12  343.55   75.74
  -5   0 -12  341.67  108.25
   0   5 -12   22.99   21.43
   0   5 -12   58.07   16.01
  -5   0  12  144.13   48.79
   0  -5  12   10.50   29.65
   5   0  12   48.25   68.20
  -5   0  12  121.92   39.74
   0  -5  12   55.52   37.00
   5   0  12   67.78   43.91
  -5   1 -12 -200.79  104.94
   1   5 -12   15.56    9.86
   1   5 -12   16.10   16.02
   5  -1 -12  -30.34   57.20
  -1  -5  12    3.66   32.82
   5  -1  12    9.65   13.67
   5  -1  12  -32.62   59.54
  -1  -5  12    6.01   24.12
   5  -1  12   -9.62   37.25
   2   5 -12 1051.44  206.71
  -5   2 -12 1139.02  266.55
   2   5 -12 1158.78  226.16
   5  -2  12  729.27  225.13
  -2  -5  12  977.22  212.96
  -2  -5  12 1096.96  223.48
   5  -2  12  770.24  218.84
   5  -2  12  786.12  214.73
   3   5 -12   84.47   17.89
  -5   3 -12   27.66   96.55
   3   5 -12   49.06   17.50
  -5   3 -12   19.20   28.14
  -5   3 -12   29.22   10.62
   5  -3  12    7.82   40.27
   5  -3  12   17.76   31.55
   5  -3  12   44.85   15.73
  -3  -5  12   45.89   30.03
  -3  -5  12   47.41   23.17
   5  -3  12    2.20   41.25
   4   5 -12  199.59   42.44
  -5   4 -12  300.95  110.50
  -5   4 -12  174.74   44.93
  -4  -5  12  130.53   51.41
   5  -4  12  120.21   54.67
   5  -4  12  202.87   58.90
  -4  -5  12  216.58   46.44
   5   5 -12  186.46   67.08
   5   5 -12  159.20   37.90
  -5   5 -12  105.31   39.76
   5   5 -12  171.74   42.37
  -5   5 -12  181.48  114.65
   5  -5  12  185.88   57.27
  -5  -5  12  173.21   41.23
  -5  -5  12  186.56   36.21
   5  -5  12   85.60   49.63
   6   5 -12   37.53   25.35
  -5   6 -12   60.51   24.97
   6   5 -12  105.82   62.45
  -6  -5  12   45.90   14.68
   5  -6  12   23.75   35.26
   5  -6  12   26.75   46.50
   6   4 -12  232.38   61.50
   6   4 -12  298.55   84.45
  -6  -4  12  268.42   53.91
  -6  -4  12  181.83   63.46
   4  -6  12  250.45   70.17
  -6  -4  12  276.60   59.45
  -6  -4  12  266.25   72.40
  -3   6 -12  770.47  171.29
   6   3 -12  842.48  198.85
   6   3 -12  739.35  179.83
   3  -6  12  965.71  175.08
   3  -6  12  689.97  181.73
  -6  -3  12  786.50  185.80
  -6  -3  12  770.32  178.31
  -6  -3  12  887.35  190.10
  -2   6 -12  163.71   49.07
   6   2 -12  331.35   87.26
   6   2 -12  227.26   52.87
   6   2 -12  190.11   46.51
  -6  -2  12  213.03   62.05
  -6  -2  12  220.32   58.13
   2  -6  12  232.49   60.79
  -6  -2  12  180.84   52.00
   2  -6  12  211.47   54.42
   6   1 -12  181.95   79.33
  -1   6 -12  231.90   40.65
   6   1 -12  136.31   45.47
  -6  -1  12  188.08   51.84
   1  -6  12  163.79   46.09
   1  -6  12  117.82   50.14
  -6  -1  12  167.96   46.83
   6   0 -12 1377.08  387.93
  -6   0 -12 1782.58  402.79
   6   0 -12 1595.08  347.67
   0  -6  12 1417.02  335.67
   6   0  12 1824.13  346.20
   0  -6  12 1385.03  348.09
  -6   0  12 1364.55  364.25
  -6   0  12 1572.08  364.15
  -6   1 -12  208.93  105.02
   1   6 -12  115.18   34.46
   6  -1 -12  148.97   71.64
  -1  -6  12  132.40   38.20
   6  -1  12  122.44   67.71
   6  -1  12  134.67   47.79
  -1  -6  12  150.91   44.17
  -6   2 -12  359.83  117.85
   2   6 -12  274.56   57.21
   2   6 -12  300.85   54.20
   6  -2  12  237.41   66.84
   6  -2  12  176.79   54.49
  -2  -6  12  225.06   57.12
  -2  -6  12  241.34   63.24
   6  -2  12  164.95   74.53
  -6   3 -12  581.30  182.29
   3   6 -12  891.74  169.46
  -6   3 -12  748.67  173.31
   3   6 -12  776.16  183.78
  -6   3 -12  961.78  228.57
   6  -3  12  578.14  197.46
  -3  -6  12  917.51  180.82
   6  -3  12  666.11  180.63
  -3  -6  12  942.21  173.40
   6  -3  12  925.63  179.44
   6  -3  12  719.75  173.36
   4   6 -12  233.48   53.37
  -6   4 -12  363.72  130.60
  -6   4 -12  192.85   55.17
   6  -4  12  214.22   64.21
   6  -4  12  144.40   67.29
  -4  -6  12  290.37   62.02
   5   6 -12   24.74   21.22
  -6   5 -12  155.83  119.35
  -6   5 -12   45.27   24.63
   6  -5  12   51.13   34.81
   6  -5  12   42.79   45.66
  -5  -6  12   19.46   31.04
  -6   6 -12  112.48  121.02
   6   6 -12  105.12   37.75
  -6   6 -12  160.13   35.61
   6  -6  12  134.45   44.03
   6  -6  12   51.98   54.38
  -6   7 -12   49.25   27.28
   7   6 -12   17.90   28.20
   6  -7  12   37.53   38.08
  -7  -6  12   38.90   15.21
   6  -7  12   35.67   50.38
   7   5 -12  236.85   80.65
   7   5 -12  190.49   50.98
  -5   7 -12  156.12   46.58
   5  -7  12  138.24   53.43
   5  -7  12  226.37   63.55
  -7  -5  12  204.89   41.41
  -7  -5  12  108.57   69.77
   7   4 -12   23.08   69.93
   7   4 -12   22.99   27.74
   4  -7  12   24.89   44.19
  -7  -4  12   45.65   14.79
  -7  -4  12   12.56   49.79
  -3   7 -12  279.20   57.72
   7   3 -12  222.29   92.18
   7   3 -12  261.18   62.20
   3  -7  12  221.04   61.02
  -7  -3  12  173.57   73.75
   3  -7  12  295.24   68.44
  -7  -3  12  237.70   53.61
  -2   7 -12  222.17   51.25
   7   2 -12  322.66   91.98
   7   2 -12  229.15   55.31
   2  -7  12  225.04   62.45
  -7  -2  12  188.87   66.19
   2  -7  12  175.55   55.64
  -1   7 -12  328.77   64.65
   7   1 -12  370.85  107.79
   7   1 -12  271.66   68.91
   1  -7  12  212.70   73.21
  -7  -1  12  239.14   77.04
   1  -7  12  319.78   68.03
   7   0 -12    5.92   78.08
   0   7 -12   10.49   18.28
  -7   0 -12  -20.81  107.93
   7   0 -12   -1.82   30.60
   0  -7  12   -5.85   25.31
  -7   0  12   20.24   40.20
   7   0  12   -3.32   19.09
   7   0  12  -21.61   43.98
   7   0  12  -36.51   72.34
   0  -7  12   -7.26   33.98
   1   7 -12  112.99   52.33
   7  -1 -12  286.48   62.85
   7  -1 -12  278.66   93.78
  -7   1 -12  324.44  124.17
  -1  -7  12  244.01   62.31
  -7   1  12  201.56   70.42
   7  -1  12  223.18   66.32
   7  -1  12  222.37   83.42
   7  -1  12  231.13   55.47
  -1  -7  12  216.40   56.03
   2   7 -12  226.88   52.79
  -7   2 -12  361.23  121.44
  -7   2 -12  195.01   50.96
   7  -2 -12  169.36   89.97
  -2  -7  12  265.10   60.85
   7  -2  12  255.93   76.63
   7  -2  12  256.54   71.82
   7  -2  12  195.76   65.69
  -7   3 -12  301.10  126.14
  -3  -7  12  164.80   57.58
   7  -3  12  187.66   64.71
   7  -3  12  208.24   66.66
  -7   4 -12   56.46   30.30
   4   7 -12  131.71   25.62
  -7   4 -12  144.34  125.76
   7  -4  12   45.58   50.20
  -4  -7  12   37.13   37.61
   7  -4  12   38.96   44.34
  -7   5 -12  153.21   48.30
   5   7 -12  192.63   49.64
  -7   5 -12  177.61  127.78
   7  -5  12  230.22   57.93
  -5  -7  12  228.22   55.91
   7  -5  12  170.90   67.39
  -7   6 -12  -95.83  125.67
   6   7 -12   21.80   23.11
  -7   6 -12   22.10   26.62
   7  -6  12   20.68   54.39
   7  -6  12   40.42   37.23
  -7   7 -12    1.98   28.94
   7   7 -12   58.18   27.68
   7  -7  12  -33.08   44.32
   7  -7  12  -75.46   57.90
   8   7 -12   23.63   31.07
  -7   8 -12   29.84   30.16
   7  -8  12   -2.29   56.97
   7  -8  12  -43.16   41.89
   8   6 -12   28.07   30.47
  -6   8 -12   22.56   28.62
   8   6 -12   19.92   77.59
   6  -8  12   -1.98   39.54
  -8  -6  12   24.54   16.11
   6  -8  12   10.71   55.02
   8   5 -12   52.67   74.11
   8   5 -12   22.15   31.41
  -5   8 -12  -15.80   26.07
   5  -8  12   36.40   37.74
  -8  -5  12   38.03   14.59
  -8  -5  12   40.78   61.79
   5  -8  12   19.97   47.33
   8   4 -12  478.27  111.13
   8   4 -12  532.72  137.50
   4  -8  12  408.88  114.56
  -8  -4  12  438.48   97.98
  -8  -4  12  430.45  126.18
   8   3 -12   47.41   32.42
   8   3 -12   73.41   80.12
  -3   8 -12   27.71   26.42
   3  -8  12   65.09   32.17
   3  -8  12   73.66   44.48
  -8  -3  12   29.77   52.56
  -8  -3  12   63.67   18.13
  -2   8 -12  274.44   57.93
   8   2 -12  186.00   62.29
   8   2 -12  420.55  105.02
   2  -8  12  269.58   67.67
   2  -8  12  222.67   61.52
  -8  -2  12  190.26   73.54
  -1   8 -12  133.13   31.86
   8   1 -12   27.71   36.80
   8   1 -12  109.68   86.87
  -8  -1  12   81.56   51.94
   1  -8  12   91.43   36.49
   1  -8  12  136.01   45.33
   8   1  12   56.79   87.01
  -8   0 -12  370.17  149.62
   8   0 -12  317.48   83.46
   8   0 -12  346.61  122.37
   0   8 -12  321.83   76.51
   0  -8  12  427.69   85.07
   8   0  12  423.33   90.31
   8   0  12  203.10  111.61
   8   0  12  332.73   81.47
  -8   0  12  235.56   90.91
   8  -1 -12   66.12   45.11
  -8   1 -12   77.61  121.02
   8  -1 -12  141.67   87.43
  -8   1  12  100.48   53.10
   8  -1  12  121.86   66.94
  -1  -8  12  101.67   43.25
   8  -1  12   92.83   33.17
   8  -1  12  181.57   53.81
   8  -2 -12  104.19   97.18
  -8   2 -12  108.87  127.46
  -8   2 -12  226.96   50.04
  -8   2 -12  110.23   68.18
   8  -2  12  335.00   76.75
   8  -2  12  186.52   67.36
   8  -2  12  234.65   52.51
  -2  -8  12  209.26   59.67
   8  -2  12  267.15   76.75
  -8   3 -12   23.01   44.84
  -8   3 -12   45.30   14.98
  -8   3 -12  -29.63  122.69
   8  -3  12   16.55   45.94
   8  -3  12   65.37   50.86
  -3  -8  12   65.39   34.75
  -8   4 -12  540.41  108.82
  -8   4 -12  628.09  181.94
   8  -4  12  359.41  114.73
   8  -4  12  519.11  121.03
  -4  -8  12  455.79  114.19
  -8   5 -12   42.01  134.35
  -8   5 -12   42.51   27.57
   8  -5  12   35.53   40.65
   8  -5  12  -12.32   51.99
  -5  -8  12   18.98   34.37
  -8   6 -12   76.15  134.45
  -8   6 -12   46.29   27.97
   6   8 -12   20.42   23.10
   8  -6  12   -7.63   37.79
   8  -6  12   31.08   61.02
  -8   7 -12   49.39   29.43
   7   8 -12   30.11   27.73
  -8   7 -12   43.96  142.19
   8  -7  12   16.03   40.39
   8  -7  12    6.93   60.49
  -8   8 -12   37.67   31.28
   8   8 -12   -6.20   28.57
   8  -8  12  132.84   67.48
   8  -8  12    4.25   43.00
   9   8 -12   39.89   32.72
   9   7 -12   15.78   32.39
   7  -9  12    2.45   61.75
   9   6 -12   66.98   79.95
  -6   9 -12   15.90   32.86
   9   6 -12   79.83   34.93
   6  -9  12    2.13   43.38
  -9  -6  12   43.06   19.50
   6  -9  12    2.30   57.34
   9   5 -12  111.21   48.99
   9   5 -12  237.83   92.82
  -5   9 -12  125.01   43.80
  -9  -5  12  197.28   77.62
  -9  -5  12  176.30   35.77
   5  -9  12   26.17   64.53
   9   4 -12   92.73   40.76
   9   4 -12  218.02   91.50
   4  -9  12  146.82   54.76
  -9  -4  12   64.22   70.36
  -9  -4  12   19.22   21.13
   9   3 -12  378.16   85.73
   9   3 -12  506.06  121.91
  -3   9 -12  247.59   78.05
  -9  -3  12  313.54   73.13
  -9  -3  12  275.66  102.35
   3  -9  12  356.35   89.67
   9   2 -12    1.85   33.12
   9   2 -12  -55.86   92.35
  -9  -2  12   16.70   16.85
  -9  -2  12   32.47   56.74
   9   1 -12  181.60  109.20
   9   1 -12  111.66   48.09
   9   1  12  148.54   98.58
  -9  -1  12  151.88   62.86
   9   1  12  178.82   43.55
   9   0 -12   84.80  102.71
  -9   0 -12 -114.54  131.32
   9   0 -12   -2.16   39.57
   9   0  12    2.95   26.76
  -9   0  12   12.42   51.75
   9   0  12   -2.24   52.11
   9   0  12   19.01   77.79
  -9   1 -12   85.30   26.93
   9  -1 -12   88.10   49.15
  -9   1 -12  130.12  124.62
   9  -1 -12   22.24   98.72
   9  -1  12  107.23   54.12
   9  -1  12   62.43   70.87
  -9   1  12   96.41   57.53
   9  -1  12  147.11   34.93
   9  -2 -12  -88.61   93.44
  -9   2 -12    4.08   54.73
  -9   2 -12   19.24   13.04
  -9   2 -12  124.85  125.30
   9  -2 -12  -50.65   45.36
   9  -2  12   68.14   49.06
   9  -2  12   -1.52   60.67
   9  -2  12   27.04   24.10
   9  -2  12  -14.20   60.68
  -9   2  12    8.58   51.26
  -9   3 -12  488.92  162.06
   9  -3  12  331.41   98.07
   9  -3  12  353.29   95.76
  -9   4 -12  119.75  144.53
  -9   4 -12   50.26   30.92
   9  -4  12   54.03   56.58
   9  -4  12   54.92   49.83
  -9   5 -12  249.82   52.52
  -9   5 -12  210.89  156.90
   9  -5  12  117.65   72.07
   9  -5  12  198.14   60.11
  -9   6 -12  157.57  150.62
  -9   6 -12   18.18   32.18
   9  -6  12   65.42   62.04
   9  -6  12   19.72   39.75
  -9   7 -12 -128.10  158.12
  -9   7 -12    8.66   30.53
   9  -7  12   -2.48   63.95
   9  -7  12   12.44   39.83
   9  -8  12  -73.09   70.65
  -9   9 -12    2.53   36.14
   9  -9  12  -23.47   45.59
   9 -10  12   24.50   78.90
  10   8 -12   -7.77   39.58
  10   7 -12   21.48   38.04
  10   6 -12  -63.82   95.40
  10   6 -12  -23.75   39.12
 -10  -6  12   17.02   83.50
 -10  -6  12  -19.63   19.52
  10   5 -12   14.33   41.68
  10   5 -12   89.38   93.17
 -10  -5  12   -6.52   77.43
 -10  -5  12   41.87   19.98
  10   4 -12  149.81  102.81
  10   4 -12  155.85   51.09
 -10  -4  12   53.76   79.28
 -10  -4  12  141.16   34.55
  10   3 -12   -6.33   40.58
  10   3 -12 -216.69  104.12
 -10  -3  12   16.94   18.79
 -10  -3  12  -83.65   74.02
  10   2 -12   -4.19   37.04
  10   2 -12   23.33  107.21
 -10  -2  12   19.86   62.83
 -10  -2  12   17.10   18.59
  10   1 -12 -116.90   46.37
  10   1  12   -4.33   95.94
 -10  -1  12  -63.51   64.05
  10   1  12   10.63   31.66
 -10   0 -12   89.75  135.38
  10   0 -12 -113.10   47.84
  10   0  12  -30.47   85.31
 -10   0  12  -11.06   61.09
  10   0  12    1.67   28.86
 -10   1 -12  -81.15  133.77
 -10   1 -12    9.42   15.65
  10  -1 -12   -2.58   46.46
  10  -1  12   30.77   27.70
  10  -1  12  -12.85   69.90
 -10   1  12  -52.01   59.41
  10  -1  12   26.14   68.99
  10  -1  12    4.35   53.35
  10  -2 -12   68.15   47.18
 -10   2 -12  -23.59   60.77
 -10   2 -12   42.19  140.44
  10  -2 -12 -106.73  105.69
 -10   2 -12    7.16   15.07
 -10   2  12  -39.88   61.30
  10  -2  12   19.83   58.92
  10  -2  12   26.59   52.03
 -10   3 -12  -37.84   31.20
 -10   3 -12 -176.60  143.20
  10  -3 -12    8.23  100.69
  10  -3  12    9.79   51.92
  10  -3  12   54.83   53.70
 -10   4 -12  271.70  160.96
 -10   4 -12   95.11   40.93
  10  -4  12  128.73   63.23
  10  -4  12  166.69   54.31
 -10   5 -12   28.30   29.64
 -10   5 -12  176.61  161.77
  10  -5  12   28.87   59.08
  10  -5  12   28.87   43.92
 -10   6 -12 -157.17  169.89
 -10   6 -12   -2.11   31.31
  10  -6  12  -41.26   67.30
  10  -6  12   -8.15   42.74
 -10   7 -12  -23.72  174.34
 -10   7 -12  148.85   39.03
  10  -7  12  171.10   51.10
  10  -7  12  -63.97   76.89
 -10   9 -12  -48.01   36.61
  10  -9  12  -29.03   46.24
  10  -9  12   33.24   79.03
  10 -10  12   32.70   84.79
  11   7 -12  -47.95   42.79
 -11  -7  12   76.05   23.18
  11   6 -12   46.88   41.77
  11   6 -12  -28.68  103.93
 -11  -6  12   23.76   21.00
 -11  -6  12   98.97   94.93
  11   5 -12   29.52   45.56
  11   5 -12   21.00  109.85
 -11  -5  12   29.45   89.39
 -11  -5  12   36.57   21.71
  11   4 -12  105.96  115.20
  11   4 -12   38.95   44.39
 -11  -4  12   49.79   83.45
 -11  -4  12   -1.99   20.06
  11   3 -12   56.76   47.11
  11   3 -12  150.93  118.67
 -11  -3  12   38.56   23.18
 -11  -3  12  -20.30   81.21
  11   2 -12  -56.73   44.79
  11   2 -12   60.61  117.90
 -11  -2  12   -4.29   21.29
 -11  -2  12   16.03   73.23
  11   1 -12   29.83  119.17
  11   1 -12   17.31   47.17
  11   1  12   85.84   91.03
 -11  -1  12   21.72   69.37
  11   1  12   21.89   35.84
  11   0 -12  -97.68  126.97
  11   0 -12  -10.37   47.49
 -11   0  12   -3.08   64.39
  11   0  12  -32.10   33.75
  11   0  12   11.24   77.31
 -11   1 -12   -9.25   77.67
  11  -1 -12  121.43  126.93
  11  -1 -12    2.83   54.28
 -11   1 -12   31.34   17.66
 -11   1 -12   -7.18  145.48
  11  -1  12   19.34   64.55
 -11   1  12   22.35   68.00
  11  -1  12   33.89   33.78
  11  -1  12   -2.02   73.24
  11  -1  12    4.62   55.77
  11  -2 -12  -12.02   54.69
 -11   2 -12   -2.72   68.45
 -11   2 -12    7.92   15.03
 -11   2 -12  -17.28  146.80
  11  -2 -12 -220.08  118.60
 -11   2  12  -10.01   66.87
  11  -2  12  -14.04   64.66
  11  -2  12   21.53   52.96
 -11   3 -12   79.19  153.07
 -11   3 -12   13.19   34.30
  11  -3  12   48.71   56.19
  11  -3  12   22.43   55.33
 -11   3  12    3.62   67.90
 -11   4 -12   94.76  161.76
 -11   4 -12   -2.11   29.93
  11  -4  12   -6.48   56.20
  11  -4  12   42.48   48.53
 -11   5 -12  -17.04   31.16
 -11   5 -12 -121.45  173.19
  11  -5  12   54.91   47.38
  11  -5  12   41.39   62.73
 -11   6 -12  -20.55  180.84
 -11   6 -12   24.29   32.02
  11  -6  12    4.20   44.70
  11  -6  12   15.08   67.70
  11  -8  12  587.12   89.07
  11  -8  12   23.33   58.34
 -11   9 -12   -2.77   36.68
 -11   9 -12 -268.03  189.30
  11  -9  12 -196.90   88.68
  11 -10  12   -3.48   91.56
  12   8 -12   49.26   47.26
 -12  -7  12   -7.57   24.40
  12   4 -12   -2.62   49.13
  12   3 -12  102.56   56.25
 -12  -3  12    3.81   92.79
  12   2 -12  -42.36   51.15
 -12  -2  12  118.97   85.51
  12   1 -12  -19.33   52.12
  12   1  12  -31.02   40.83
  12   1  12   -8.53   94.84
 -12  -1  12   20.87   78.02
  12   0 -12   -2.88   51.07
  12   0  12   41.12   82.83
  12   0  12   72.03   42.63
 -12   1 -12   22.72  152.18
 -12   1 -12   -5.72   19.05
 -12   1 -12   -6.94   86.60
  12  -1  12  -53.74   59.60
  12  -1  12   68.00   71.98
  12  -1  12  108.65   81.07
  12  -1  12   28.74   38.75
 -12   2 -12   69.91  157.82
  12  -2  12   19.79   64.50
  12  -2  12   15.87   58.98
 -12   3 -12   27.51   34.64
  12  -3 -12  -16.39  124.14
 -12   3 -12  -36.24  157.57
  12  -3  12  -19.75   55.39
  12  -3  12  -31.86   51.55
 -12   4 -12 -102.30  173.85
 -12   4 -12   15.55   32.74
  12  -4  12    4.45   49.72
  12  -4  12  -44.87   60.01
 -12   5 -12  216.63  198.76
 -12   5 -12   33.30   36.91
  12  -5  12   28.00   49.61
  12  -5  12  103.27   68.62
 -12   6 -12 -135.53  194.35
  12  -6  12   -2.56   72.16
 -12   7 -12   24.30   33.72
  12  -7  12   11.29   46.25
 -12   8 -12  -38.99   36.70
 -12   8 -12   62.50  209.81
  12  -8  12   -6.35   83.34
  12  -8  12    2.36   45.03
 -12   9 -12    2.87   41.64
 -12   9 -12  129.05  213.63
  12  -9  12  -10.35   92.73
  12 -10  12   -3.71   99.72
  13   8 -12  -54.76   48.90
  13   7 -12    2.68   48.24
 -13  -7  12  -96.07  115.35
 -13  -7  12  -11.05   26.96
  13   6 -12   52.55   54.47
  13   6 -12  -47.72  122.22
 -13  -6  12  -28.08  111.97
 -13  -6  12  -18.45   25.65
  13   5 -12  -59.34   55.52
  13   5 -12   94.25  134.60
 -13  -5  12   -4.62  115.79
 -13  -5  12  -17.71   25.26
  13   4 -12  -46.29   57.47
  13   4 -12   91.26  138.79
 -13  -4  12   22.36  112.60
 -13  -4  12   17.47   25.16
  13   3 -12 -257.48  155.76
  13   3 -12  -17.42   56.09
 -13  -3  12    5.32   28.97
 -13  -3  12  -45.96  106.21
  13   2 -12 -123.50   62.23
  13   2 -12 -329.46  194.92
 -13  -2  12  241.87  126.86
 -13  -2  12  -16.32   27.48
  13   1 -12   76.95   63.61
  13   1 -12  196.09  164.86
 -13  -1  12  -27.43   30.74
  13   1  12   12.35   45.45
 -13  -1  12  214.05   95.59
  13   0 -12   63.93   67.01
  13   0 -12  531.43  168.12
 -13   0  12  138.03   95.33
  13   0  12   95.44   53.86
  13  -1 -12    3.65  155.82
 -13   1 -12   12.42   20.55
 -13   1 -12   15.46   97.34
  13  -1 -12   41.31   63.18
 -13   1  12   35.07   88.71
  13  -2 -12  -61.82   66.14
 -13   2  12  -75.21   87.12
  13  -3 -12    3.65   64.58
  13  -3 -12 -197.29  146.63
 -13   3  12   50.49   85.47
 -13   7 -12   40.48   37.70
 -13   7 -12 -123.43  224.97
 -13   8 -12  -35.15   41.22
 -13   8 -12   98.27  227.16
  13  -8  12   16.90   49.92
  13  -8  12  -35.59   91.80
 -13   9 -12   38.62   39.66
 -13   9 -12  -10.79  239.97
  13  -9  12  -68.70  102.20
 -13  10 -12 -284.72  246.41
  13 -10  12   23.65  108.57
  14   8 -12    2.86   55.01
 -14  -8  12 -161.41  136.51
  14   7 -12   76.74   58.26
 -14  -7  12   12.15   30.68
 -14  -7  12  121.90  131.89
  14   6 -12  -90.64   59.60
  14   6 -12   63.36  131.63
 -14  -6  12  -11.68   29.18
 -14  -6  12  104.63  126.54
  14   5 -12  335.48  150.54
  14   5 -12   68.18   64.20
 -14  -5  12 -142.89  124.05
 -14  -5  12  -14.11   28.97
  14   4 -12  -57.18   61.51
  14   4 -12  232.17  158.80
 -14  -4  12  -33.39   29.12
 -14  -4  12   53.94  119.19
  14   3 -12   44.60  157.51
  14   3 -12   39.91   64.64
 -14  -3  12  -46.90  114.15
 -14  -3  12   26.05   27.58
  14   2 -12 -107.09  171.42
  14   2 -12 -113.44   63.00
 -14  -2  12    3.04   30.54
 -14  -2  12  -22.49  110.80
  14   1 -12  155.95  170.03
  14   1 -12  126.65   68.50
 -14  -1  12   18.44   32.58
 -14  -1  12  -21.73   99.69
  14   0 -12  -17.72   66.40
  14   0 -12  251.14  164.75
 -14   0  12   63.99   99.16
  14  -1 -12  -95.95   66.65
  14  -1 -12 -142.21  165.37
 -14   1  12   90.51   95.88
  14  -2 -12    7.91  157.65
  14  -2 -12   72.25   71.63
 -14   2  12  -13.05   97.10
  14  -3 -12 -125.88  158.75
  14  -3 -12  -47.70   69.00
 -14   3  12 -109.77   90.61
  15   8 -12 -143.44   63.01
 -15  -8  12   17.80  136.83
  15   7 -12   98.57   63.19
 -15  -7  12    5.84  143.74
 -15  -7  12   -6.69   32.10
  15   6 -12   -3.38   62.40
  15   6 -12 -147.63  144.77
 -15  -6  12  122.16  143.71
 -15  -6  12  -38.84   34.05
  15   5 -12  159.48  157.31
  15   5 -12 -209.91   68.85
 -15  -5  12   -6.29   31.68
 -15  -5  12   90.95  148.18
  15   4 -12  369.72  175.70
  15   4 -12  125.19   75.39
 -15  -4  12   31.04   34.27
 -15  -4  12  -32.69  128.55
  15   3 -12   -8.19  174.58
  15   3 -12    3.64   68.90
 -15  -3  12  120.50  129.12
 -15  -3  12   19.24   34.62
  15   2 -12 -132.48   69.18
  15   2 -12  -95.65  182.47
 -15  -2  12  145.35  117.68
 -15  -2  12   40.89   34.43
  15   1 -12  -63.72  177.91
  15   1 -12   41.65   74.28
 -15  -1  12    4.85  109.79
 -15  -1  12   20.51   35.56
  15   1  12   51.85   53.67
 -15   0 -12  -35.97   26.12
  15   0 -12 -256.27  190.73
  15   0 -12  -27.43   71.03
 -15   0 -12   43.34  138.48
 -15   0  12 -146.48  107.12
 -15   0  12  -24.46   34.37
  15  -1 -12   56.98   74.54
  15  -1 -12   51.21  180.68
 -15   1  12   42.98  101.61
  15  -2 -12  -55.83  179.91
  15  -2 -12    4.42   72.98
 -15   2  12 -105.33  100.90
  15  -3 -12  129.14  179.06
  15  -3 -12   17.37   74.93
 -15   3  12    4.99   98.89
  16   8 -12  -99.69   70.99
 -16  -8  12  -65.06  163.71
  16   7 -12  -78.83   70.19
 -16  -7  12  -65.04  160.43
 -16  -7  12  -29.50   37.92
  16   6 -12 -103.31   72.24
  16   6 -12   64.53  166.98
 -16  -6  12  -21.55   33.29
 -16  -6  12   12.82  147.23
  16   5 -12  259.86  182.89
  16   5 -12   30.54   72.54
 -16  -5  12 -113.65  151.55
 -16  -5  12   45.65   37.76
  16   4 -12  -27.09  178.03
  16   4 -12   70.05   71.76
 -16  -4  12  -18.20  145.85
 -16  -4  12  -44.96   35.05
  16   3 -12 -183.86  189.43
  16   3 -12   59.55   73.40
 -16  -3  12    6.96   35.46
 -16  -3  12   52.78  136.94
  16   2 -12  -52.60   75.96
  16   2 -12 -302.15  190.13
 -16  -2  12  179.12  131.60
 -16  -2  12    7.51   38.26
  16   1 -12  285.22  193.46
  16   1 -12  -62.67   76.98
 -16  -1 -12   26.53  164.76
 -16  -1  12   64.18  119.67
 -16  -1  12   26.90   40.15
  16   1  12  -20.19   63.13
  16   0 -12   13.85  192.36
  16   0 -12  108.18   80.32
 -16   0  12  -94.66  113.20
 -16   0  12  -23.36   38.73
  16  -1 -12 -253.93  193.01
  16  -1 -12    4.61   78.09
 -16   1  12   40.19   41.06
 -16   1  12   74.24  108.92
  16  -2 -12 -300.24  192.62
  16  -2 -12   24.30   87.34
 -16   2  12 -121.65  114.04
  16  -3 -12    9.50   84.34
  16  -3 -12  205.59  197.22
 -16   3  12  126.09  113.26
  16  -4 -12   18.86  192.13
 -16   4  12  115.44  117.77
  17   8 -12   19.42   74.07
 -17  -8  12   36.11  178.89
  17   7 -12  -88.00   75.73
 -17  -7  12   20.38   36.87
 -17  -7  12    7.21  175.55
  17   6 -12   58.17   80.27
  17   6 -12 -162.00  184.39
 -17  -6  12   20.04   41.13
 -17  -6  12 -120.79  172.73
 -17  -5  12  267.32  187.73
  17   4 -12  -29.67  207.53
  17   4 -12 -259.90   86.42
 -17  -4  12   57.82   39.75
 -17  -4  12 -198.74  158.62
  17   3 -12  520.67  218.41
  17   3 -12   61.14   83.71
 -17  -3  12  211.09  148.82
 -17  -3  12    3.88   42.31
  17   2 -12  261.53  212.24
  17   2 -12   -4.45   80.03
 -17  -2  12   28.43   41.35
 -17  -2  12  -79.73  136.65
  17   1 -12  233.97  215.08
  17   1 -12    9.20   85.83
 -17  -1 -12  -43.43  176.80
 -17  -1  12   34.48   45.24
 -17  -1  12  101.56  129.84
  17   0 -12  -40.11  206.79
  17   0 -12  -98.52   80.43
 -17   0  12   12.97   40.09
 -17   0  12  -41.05  129.43
  17  -1 -12    5.08   91.56
  17  -1 -12 -120.31  215.07
 -17   1  12    5.90  126.07
 -17   1  12  -17.71   43.31
  17  -2 -12  -45.08  203.65
  17  -2 -12   21.31   92.29
 -17   2  12  251.78  128.78
  17  -3 -12   -5.21   91.84
  17  -3 -12   25.24  209.68
 -17   3  12   12.07  124.16
  17  -4 -12 -433.80  221.04
 -17   4  12   -6.33  129.19
  18   7 -12  144.29   83.80
 -18  -7  12   39.65  188.14
 -18  -7  12  -40.58   44.23
  18   6 -12  -36.94  211.17
  18   6 -12  -81.54   86.24
 -18  -6  12  -44.66   45.36
 -18  -6  12 -252.25  206.95
  18   5 -12  -84.57  213.05
  18   5 -12 -130.26   88.02
 -18  -5  12  198.52  184.99
 -18  -5  12    8.74   40.67
  18   4 -12  -14.34   87.71
  18   4 -12 -296.76  226.59
 -18  -4  12  177.49  181.56
 -18  -4  12    4.31   45.35
  18   3 -12  281.93  233.31
  18   3 -12  -34.24   90.96
 -18  -3  12   14.20  166.19
 -18  -3  12    4.32   46.59
  18   2 -12  338.90  231.41
  18   2 -12  -40.27   92.11
 -18  -2  12  -49.35   48.05
 -18  -2  12  177.85  157.52
  18   1 -12  -21.45  230.45
  18   1 -12   -5.23   97.39
 -18  -1  12   61.74   47.77
 -18  -1  12  -60.08  151.19
  18   0 -12  119.18  229.24
  18   0 -12    5.43   93.67
 -18   0  12    9.72   46.58
 -18   0  12  -91.69  143.53
  18  -1 -12   16.24  224.03
  18  -1 -12 -139.90  105.19
 -18   1  12    4.94   53.56
 -18   1  12 -177.47  145.57
  18  -2 -12    5.84  106.74
  18  -2 -12  270.98  226.09
 -18   2  12  -25.53   55.46
 -18   2  12    6.51  141.93
  18  -3 -12  327.02  230.34
  18  -3 -12   91.59  104.37
 -18   3  12   26.75  141.78
  18  -4 -12 -155.22  235.23
 -18   4  12   41.83  147.07
  19   4 -12 -271.34  104.35
 -19  -4  12 -340.65  199.30
  19   3 -12   21.41   96.09
 -19  -3  12  166.42  186.56
 -19  -3  12  -91.58   52.61
  19   2 -12 -138.28  238.79
  19   2 -12 -294.63  104.41
 -19  -2  12   73.08   52.62
 -19  -2  12  -53.59  173.72
  19   1 -12  -46.10  102.79
 -19  -1  12 -148.73   57.69
 -19  -1  12  -74.55  174.48
  19   0 -12  -71.96  105.73
  19   0 -12 -122.80  205.37
 -19   0  12  205.11  159.85
  19  -1 -12    6.18  112.69
 -19   1  12  124.54  162.09
 -19   1  12   -5.53   43.64
  19  -2 -12    6.42  112.10
 -19   2  12 -167.06  164.32
   0   0 -13    7.01   74.30
   0   0  13   17.35   55.15
   0   1 -13  535.97  142.19
  -1   0 -13  456.46  144.79
   1   0  13  515.42  111.24
   0  -1  13  531.17  119.62
   1   0  13  509.94  124.15
  -1   0  13  405.43  121.71
   0  -1  13  379.72  110.66
  -1   1 -13  -23.34   76.02
   1   1 -13  -60.54   70.15
   1   1 -13    1.34   29.40
   1  -1  13   18.39   47.38
  -1  -1  13  -13.20   28.59
   1  -1  13    7.04   29.42
  -1  -1  13  -18.33   45.10
   2   1 -13   80.50   44.38
  -1   2 -13   25.98   77.94
  -2  -1  13   63.58   45.66
   1  -2  13   78.92   36.56
   1  -2  13  108.36   47.07
   0   2 -13   21.63   21.25
  -2   0 -13   19.74   82.08
   0   2 -13   24.40   69.37
   2   0  13   23.02   57.47
   2   0  13   32.29   32.86
  -2   0  13   -7.58   48.21
   0  -2  13   24.13   28.84
   0  -2  13    8.43   41.54
   1   2 -13   90.01   70.84
  -2   1 -13   55.58   82.24
   1   2 -13   84.99   36.47
  -1  -2  13   83.94   41.95
   2  -1  13   30.93   37.47
  -1  -2  13   60.56   33.25
   2  -1  13   22.35   57.38
   2   2 -13  -76.66   65.71
   2   2 -13   23.08   37.49
  -2   2 -13  -23.41   77.64
  -2  -2  13   86.98   29.60
  -2  -2  13   -7.00   34.14
   2  -2  13  -34.05   32.84
   2  -2  13  -16.83   47.79
   3   2 -13  -89.79   24.97
  -2   3 -13 -177.87   97.32
   2  -3  13  -24.60   43.05
   2  -3  13  -25.56   35.76
  -3  -2  13  -18.95   38.37
   3   1 -13   29.49   48.97
  -1   3 -13   42.30   82.44
   1  -3  13    1.34   33.55
   1  -3  13   19.25   35.27
  -3   0 -13  -84.75   85.97
   0   3 -13  -15.86   77.78
   0  -3  13    1.80   34.80
   0  -3  13   -5.06   30.02
   3   0  13    3.37   35.52
   1   3 -13   -1.85   73.79
   1   3 -13    9.63   22.09
  -3   1 -13  -25.81   83.79
  -1  -3  13   13.24    4.54
  -1  -3  13   23.32   30.70
  -1  -3  13  -16.68   29.90
   3  -1  13   15.48   35.90
  -3   2 -13  -56.54   90.43
   2   3 -13  -34.85   18.50
  -2  -3  13   -7.20    6.45
   3  -2  13   11.41    7.25
  -2  -3  13  -70.74   35.41
  -2  -3  13   -5.93   32.62
   3  -2  13  -10.46   36.08
  -3   3 -13 -248.94  103.90
   3   3 -13  -76.12   78.17
  -3  -3  13   12.70   29.91
   3  -3  13  -76.60   42.87
  -3  -3  13  -94.62   29.29
  -3  -3  13  -97.54   34.20
  -3   4 -13  119.27   96.28
   4   3 -13  117.76   27.38
  -3   4 -13   74.27   29.83
  -4  -3  13   77.44   34.77
   3  -4  13   98.05   45.08
   3  -4  13   78.57   41.83
  -2   4 -13  133.43   92.12
  -2   4 -13  103.51   25.39
  -4  -2  13   -1.23   31.03
   2  -4  13   76.37   40.56
   2  -4  13   88.59   35.81
  -1   4 -13   64.29   25.84
   1  -4  13   16.98   38.09
   1  -4  13   86.46   41.78
  -4   0 -13  180.23  106.97
   0   4 -13   90.69   27.96
   4   0  13  104.31   46.16
   4   0  13   65.15   66.76
   0  -4  13   56.98   41.36
   1   4 -13   57.57   22.59
  -4   1 -13  134.12   98.61
   4  -1  13   26.14   39.33
  -1  -4  13   61.20   40.18
   4  -1  13   30.86   59.19
  -1  -4  13  -11.45   31.73
  -4   2 -13   91.27   95.04
   2   4 -13   81.51   24.09
   2   4 -13   52.59   22.75
   2   4 -13 -144.21   96.23
   4  -2  13   61.82   54.79
  -2  -4  13   25.03   39.71
   4  -2  13  113.74   21.58
   4  -2  13   91.72   41.36
  -2  -4  13   91.48   19.68
  -2  -4  13  177.79   31.88
   3   4 -13   52.94   22.85
   3   4 -13   96.25   44.21
  -4   3 -13  115.88   99.98
   3   4 -13  103.56   22.89
   3   4 -13   82.59   79.03
  -3  -4  13   83.40   31.43
  -3  -4  13   99.55   35.58
   4  -3  13   84.10   42.29
  -3  -4  13   87.77   18.88
  -3  -4  13   48.29   29.86
   4  -3  13   57.39   48.36
   4   4 -13   -0.90   13.88
   4   4 -13   14.31   16.71
  -4   4 -13    2.62  103.46
  -4  -4  13   18.61   22.89
  -4  -4  13   -5.90   29.40
   4  -4  13  -46.76   37.76
   4  -4  13   20.19   39.17
  -4  -4  13  139.20   28.88
   5   4 -13  439.39  115.66
   5   4 -13  596.67  100.22
  -4   5 -13  420.47  151.77
  -5  -4  13  353.36   93.48
  -5  -4  13  437.61  107.25
   4  -5  13  469.53  108.21
  -3   5 -13  780.43  261.53
   5   3 -13 1034.20  201.31
   5   3 -13  890.99  225.60
  -3   5 -13  925.36  192.95
   3  -5  13  681.56  210.53
  -5  -3  13  813.74  188.98
  -5  -3  13 1140.43  216.19
  -5  -3  13  881.79  211.20
   3  -5  13  804.78  199.35
   5   2 -13  212.84   86.10
   5   2 -13  267.01   57.89
   5   2 -13  309.16   93.32
  -2   5 -13  310.18  115.87
  -2   5 -13  174.03   54.18
  -5  -2  13  276.17   63.59
  -5  -2  13  253.96   63.59
   2  -5  13  198.18   60.90
  -5  -2  13  261.97   61.46
   2  -5  13  149.12   64.99
  -1   5 -13  231.38  110.63
  -1   5 -13  279.11   56.44
   5   1 -13  283.65   89.89
   5   1 -13  199.79   61.76
  -5  -1  13  246.27   67.14
  -5  -1  13  215.84   66.33
   1  -5  13  259.70   61.95
   1  -5  13  248.25   66.05
  -5   0 -13  809.52  228.95
   5   0 -13  857.82  213.25
   0   5 -13  929.50  236.06
   0  -5  13  785.66  179.14
   5   0  13  815.86  203.93
  -5   0  13  778.94  194.07
   5   0  13  739.87  185.33
   0  -5  13  789.37  188.03
   1   5 -13  327.96  106.65
   5  -1 -13  217.72   82.49
  -5   1 -13  279.48  116.81
   1   5 -13  219.71   53.19
  -1  -5  13  201.02   57.58
   5  -1  13  272.02   84.91
   5  -1  13  217.22   55.75
   5  -1  13  264.31   67.28
  -1  -5  13  243.30   63.50
   2   5 -13  260.17   55.33
  -5   2 -13  168.24  114.15
   2   5 -13  206.72  106.55
   2   5 -13  291.37   53.66
  -2  -5  13  228.51   64.70
   5  -2  13  292.33   78.17
   5  -2  13  196.67   54.37
   5  -2  13  192.60   67.04
  -2  -5  13  233.33   57.16
   3   5 -13  966.52  207.17
   3   5 -13  914.95  279.82
  -5   3 -13 1160.76  275.09
   3   5 -13  973.99  221.56
  -3  -5  13 1002.64  225.98
   5  -3  13 1066.86  220.33
  -3  -5  13  908.14  213.94
   5  -3  13  796.89  222.77
   4   5 -13  434.36  138.18
  -5   4 -13  379.50   91.38
   4   5 -13  421.44   88.50
  -5   4 -13  459.72  153.47
  -4  -5  13  542.66   99.38
   5  -4  13  478.46  100.20
   5  -4  13  198.00  101.07
  -4  -5  13  428.73   92.83
   5   5 -13   -8.04   13.35
  -5   5 -13    6.79   22.03
  -5   5 -13   94.35  111.34
   5   5 -13    1.00   20.23
   5   5 -13  -10.03   77.62
   5   5 -13   26.48   53.37
  -5  -5  13  -13.52   21.72
  -5  -5  13   12.42   38.32
   5  -5  13    7.47   45.08
   5  -5  13    1.93   35.64
  -5  -5  13   -1.05   10.10
  -5  -5  13   -4.28   31.53
  -5   6 -13   52.75   36.88
  -5   6 -13  168.05  120.67
   6   5 -13  200.88   69.54
   6   5 -13  178.91   39.63
  -6  -5  13  140.83   54.93
   5  -6  13  142.64   46.72
   5  -6  13  134.96   59.02
  -6  -5  13  111.62   30.31
   6   4 -13   53.18   62.60
   6   4 -13   70.95   26.14
   4  -6  13  -14.33   45.52
  -6  -4  13   42.16   13.74
  -6  -4  13   -5.24   43.34
   6   3 -13  154.63   57.09
   6   3 -13  256.92   85.14
  -3   6 -13  274.71   54.12
   3  -6  13  278.08   60.16
   3  -6  13  171.32   65.81
  -6  -3  13  205.92   49.93
  -6  -3  13  265.76   67.15
  -2   6 -13   52.31   30.06
   6   2 -13   98.57   73.36
   6   2 -13  119.20   33.61
  -6  -2  13  141.98   40.60
  -6  -2  13   71.67   32.97
   2  -6  13  120.94   46.07
   2  -6  13  146.51   37.84
  -6  -2  13   88.53   43.64
  -1   6 -13  597.86  118.94
   6   1 -13  513.02  126.66
   6   1 -13  567.79  157.79
  -6  -1  13  647.21  135.32
   1  -6  13  499.87  129.50
  -6  -1  13  568.72  132.59
   1  -6  13  473.39  122.73
   6   0 -13  -21.09   31.53
   6   0 -13   14.50   69.75
   0   6 -13    1.39   18.56
  -6   0 -13   11.95  103.71
   6   0  13  -31.11   71.27
   6   0  13  -13.81   42.86
  -6   0  13   20.37   42.04
   0  -6  13    2.87   34.39
   0  -6  13    7.19   27.63
  -6   0  13    1.93   36.86
   1   6 -13  413.46  107.50
   6  -1 -13  425.04  143.85
  -6   1 -13  413.04  168.22
  -1  -6  13  489.25  119.70
  -1  -6  13  610.67  112.76
   6  -1  13  518.19  119.82
   6  -1  13  468.08  135.39
   2   6 -13  175.00   32.28
  -6   2 -13   81.27  111.37
  -2  -6  13   88.15   43.55
   6  -2  13  118.17   65.35
   6  -2  13  143.48   50.46
  -2  -6  13   73.49   35.27
  -6   3 -13  226.40  127.13
   3   6 -13  235.41   55.86
   6  -3  13  218.62   72.06
   6  -3  13  174.55   74.61
  -3  -6  13  288.89   66.55
  -3  -6  13  278.61   59.54
   4   6 -13   68.56   19.59
  -6   4 -13   80.09  120.78
  -6   4 -13   23.60   25.36
   6  -4  13   33.23   45.49
   6  -4  13   18.43   48.53
  -4  -6  13    2.44   33.84
  -4  -6  13   60.16   25.84
   5   6 -13  200.06   40.28
  -6   5 -13  117.83   40.96
  -6   5 -13  223.63  128.27
  -5  -6  13  127.62   46.03
   6  -5  13   98.70   57.94
   6  -5  13  118.84   50.55
   6   6 -13    4.88   23.97
  -6   6 -13   -3.08  125.36
  -6   6 -13   -1.84   26.87
   6  -6  13    1.93   38.10
   6  -6  13  -39.17   54.32
  -6  -6  13    4.05   12.99
  -6   7 -13  118.61   34.98
   7   6 -13   76.55   33.62
   7   6 -13  187.53   75.23
   6  -7  13   23.48   43.15
   6  -7  13   75.47   59.33
  -7  -6  13   71.48   23.33
  -5   7 -13   17.07   27.25
   7   5 -13  -13.43   69.12
   7   5 -13   26.56   27.58
  -7  -5  13   30.24   52.52
   5  -7  13   13.19   36.81
  -7  -5  13   22.26   13.19
   5  -7  13  -25.49   46.82
   7   4 -13  487.29  151.36
   7   4 -13  521.26  133.14
  -7  -4  13  640.50  118.83
   4  -7  13  611.18  133.88
  -7  -4  13  457.11  145.40
   7   3 -13  236.22   62.12
  -3   7 -13  224.98   56.75
   7   3 -13  276.81   95.40
  -7  -3  13  206.95   73.51
   3  -7  13  256.51   63.57
   3  -7  13  246.30   70.42
  -7  -3  13  227.98   52.85
  -2   7 -13  185.30   50.39
   7   2 -13  142.83   55.81
   7   2 -13  332.54   97.37
   2  -7  13  143.60   56.79
  -7  -2  13  208.65   65.65
   2  -7  13  404.70   64.47
   7   1 -13   72.24   34.55
  -1   7 -13   87.01   30.29
   7   1 -13   80.53   85.91
  -7  -1  13   83.49   46.21
   1  -7  13   93.12   35.07
   1  -7  13   44.53   42.69
   7   0 -13  575.00  152.42
   0   7 -13  437.84  111.56
   7   0 -13  471.65  121.38
  -7   0 -13  515.63  175.04
   7   0  13  422.84  144.09
   0  -7  13  517.34  122.03
   7   0  13  550.28  120.85
   0  -7  13  568.21  116.40
   7   0  13  579.60  126.05
  -7   0  13  459.24  129.23
  -7   1 -13   92.59  116.15
   7  -1 -13   24.85   82.68
   1   7 -13  109.01   25.64
  -7   1  13   33.00   45.04
   7  -1  13  145.89   69.94
   7  -1  13   48.53   46.21
  -1  -7  13   89.13   38.42
  -1  -7  13   72.32   31.16
   7  -1  13   47.55   25.38
  -7   2 -13  120.73  123.17
   2   7 -13  231.60   48.30
   7  -2  13  278.62   77.83
   7  -2  13  204.77   64.59
  -2  -7  13  155.85   52.44
  -2  -7  13  196.01   58.93
   3   7 -13  301.18   63.90
  -7   3 -13  232.18  141.20
  -3  -7  13  272.05   72.90
   7  -3  13  395.98   85.10
   7  -3  13  196.14   77.71
  -7   4 -13  643.06  136.13
  -7   4 -13  532.95  205.62
   7  -4  13  792.52  145.04
   7  -4  13  454.67  147.23
  -4  -7  13  632.39  145.66
  -7   5 -13  -19.39  130.10
  -7   5 -13  -18.76   25.30
   7  -5  13   28.91   50.30
  -5  -7  13   16.30   36.03
   7  -5  13   25.17   43.13
  -7   6 -13   48.18   31.55
  -7   6 -13  104.92  139.46
   7  -6  13   64.03   61.40
   7  -6  13  162.51   46.69
  -7   7 -13  -37.12   30.02
   7   7 -13   12.83   27.20
  -7   7 -13   76.36  136.41
   7  -7  13  -47.65   58.40
   7  -7  13   18.26   41.84
   8   7 -13   40.04   31.21
  -7   8 -13    2.19   30.14
   7  -8  13    2.13   42.49
   7  -8  13    2.34   59.65
   8   6 -13  135.69   78.87
   8   6 -13   57.99   40.04
  -6   8 -13  213.03   38.81
  -8  -6  13  134.22   29.26
   6  -8  13   76.01   47.52
   6  -8  13   13.27   61.31
  -8  -6  13   57.95   68.71
   8   5 -13  290.42   91.37
  -5   8 -13  165.26   51.42
   8   5 -13  156.69   55.59
  -8  -5  13  119.58   75.26
   5  -8  13  371.89   69.78
  -8  -5  13  121.54   44.13
   5  -8  13  362.48   60.96
   8   4 -13   19.73   32.27
   8   4 -13   54.16   78.55
   4  -8  13   48.87   50.26
  -8  -4  13   28.75   57.86
  -8  -4  13  -10.02   14.22
   8   3 -13  449.56  122.66
  -3   8 -13  345.14  114.76
   8   3 -13  661.96  152.23
  -8  -3  13  395.96  135.02
   3  -8  13  686.19  120.18
   3  -8  13  644.09  126.02
   8   2 -13   53.23   31.30
   8   2 -13   55.52   89.71
  -2   8 -13   38.43   25.85
   2  -8  13   28.16   33.80
  -8  -2  13    2.16   50.31
   2  -8  13  -12.46   43.64
  -1   8 -13  326.25   61.02
   8   1 -13  332.35  117.19
   8   1 -13  147.63   66.78
  -8  -1  13  139.98   79.42
   1  -8  13  286.80   73.12
   1  -8  13  291.42   66.22
  -8   0 -13  -60.45  122.59
   8   0 -13  -20.74   88.96
   0   8 -13   -3.49   21.84
   8   0 -13    6.17   35.88
   8   0  13 -126.38   85.56
   0  -8  13   -6.48   42.47
   8   0  13   20.01   51.32
   0  -8  13   26.29   29.72
   8   0  13   17.00   24.17
  -8   0  13  -20.84   48.38
   8  -1 -13  206.34  113.66
   1   8 -13  396.20   66.75
   8  -1 -13  322.26   76.30
  -8   1 -13  136.21  144.44
   8  -1  13  222.62   69.55
  -8   1  13  333.60   85.58
  -1  -8  13  303.53   75.64
   8  -1  13  206.52   82.11
   8  -1  13  326.41   98.56
  -8   2 -13   73.13  121.99
   8  -2 -13  135.57   87.32
   8  -2  13   45.26   48.76
   8  -2  13    6.06   62.09
  -2  -8  13   55.77   40.57
  -8   3 -13  603.78  187.69
  -3  -8  13  570.02  119.94
   8  -3  13  394.57  124.01
   8  -3  13  437.21  125.80
  -8   4 -13   12.05   30.23
  -8   4 -13  113.23  143.93
  -4  -8  13   58.98   37.10
   8  -4  13  -18.31   52.46
   8  -4  13  -37.10   49.34
  -8   5 -13  340.54  160.58
  -8   5 -13   96.37   51.90
   8  -5  13  242.03   66.69
  -5  -8  13  197.60   58.82
   8  -5  13  406.05   78.00
  -8   6 -13   84.72  151.56
  -8   6 -13    2.02   31.22
   8  -6  13   -2.33   61.36
   8  -6  13   37.36   45.17
  -8   7 -13   12.92   31.42
  -8   7 -13 -150.08  156.72
   8  -7  13  -44.01   63.13
   8  -7  13   -6.30   41.42
   8  -8  13  -25.27   64.67
  -8   9 -13   39.81   34.55
   8  -9  13  -16.37   45.13
   9   7 -13   14.32   34.34
   9   6 -13   14.78   34.57
   9   6 -13    6.43   82.97
  -9  -6  13   26.86   72.77
   6  -9  13    2.36   60.10
  -9  -6  13   -5.37   17.93
   9   5 -13   70.16   37.97
   9   5 -13  143.92   88.36
  -5   9 -13    2.24   30.04
  -9  -5  13   60.08   69.82
   5  -9  13   44.58   42.82
   5  -9  13    2.20   54.15
  -9  -5  13   42.61   18.51
   9   4 -13  457.05  127.75
   9   4 -13  373.20   97.10
  -9  -4  13  422.58   84.67
  -9  -4  13  295.03  115.58
  -3   9 -13   -6.44   29.30
   9   3 -13  -11.08   37.09
   9   3 -13   -6.76   99.07
  -9  -3  13  -20.55   62.09
   3  -9  13  -29.65   39.96
  -9  -3  13  -13.53   17.68
   3  -9  13   -9.96   52.33
   9   2 -13  167.51   57.84
   9   2 -13   74.32  113.81
  -2   9 -13  254.50   49.99
  -9  -2  13  179.74   71.85
   2  -9  13  127.37   62.95
  -9  -2  13  214.73   44.50
   9   1 -13   36.95   36.63
   9   1 -13   27.93  107.21
  -9  -1  13   27.12   54.76
   1  -9  13   16.31   46.12
   9   1  13   14.11   94.66
   9   0 -13  303.96   75.54
   9   0 -13  247.18  122.86
  -9   0 -13  178.31  151.50
   0  -9  13  295.14   75.80
  -9   0  13  266.80   85.30
   9   0  13  312.55   71.45
   9   0  13  194.10  108.82
   9  -1 -13   -5.10  101.32
  -9   1 -13  104.39  136.01
   9  -1 -13  -36.88   43.93
   9  -1  13   43.24   75.78
   9  -1  13   19.12   24.78
  -9   1  13   -2.71   53.73
   9  -1  13   17.51   49.54
  -9   2 -13  174.96  148.85
   9  -2 -13 -111.92  107.15
   9  -2  13  127.94   74.83
  -9   2  13  182.18   68.32
   9  -2  13  164.11   60.09
  -9   3 -13   52.48  138.89
   9  -3  13  -10.38   52.71
   9  -3  13   10.96   56.71
  -9   4 -13  348.73  174.11
  -9   4 -13  403.54   82.00
   9  -4  13  309.14   92.56
   9  -4  13  271.18   95.14
  -9   5 -13   31.10   31.39
  -9   5 -13  -14.73  156.88
   9  -5  13    2.19   44.48
   9  -5  13    6.77   59.55
  -9   6 -13  -37.68  160.37
  -9   6 -13   21.09   31.27
   9  -6  13   73.10   66.31
   9  -6  13   14.64   42.82
  -9   7 -13  112.43   37.60
  -9   7 -13 -111.59  162.94
   9  -7  13  208.42   51.67
   9  -7  13   18.42   72.28
  -9   9 -13   12.92   42.63
   9  -9  13   86.83   54.51
   9  -9  13  359.68   85.73
  -9  10 -13 -140.66   39.59
   9 -10  13  -34.21   79.19
  -8  10 -13 -177.50   44.63
  10   8 -13  -82.65   43.69
   8 -10  13 -180.31   89.00
  -7  10 -13   45.57   36.80
  10   7 -13   34.25   41.79
 -10  -7  13   25.44   21.05
   7 -10  13  -70.25   65.30
  10   6 -13   63.85   90.54
  10   6 -13   43.24   40.44
 -10  -6  13   60.44   83.60
 -10  -6  13   86.63   25.17
  10   5 -13  288.55  104.78
  10   5 -13  103.72   51.59
 -10  -5  13  162.88   81.57
 -10  -5  13  106.27   32.91
  10   4 -13   72.53   45.43
  10   4 -13   69.79  104.83
 -10  -4  13   78.97   26.55
 -10  -4  13  184.77   77.10
  10   3 -13  170.20   60.67
  10   3 -13  182.06  120.04
 -10  -3  13  219.18   45.84
 -10  -3  13  155.32   81.03
  10   2 -13  -16.11  115.17
  10   2 -13   56.29   42.32
 -10  -2  13  -11.32   67.62
 -10  -2  13    1.94   19.89
  10   1 -13   20.80   43.70
  10   1 -13 -122.73  113.82
 -10  -1  13  -41.56   61.41
  10   1  13    7.16   30.30
  10   1  13   93.34   96.72
  10   0 -13   28.64  118.14
 -10   0 -13  -75.82  140.14
  10   0 -13   -2.45   43.54
  10   0  13    1.69   29.24
  10   0  13   -4.15   83.42
 -10   0  13   -2.83   59.47
 -10   1 -13  -28.57  145.64
  10  -1 -13  -10.88   48.55
  10  -1 -13  -33.87  110.58
  10  -1  13  -69.07   59.54
  10  -1  13  -28.71   73.72
 -10   1  13   17.64   57.15
  10  -2 -13  -44.56  109.05
  10  -2 -13   39.13   47.43
 -10   2 -13   31.03  138.48
 -10   2  13    6.42   64.41
  10  -2  13  -28.01   63.20
  10  -2  13    2.17   53.78
 -10   3 -13  179.75  152.20
  10  -3  13  129.42   69.27
  10  -3  13  188.25   67.46
 -10   4 -13  106.16  157.53
 -10   4 -13   17.54   33.58
  10  -4  13   29.54   52.00
  10  -4  13   46.39   57.89
 -10   5 -13  -66.30  178.06
 -10   5 -13  130.34   42.25
  10  -5  13  115.32   54.27
  10  -5  13  117.64   71.79
 -10   6 -13   11.15   31.05
 -10   6 -13   12.14  181.24
  10  -6  13   23.69   49.62
  10  -6  13   -2.55   68.89
 -10   8 -13  -86.85   42.28
  10  -8  13   -2.97   67.98
  10  -8  13   -4.67   48.34
 -10   9 -13  -37.57   39.84
 -10   9 -13   -4.34  179.35
  10  -9  13   12.43   51.10
  10  -9  13    3.12   79.77
  10 -10  13  -46.46   86.44
  11   7 -13   20.05   40.65
 -11  -7  13   99.94   94.86
 -11  -7  13   16.22   20.27
  11   6 -13 -208.92  112.57
  11   6 -13  -29.82   45.49
 -11  -6  13  -19.53   21.18
 -11  -6  13  -33.64   90.39
  11   5 -13   75.57   51.41
  11   5 -13 -245.40  113.62
 -11  -5  13   -2.05   21.41
 -11  -5  13  -25.69   87.64
  11   4 -13   13.78  114.97
  11   4 -13   21.49   47.44
 -11  -4  13   26.89   21.61
 -11  -4  13  102.68   83.98
  11   3 -13  -27.04   47.63
  11   3 -13  -28.22  119.08
 -11  -3  13   29.88   79.30
 -11  -3  13   15.32   21.84
  11   2 -13 -296.84  132.06
  11   2 -13  -39.09   49.03
 -11  -2  13  -37.32   25.07
 -11  -2  13   67.09   77.50
  11   1 -13    6.14  132.11
  11   1 -13   20.11   49.70
  11   1  13   -2.01   35.62
 -11  -1  13  -31.03   67.55
  11   1  13    9.29   98.85
  11   0 -13  -46.39   49.88
  11   0 -13  128.42  132.44
  11   0  13   63.00   36.29
  11   0  13   20.91   89.67
 -11   0  13  -34.44   69.57
  11  -1 -13   28.96   47.51
 -11   1 -13  124.33  155.86
  11  -1 -13    3.12  126.15
 -11   1  13   54.84   68.30
  11  -1  13  -19.46   58.01
  11  -1  13   47.12   78.11
 -11   2 -13  -11.02  154.68
  11  -2 -13    3.02   52.95
  11  -2  13  -44.46   68.57
 -11   2  13   58.49   71.36
  11  -2  13   64.04   59.04
 -11   3 -13  -21.49   35.87
 -11   3 -13  -21.83  151.01
  11  -3  13   46.52   58.31
  11  -3  13    8.96   58.87
 -11   4 -13   36.53   35.71
 -11   4 -13   80.15  168.66
  11  -4  13   61.04   52.70
  11  -4  13  -20.74   64.34
 -11   5 -13   11.34   34.37
 -11   5 -13 -114.57  180.33
  11  -5  13   11.60   51.65
  11  -5  13  -14.55   65.11
 -11   6 -13 -295.28  206.62
  11  -6  13   -2.63   69.79
 -11   7 -13    4.88   36.26
  11  -7  13  -11.47   48.21
 -11   8 -13    2.58   34.80
 -11   8 -13   -4.62  199.56
  11  -8  13   15.77   84.15
  11  -8  13  -40.78   46.86
 -11   9 -13 -137.34  200.19
 -11   9 -13    2.79   39.06
  11  -9  13   25.55   51.21
  11  -9  13  -23.53   93.43
  11 -10  13    3.58   92.44
  12   8 -13  -14.49   47.41
  12   7 -13   -2.50   39.89
 -12  -7  13  -17.75   23.88
 -12  -7  13  439.52  101.32
  12   2 -13   -2.74   51.35
  12   1  13   27.74  101.40
  12   1  13   49.13   40.62
  12   0  13   77.69   92.02
  12   0  13   40.74   38.49
 -12   1 -13  111.68  168.41
  12  -1  13   -5.15   65.36
  12  -1  13   71.23   80.71
 -12   2 -13   58.15  174.07
  12  -2 -13   10.09  137.93
  12  -2  13   38.51   62.01
  12  -2  13   65.60   71.93
  12  -3 -13 -238.81  136.73
 -12   3 -13   47.27   37.48
 -12   3 -13    7.67  168.08
  12  -3  13  -34.94   56.91
 -12   3  13  160.85   79.72
  12  -3  13  -77.03   60.46
 -12   4 -13    7.15   45.60
 -12   4 -13  348.90  193.02
  12  -4  13  332.57   76.99
  12  -4  13   94.10   61.37
 -12   5 -13   34.38  192.85
  12  -5  13    7.44   67.17
 -12   7 -13 -154.73  215.43
 -12   7 -13   12.82   38.64
  12  -7  13   -2.98   82.11
  12  -7  13  -30.58   51.21
 -12   8 -13  -85.94   38.14
 -12   8 -13   49.99  220.34
  12  -8  13  -19.80   90.40
  12  -8  13  -24.61   52.50
 -12   9 -13  -87.54  220.28
 -12   9 -13  -40.66   43.09
  12  -9  13   18.20   49.64
  12  -9  13   -3.61  102.34
 -12  10 -13  -26.53  233.83
  12 -10  13  159.11  107.29
  13   8 -13   55.65   55.89
 -13  -8  13   52.54  118.21
  13   7 -13   -2.74   53.53
 -13  -7  13  -13.90   29.28
 -13  -7  13   94.17  115.99
  13   6 -13  -36.57   56.63
  13   6 -13  150.55  127.49
 -13  -6  13  -26.53   27.69
 -13  -6  13  135.28  109.45
  13   5 -13  -53.33   58.07
  13   5 -13  145.06  135.82
 -13  -5  13  -59.26  116.15
 -13  -5  13    2.55   25.57
  13   4 -13   27.12   60.96
  13   4 -13   93.10  146.81
 -13  -4  13  196.30  113.62
 -13  -4  13    2.54   24.44
  13   3 -13   -3.44  149.23
  13   3 -13  -30.31   57.71
 -13  -3  13  -16.81  109.53
 -13  -3  13   -2.72   26.99
  13   2 -13  -75.59  165.85
  13   2 -13   33.53   60.35
 -13  -2  13  -68.51  105.56
 -13  -2  13  -16.65   28.09
  13   1 -13 -246.60  165.70
  13   1 -13  -53.27   61.16
 -13  -1  13   15.53   93.42
  13   1  13   14.94   46.33
 -13  -1  13  -14.07   28.74
  13   0 -13  -26.90   64.67
  13   0 -13 -114.96  154.57
 -13   0  13   81.20   85.37
  13  -1 -13 -154.09   64.88
  13  -1 -13  -89.73  156.99
 -13   1  13   55.33   81.38
  13  -2 -13   14.79  147.40
  13  -2 -13    7.30   64.22
 -13   2  13    4.08   86.81
  13  -3 -13   55.14  142.83
 -13   3  13  -87.15   82.56
 -13   4 -13   66.19  183.50
 -13   6 -13  -15.35   39.31
 -13   6 -13  769.53  215.50
  13  -6  13    2.32   47.96
  13  -6  13  175.52   72.69
 -13   7 -13   61.77  229.03
 -13   7 -13  -34.50   40.07
  13  -7  13   -2.40   47.62
  13  -7  13   33.25   87.39
 -13   8 -13   44.59   47.52
 -13   8 -13  929.09  273.37
  13  -8  13  188.90  101.62
  13  -8  13  106.77   61.74
 -13   9 -13  -76.53   44.93
 -13   9 -13   73.33  251.94
  13  -9  13 -105.13  103.24
 -13  10 -13  173.16  254.02
  13 -10  13  -53.56  109.38
  14   8 -13   17.71   56.92
 -14  -8  13  184.33  130.30
  14   7 -13  -79.38   56.23
 -14  -7  13   -9.17   30.68
 -14  -7  13   88.42  128.87
  14   6 -13  607.21  150.99
  14   6 -13  122.68   67.57
 -14  -6  13   -5.88   31.01
 -14  -6  13  108.94  125.26
  14   5 -13   48.78   62.59
  14   5 -13  -80.55  149.80
 -14  -5  13   25.34  127.48
 -14  -5  13    5.70   28.57
  14   4 -13  -36.34   63.03
  14   4 -13   38.17  155.62
 -14  -4  13   11.33   28.25
 -14  -4  13  -29.26  120.68
  14   3 -13   13.36   65.38
  14   3 -13   72.34  165.92
 -14  -3  13    8.87   31.77
 -14  -3  13  216.69  118.20
  14   2 -13    3.38   64.40
  14   2 -13 -149.11  173.40
 -14  -2  13  -31.07   32.61
 -14  -2  13  -13.33  107.22
  14   1 -13 -149.59   66.56
  14   1 -13   31.99  171.18
 -14  -1  13    3.15   33.08
 -14  -1  13 -142.98  100.60
  14   0 -13  -68.33  164.34
  14   0 -13  -81.97   69.50
 -14   0  13  -21.49   96.62
  14  -1 -13  -81.08   63.81
  14  -1 -13   32.39  166.07
 -14   1  13    8.74   94.63
  14  -2 -13 -117.32  167.79
  14  -2 -13  -36.17   73.61
 -14   2  13   22.27   92.85
  14  -3 -13 -241.06  164.40
 -14   3  13  165.60   99.66
  15   8 -13  -32.38   56.85
 -15  -8  13   57.70  143.28
  15   7 -13   56.55   63.56
 -15  -7  13  -10.10   32.91
 -15  -7  13 -254.57  147.42
  15   6 -13  -11.80  152.51
  15   6 -13  -61.79   65.02
 -15  -6  13   19.58   32.12
 -15  -6  13  114.00  141.87
  15   5 -13  -74.52   67.87
  15   5 -13   81.07  168.60
 -15  -5  13  -60.92  137.69
 -15  -5  13   15.90   30.84
  15   4 -13 -340.54  175.84
  15   4 -13  -32.44   65.68
 -15  -4  13 -164.46  124.48
 -15  -4  13   22.06   32.21
  15   3 -13   11.05   71.57
  15   3 -13  317.52  183.33
 -15  -3  13  -20.63  124.16
 -15  -3  13    3.28   35.67
  15   2 -13   22.45   70.85
  15   2 -13  230.43  191.17
 -15  -2  13   59.27  112.88
 -15  -2  13  -13.96   33.42
  15   1 -13   15.90   75.82
  15   1 -13 -413.75  190.44
 -15  -1  13   -3.50   37.87
 -15  -1  13  -53.18  114.94
  15   0 -13 -152.90  184.62
  15   0 -13   98.94   79.30
 -15   0  13   32.26   34.54
 -15   0  13   19.11  108.25
  15  -1 -13    4.36  180.90
  15  -1 -13   51.10   73.39
 -15   1  13   -4.84  104.57
  15  -2 -13  -53.05   79.95
  15  -2 -13  324.58  186.61
 -15   2  13   34.26  106.41
  15  -3 -13    4.42   78.88
  15  -3 -13  228.47  180.10
 -15   3  13 -190.66  106.12
  16   8 -13  -32.23   66.96
 -16  -8  13   63.90  160.43
 -16  -7  13   29.74   44.50
 -16  -7  13  -12.81  160.51
  16   6 -13 -452.03  170.60
  16   6 -13  108.07   76.62
 -16  -6  13  -18.14   35.57
 -16  -6  13  -12.65  159.80
  16   5 -13 -179.27  184.65
  16   5 -13    3.98   77.95
 -16  -5  13  -14.21   33.96
 -16  -5  13  165.17  146.51
  16   4 -13  184.56  191.07
  16   4 -13   89.93   79.31
 -16  -4  13 -278.18  142.10
 -16  -4  13  -35.17   34.14
  16   3 -13   93.65  195.51
  16   3 -13   70.34   79.75
 -16  -3  13   51.38  134.05
 -16  -3  13  -10.92   37.35
  16   2 -13 -105.97   77.47
  16   2 -13   23.11  194.98
 -16  -2  13  -38.46   40.29
 -16  -2  13 -115.50  129.72
  16   1 -13   61.40   84.62
  16   1 -13   23.61  196.15
 -16  -1  13  183.12  121.05
 -16  -1  13  -27.43   41.60
  16   0 -13    4.55   78.22
  16   0 -13  -84.90  201.23
 -16   0  13   -3.98   40.17
 -16   0  13   -5.31  119.96
  16  -1 -13  103.69  196.82
  16  -1 -13  103.29   84.51
 -16   1  13  -75.02  115.50
  16  -2 -13 -194.36   88.17
  16  -2 -13  197.98  188.33
 -16   2  13  -21.57  110.81
  16  -3 -13    4.84   82.19
  16  -3 -13  265.79  195.55
 -16   3  13 -146.19  115.66
  17   8 -13   23.93   73.01
 -17  -8  13   63.79  184.52
  17   7 -13 -129.21   79.74
 -17  -7  13  105.37  178.99
 -17  -7  13   20.57   36.52
  17   6 -13  121.72   79.46
  17   6 -13  115.66  188.14
 -17  -6  13  -24.19   39.90
 -17  -6  13  140.07  176.52
  17   5 -13  -54.29  194.05
  17   5 -13 -194.14   84.11
 -17  -5  13   -7.94   41.73
 -17  -5  13  -33.99  155.66
  17   4 -13  567.43  152.77
 -17  -4  13  600.97  212.56
  17   3 -13 -213.20   94.29
 -17  -3  13 -240.95  152.92
 -17  -3  13  -51.39   42.82
  17   2 -13   -4.68   84.59
  17   2 -13   55.58  210.75
 -17  -2  13    4.15   42.30
 -17  -2  13   18.41  143.30
  17   1 -13   33.87   84.66
  17   1 -13 -392.27  214.65
 -17  -1  13 -215.76  134.36
 -17  -1  13  -47.97   46.87
  17   0 -13   30.16   87.89
  17   0 -13   66.55  215.20
 -17   0  13   59.12  137.02
 -17   0  13   26.51   47.09
  17  -1 -13 -112.42  221.85
  17  -1 -13 -181.14   95.71
 -17   1  13 -118.96  126.96
 -17   1  13   72.43   48.84
  17  -2 -13  176.33   95.89
  17  -2 -13  122.47  213.85
 -17   2  13   83.51  128.45
  17  -3 -13 -370.91  104.76
 -17   3  13  111.29  130.38
  18   8 -13   39.20   83.51
 -18  -8  13  210.82  198.85
  18   7 -13    4.54   87.11
 -18  -7  13    4.56   41.04
 -18  -7  13  279.98  191.35
  18   6 -13 -103.23   88.04
  18   6 -13   48.07  218.84
 -18  -6  13 -121.46  191.55
 -18  -6  13 -112.79   46.31
  18   5 -13 -247.39  230.27
  18   5 -13   56.15   87.25
 -18  -5  13   51.81  175.70
 -18  -5  13   13.32   43.69
  18   4 -13 -126.52  231.33
  18   4 -13   -4.84   88.61
 -18  -4  13   13.13   44.76
 -18  -4  13   50.56  174.13
  18   3 -13 -214.30  231.61
  18   3 -13 -153.73   94.36
 -18  -3  13   20.91  169.30
 -18  -3  13    4.40   45.88
  18   2 -13   -5.14   95.91
  18   2 -13 -268.48  229.41
 -18  -2  13   82.18  154.28
 -18  -2  13   13.76   49.21
  18   1 -13  -95.85   96.46
  18   1 -13 -263.47  232.60
 -18  -1  13  -73.00   50.31
 -18  -1  13  -73.44  152.50
  18   0 -13  215.84  240.08
  18   0 -13   -5.53   98.38
 -18   0  13  -26.43  145.02
 -18   0  13  -54.42   48.68
  18  -1 -13  154.16  107.68
  18  -1 -13  209.56  234.10
 -18   1  13   20.16   47.84
 -18   1  13  -33.06  145.77
  18  -2 -13 -117.40  103.37
  18  -2 -13  121.32  246.12
 -18   2  13 -119.91   60.09
 -18   2  13   -6.63  135.16
  18  -3 -13 -182.93  229.16
  18  -3 -13 -302.73  105.29
 -18   3  13   -6.83  146.38
  19   3 -13    5.60  101.77
 -19  -3  13   61.91  177.15
  19   2 -13    5.65  106.33
 -19  -2  13 -196.70  181.09
  19   1 -13   -5.87  107.40
 -19  -1  13  126.15  169.38
  19   0 -13   -6.09  106.99
 -19   0  13 -199.84  160.94
   0   0  14  557.56  139.03
  -1   0 -14   20.65   86.79
   0   1 -14    2.21   78.11
  -1   0  14   11.71   50.80
   0  -1  14   32.27   51.90
   1   0  14   66.79   61.08
   0  -1  14  -34.27   33.19
   1   1 -14  333.46  106.70
   1   1 -14  245.05   77.38
  -1   1 -14  262.65  108.85
   1  -1  14  420.96   84.67
  -1  -1  14  281.92   71.11
  -1  -1  14  251.39   80.67
   1  -1  14  226.22   70.36
  -1   2 -14 -116.81   89.56
   1  -2  14   19.90   46.35
   1  -2  14   11.66   36.23
  -2  -1  14  -29.69   38.40
  -2  -1  14  -42.11   50.16
  -2   0 -14  -21.28   88.63
   0   2 -14  -44.03   25.89
   0   2 -14  -10.20   81.13
   0  -2  14   52.73   33.13
   2   0  14   75.04   38.84
   0  -2  14   30.30   47.34
  -2   0  14   27.28   51.82
   2   0  14   53.21   67.28
  -2   1 -14 -128.07   93.20
  -1  -2  14   39.07   43.77
  -1  -2  14  -18.56   36.65
   2  -1  14   31.97   37.50
   2  -1  14   57.74   57.47
  -2   2 -14  394.27  107.86
   2  -2  14   33.75   51.31
  -2  -2  14  261.76   53.38
  -2  -2  14  150.20   58.70
   2  -2  14   34.34   61.64
   3   2 -14    1.77   75.06
   3   2 -14  -44.64   51.04
  -2   3 -14 -108.04   97.53
  -3  -2  14    7.13   35.67
  -3  -2  14  -10.84   24.44
   2  -3  14   13.91   45.22
   2  -3  14    1.53   35.82
  -3  -2  14   26.11   32.00
  -1   3 -14 -183.27  100.80
  -3  -1  14  -56.16   50.31
   1  -3  14  -43.34   38.38
  -3  -1  14  -75.70   36.05
   1  -3  14  -32.73   43.38
   0   3 -14 -204.05   93.68
  -3   0 -14 -195.81  109.64
   0  -3  14  -83.48   39.66
   0  -3  14  -39.75   39.51
   3   0  14  -27.22   43.75
  -3   0  14  -80.99   59.56
  -3   1 -14 -226.16  103.48
  -1  -3  14  -25.89   38.93
   3  -1  14  -38.46   40.49
  -1  -3  14  -54.42   37.59
   2   3 -14  -46.11   34.77
   2   3 -14  -18.62   77.95
  -3   2 -14   12.14   91.21
  -2  -3  14  -18.24   34.39
  -2  -3  14    6.16   30.92
  -2  -3  14    8.23    5.64
   3  -2  14  -25.86   38.72
   3  -2  14   -5.59   52.71
  -2  -3  14  -34.21   21.52
   3   3 -14  149.84   88.83
   3   3 -14  208.57   59.98
   3   3 -14  182.95   43.35
  -3   3 -14  142.54  108.69
   3  -3  14  159.47   54.53
  -3  -3  14  199.94   51.28
   3  -3  14   73.60   63.00
  -3  -3  14  198.68   37.08
  -3  -3  14  115.60   50.39
  -3  -3  14  145.36   48.34
   4   3 -14  279.54   62.98
   4   3 -14  266.90   65.88
   4   3 -14  309.82  103.20
  -3   4 -14  508.57  132.45
  -4  -3  14  245.99   72.97
  -4  -3  14  414.72   72.74
  -4  -3  14  149.46   70.39
   3  -4  14  314.92   76.37
   3  -4  14  208.11   75.58
  -2   4 -14   -3.18   22.21
  -2   4 -14    2.53   93.30
   2  -4  14   28.78   38.86
  -4  -2  14   29.65   34.46
   2  -4  14   19.85   39.65
  -1   4 -14  270.96   60.12
  -1   4 -14  256.60  116.65
  -4  -1  14  181.23   73.87
   1  -4  14  298.52   69.42
   1  -4  14  268.99   68.96
  -4   0 -14  149.68  102.08
   4   0 -14   -4.25   57.57
   0   4 -14   -4.20   18.27
   0   4 -14  117.81   91.83
   4   0  14  -15.18   41.18
   0  -4  14   -3.49   33.05
   4   0  14  -31.16   72.49
  -4   0  14  -16.36   49.29
   0  -4  14  -14.44   36.49
   1   4 -14  397.02  108.26
   1   4 -14  140.09   54.98
  -4   1 -14  289.55  117.11
  -1  -4  14  243.91   62.27
  -1  -4  14  267.71   66.20
   4  -1  14  234.54   85.30
   4  -1  14  286.48   67.66
  -4   2 -14  -41.21   95.32
   2   4 -14   78.13   84.66
   2   4 -14   22.46   17.13
   2   4 -14   34.29   14.87
  -2  -4  14   -1.28   32.97
   4  -2  14  -47.08   60.07
  -2  -4  14   14.54   29.47
   4  -2  14  -27.24   41.17
   3   4 -14  253.89   62.83
   3   4 -14  310.76   78.83
  -4   3 -14  161.77  125.74
   3   4 -14  364.28  113.48
   3   4 -14  228.96   60.70
   4  -3  14  334.43   74.83
  -3  -4  14  244.35   71.58
  -3  -4  14  297.26   66.96
   4   4 -14  180.36   50.92
   4   4 -14  209.31   54.10
  -4   4 -14  198.25  128.46
   4   4 -14  192.46   99.58
   4  -4  14  289.00   67.66
  -4  -4  14  299.75   62.14
  -4  -4  14  241.15   62.47
  -4  -4  14  231.20   56.80
  -4   5 -14    2.89  116.04
   5   4 -14   64.79   77.71
   5   4 -14   68.14   27.47
   5   4 -14   91.08   58.31
   5   4 -14   68.13   22.46
  -5  -4  14  187.81   35.37
  -5  -4  14   67.86   40.20
  -5  -4  14   49.47   28.79
   4  -5  14  114.89   51.61
  -5  -4  14   79.41   20.17
  -3   5 -14  320.07   63.25
   5   3 -14  282.64   87.85
   5   3 -14  251.55   63.64
  -3   5 -14   82.94  129.04
   3  -5  14  266.25   70.17
  -5  -3  14  306.22   57.97
   3  -5  14  184.19   75.10
  -5  -3  14  309.48   70.79
  -2   5 -14  193.33   46.32
  -2   5 -14  157.93  113.18
   5   2 -14   95.95   49.59
   5   2 -14  214.49   84.05
  -5  -2  14  200.85   55.99
   2  -5  14  218.25   56.62
   2  -5  14  256.59   61.93
  -1   5 -14  596.22  136.34
  -1   5 -14  583.08  195.20
   5   1 -14  671.16  174.05
   5   1 -14  747.24  145.12
   1  -5  14  570.69  149.51
  -5  -1  14  659.56  154.78
   1  -5  14  633.04  142.12
  -5   0 -14  -42.27  100.98
   0   5 -14   -8.34   17.02
   5   0 -14   36.45   65.03
   0   5 -14 -115.38   96.36
   0  -5  14   12.33   39.09
   0  -5  14    9.40   30.18
   5   0  14    4.01   77.27
   5   0  14  -13.95   43.83
   1   5 -14  622.22  183.41
  -5   1 -14  557.87  176.42
   5  -1  14  362.12  148.83
  -1  -5  14  436.68  126.13
   5  -1  14  570.18  130.50
  -1  -5  14  687.25  136.27
   5  -1  14  593.13  132.93
   2   5 -14  256.64   53.32
   2   5 -14  330.26  115.21
  -5   2 -14  425.10  118.02
   5  -2  14  192.04   67.90
  -2  -5  14  193.76   58.37
   5  -2  14  203.86   81.54
  -2  -5  14  211.62   65.96
  -5   3 -14  192.81  122.84
   3   5 -14  285.11  113.88
   3   5 -14  224.37   52.60
   5  -3  14  210.03   68.69
  -3  -5  14  183.68   66.01
  -3  -5  14  285.87   57.92
   5  -3  14  190.24   75.65
  -5   4 -14   23.82  115.11
   4   5 -14  204.40   97.36
   4   5 -14  109.99   26.29
  -4  -5  14  101.36   32.11
   5  -4  14   48.70   50.50
   5  -4  14   84.08   50.40
  -4  -5  14   50.92   42.07
  -5   5 -14  175.55   60.03
   5   5 -14  352.21   63.30
   5   5 -14  199.14   83.63
   5   5 -14  218.86   56.83
   5   5 -14  310.85  110.00
  -5   5 -14  173.99  137.78
   5  -5  14  222.05   71.57
  -5  -5  14  308.85   70.25
  -5  -5  14  291.91   62.57
   5  -5  14  216.88   76.52
   6   5 -14   35.60   63.05
   6   5 -14    7.15   22.71
  -5   6 -14   28.11   25.41
  -5   6 -14  175.90  122.90
   5  -6  14   -1.98   40.25
  -6  -5  14   57.91   45.39
   5  -6  14   41.36   50.48
  -6  -5  14   -9.36   11.65
   6   4 -14  237.19   84.66
  -4   6 -14  249.96  134.54
   6   4 -14  277.08   59.24
  -6  -4  14  219.90   70.26
   4  -6  14  199.36   72.26
  -6  -4  14  217.37   51.07
   6   3 -14  174.25   50.78
   6   3 -14  303.55   85.79
  -3   6 -14   95.46  121.35
  -3   6 -14  271.76   49.37
   3  -6  14  279.85   67.23
  -6  -3  14  130.47   60.49
   3  -6  14  190.54   57.50
  -6  -3  14  176.06   44.51
   6   2 -14  262.05   89.33
  -2   6 -14  188.80   46.33
   6   2 -14  156.49   49.26
  -2   6 -14  228.78  114.61
   2  -6  14  176.04   52.78
   2  -6  14  230.57   61.68
  -6  -2  14  111.18   57.64
   6   1 -14   47.31   33.78
   6   1 -14  161.59   79.37
  -1   6 -14   88.71   26.79
   1  -6  14   36.80   33.92
  -6  -1  14  106.76   42.12
   1  -6  14   61.84   43.29
   6   0 -14  177.15   85.23
  -6   0 -14  279.86  119.77
   0   6 -14  186.35   40.35
  -6   0  14  178.89   56.80
  -6   0  14   -1.90   56.79
   0  -6  14  148.99   45.78
   6   0  14  126.09   60.47
   0  -6  14  195.40   52.06
   6   0  14  192.48   91.33
  -6   1 -14   -3.00  113.22
   6  -1 -14   64.37   70.87
   1   6 -14   45.92   20.76
  -1  -6  14   56.91   39.98
   6  -1  14  -25.70   73.96
   6  -1  14   62.74   46.12
  -1  -6  14   17.43   29.18
  -6   2 -14  170.37  125.35
   2   6 -14  204.16   48.88
   6  -2  14  119.82   81.32
   6  -2  14  247.12   67.50
  -2  -6  14  255.16   62.50
  -2  -6  14  218.17   54.56
  -6   3 -14  107.58  130.47
   3   6 -14  184.82   45.20
   6  -3  14  191.76   64.63
   6  -3  14  168.79   71.36
  -3  -6  14  217.87   50.28
  -3  -6  14  181.17   58.31
  -6   4 -14  218.05   58.34
   4   6 -14  231.26   53.10
  -6   4 -14  224.15  140.44
  -4  -6  14  304.22   58.57
   6  -4  14  147.52   70.58
  -4  -6  14  270.95   65.58
   6  -4  14  113.71   70.93
  -6   5 -14   -3.25  125.77
  -6   5 -14   13.43   28.76
   5   6 -14  -22.11   18.17
  -5  -6  14  -25.88   35.16
   6  -5  14   32.77   43.31
   6  -5  14   18.70   52.54
  -6   6 -14  133.46   36.08
  -6   6 -14  246.31  142.66
   6  -6  14   59.20   60.46
   6  -6  14   76.42   50.25
  -6   7 -14   67.74   31.65
  -6   7 -14  -99.09  132.98
   7   6 -14   42.11   30.00
   7   6 -14   33.98   70.51
   6  -7  14    2.05   42.16
   6  -7  14  -47.25   59.94
  -5   7 -14  179.03   48.09
   7   5 -14  160.65   50.75
   7   5 -14  209.36   83.54
   5  -7  14  181.82   56.69
  -7  -5  14  187.86   69.44
  -7  -5  14  187.71   40.85
   5  -7  14  141.45   66.64
   7   4 -14   69.33   70.56
   7   4 -14   45.86   29.39
  -7  -4  14   31.78   14.62
   4  -7  14    9.82   50.39
  -7  -4  14    4.00   48.44
  -3   7 -14  376.72   71.62
   7   3 -14  492.65  108.89
   7   3 -14  255.38   75.19
   3  -7  14  248.75   76.08
  -7  -3  14  327.88   67.20
   3  -7  14  320.89   84.03
  -7  -3  14  194.79   84.62
   7   2 -14  140.68   46.61
   7   2 -14  247.51   93.21
  -2   7 -14  143.28   42.05
   2  -7  14  121.74   56.72
   2  -7  14  246.01   50.79
  -7  -2  14  102.60   57.03
   7   1 -14  487.91  140.26
   7   1 -14  341.77  100.38
  -1   7 -14  399.33   92.67
  -7  -1  14  324.07  108.92
   1  -7  14  408.38   96.99
   1  -7  14  550.50  104.74
   7   0 -14    1.96   35.05
   0   7 -14    1.61   22.61
  -7   0 -14   63.84  117.84
   7   0 -14   -4.28   82.87
  -7   0  14   -4.41   43.31
   0  -7  14  -11.31   40.56
   7   0  14    2.22   48.85
   7   0  14    5.67   20.94
   0  -7  14  -12.94   29.47
   7   0  14  -42.57   83.46
   7  -1 -14  352.46  134.11
  -7   1 -14  355.24  166.61
   1   7 -14  496.86   90.69
  -1  -7  14  425.26   95.79
   7  -1  14  236.79  104.75
   7  -1  14  350.96  128.99
  -1  -7  14  478.34  103.01
  -7   2 -14  168.20  126.42
   2   7 -14  118.84   37.17
  -2  -7  14  169.65   51.32
   7  -2  14  115.53   59.59
   7  -2  14  167.33   75.56
  -2  -7  14  170.30   43.95
  -7   3 -14  360.92  150.88
   3   7 -14  209.21   64.39
  -3  -7  14  295.74   69.14
   7  -3  14  311.83   87.59
   7  -3  14  246.61   81.92
  -3  -7  14  342.85   77.23
  -7   4 -14   26.53  132.77
   4   7 -14   36.93   22.18
  -7   4 -14   72.24   30.65
   7  -4  14    4.12   54.37
  -4  -7  14   79.37   40.07
   7  -4  14   55.41   54.25
  -7   5 -14  299.30  150.61
  -7   5 -14  192.95   48.01
  -5  -7  14  152.88   54.20
   7  -5  14  167.95   58.74
   7  -5  14   97.88   70.43
  -7   6 -14   32.84   30.69
  -7   6 -14  -73.68  148.58
   7  -6  14  -30.16   60.54
   7  -6  14  -49.34   46.05
  -7   7 -14  158.55   37.93
  -7   7 -14  123.38  154.49
   7  -7  14   72.35   50.02
   7  -7  14    2.41   67.08
   7  -8  14   76.27   67.91
   8   6 -14   52.47   75.32
  -6   8 -14   33.09   34.19
   8   6 -14    8.29   32.45
   6  -8  14   36.65   43.41
  -8  -6  14   53.96   18.17
  -8  -6  14   46.48   63.51
   6  -8  14    4.60   61.53
   8   5 -14  -24.70   77.84
  -5   8 -14   38.16   31.76
   8   5 -14  -14.96   33.69
  -8  -5  14   12.38   61.25
   5  -8  14  -66.64   36.92
   5  -8  14    2.13   53.20
  -8  -5  14   11.76   13.66
   8   4 -14  550.04  135.15
   8   4 -14  410.45  106.75
   4  -8  14  484.32  114.29
  -8  -4  14  354.01  120.74
  -8  -4  14  444.75   95.61
   8   3 -14   24.62   32.28
   8   3 -14   34.71   87.49
  -3   8 -14   56.58   28.27
   3  -8  14   46.32   49.13
   3  -8  14   71.02   39.25
  -8  -3  14   41.87   18.06
  -8  -3  14   11.05   51.20
  -2   8 -14  349.61   77.83
   8   2 -14  320.27  127.56
   8   2 -14  341.27   84.30
   2  -8  14  401.39   83.42
  -8  -2  14  261.54   95.37
   2  -8  14  308.76   88.57
   8   1 -14   52.00   34.50
  -1   8 -14   38.28   25.84
   8   1 -14   80.35  100.77
   1  -8  14  -51.94   36.85
   1  -8  14   57.71   42.69
  -8  -1  14  -17.86   48.20
   8   0 -14  309.47   94.85
  -8   0 -14  490.39  163.30
   0   8 -14  390.21   85.20
   8   0 -14  456.89  141.57
   8   0  14  364.95  126.14
  -8   0  14  275.43  103.93
   0  -8  14  360.09   89.32
   0  -8  14  485.43   95.84
   8   0  14  363.54   92.01
  -8   1 -14  -47.08  132.12
   8  -1 -14  -23.81   92.50
   1   8 -14   19.11   23.19
  -1  -8  14   -3.32   31.20
   8  -1  14   -8.78   52.25
   8  -1  14  -11.71   78.66
  -8   1  14   26.57   50.04
  -1  -8  14   43.94   38.76
   2   8 -14  340.05   77.16
  -8   2 -14  496.41  162.13
   8  -2 -14  460.23  125.36
   8  -2  14  145.01   91.25
   8  -2  14  376.64  104.46
  -2  -8  14  337.72   88.06
  -8   3 -14  167.83  137.40
   8  -3  14   21.10   56.26
   8  -3  14   68.97   63.15
  -3  -8  14   49.41   41.38
  -8   4 -14  537.24  116.19
  -8   4 -14  779.17  202.49
  -4  -8  14  405.93  121.03
   8  -4  14  488.75  126.26
   8  -4  14  586.08  126.20
  -8   5 -14  194.49  156.41
  -8   5 -14   21.08   30.49
   8  -5  14  -49.40   48.94
  -5  -8  14   24.40   40.04
   8  -5  14   68.37   64.88
  -8   6 -14   -3.73  153.72
  -8   6 -14   81.48   34.43
   8  -6  14   62.16   50.16
   8  -6  14    9.74   61.67
  -8   7 -14   79.18  163.71
  -8   7 -14  217.08   47.44
   8  -7  14  182.98   58.13
   8  -7  14   -2.60   75.35
  -8   9 -14  -50.92   37.05
   8  -9  14    5.57   71.69
   8  -9  14   -2.40   47.58
  -7   9 -14   -2.45   36.69
   7  -9  14   -2.33   46.13
   9   6 -14   75.19   44.18
   9   6 -14  134.71   87.44
  -9  -6  14  105.69   28.02
  -9  -6  14   84.65   78.85
   9   5 -14  102.43   40.39
   9   5 -14   38.56   91.42
  -9  -5  14   65.81   22.15
   5  -9  14   70.71   60.01
  -9  -5  14   56.82   69.62
   9   4 -14   25.08   38.68
   9   4 -14   23.76   90.27
  -4   9 -14   17.77   31.40
  -9  -4  14   21.40   64.68
  -9  -4  14   13.26   16.91
   4  -9  14    2.14   55.10
   9   3 -14  579.47  134.97
  -3   9 -14  252.11   77.80
   9   3 -14  342.44   86.17
  -9  -3  14  369.79  102.26
  -9  -3  14  428.89   73.84
   3  -9  14  325.98   84.01
   3  -9  14  103.76   91.10
   9   2 -14    9.88   35.61
   9   2 -14   -2.48  115.22
  -2   9 -14  -31.46   28.89
   2  -9  14  -51.35   38.34
  -9  -2  14   24.72   56.13
   2  -9  14  -43.33   50.39
  -1   9 -14  114.22   43.90
   9   1 -14  217.58   53.95
   9   1 -14  299.51  120.66
   1  -9  14   79.04   59.61
  -9  -1  14  136.95   67.11
  -9   0 -14   67.83  143.31
   9   0 -14   32.50   42.17
   9   0 -14  -34.60  118.12
   9   0  14   -9.00   26.23
   9   0  14   84.76   91.20
  -9   0  14   20.81   53.14
   0  -9  14  -57.69   47.04
   9  -1 -14  279.94   61.97
  -9   1 -14  391.72  153.30
   9  -1 -14  176.97  110.83
   9  -1  14  149.63   66.59
  -9   1  14  101.55   71.22
   9  -1  14   70.64   93.60
  -1  -9  14  163.04   60.50
   9  -2 -14  -71.13  105.67
  -9   2 -14   62.02  141.39
   9  -2  14   13.17   53.49
  -2  -9  14    3.38   43.73
   9  -2  14  -23.91   70.42
  -9   3 -14  221.76  173.59
  -3  -9  14  437.89   89.09
   9  -3  14  292.13  101.91
   9  -3  14  273.08   95.89
  -9   4 -14    2.27   35.28
  -9   4 -14  -18.35  153.24
  -4  -9  14   28.44   40.21
   9  -4  14 -140.85   56.54
   9  -4  14   49.51   61.78
  -9   5 -14   28.75   35.04
  -9   5 -14   58.24  168.50
   9  -5  14  106.65   53.02
   9  -5  14    9.56   63.46
  -9   6 -14  -63.79  171.19
  -9   6 -14  134.51   39.47
   9  -6  14   48.66   74.28
   9  -6  14   61.93   52.58
  -9   8 -14  -67.07   37.11
   9  -8  14    4.76   46.07
  -9   9 -14  -31.73   39.20
  -9   9 -14  -95.94  176.07
   9  -9  14    2.48   46.93
   9  -9  14    3.00   75.51
  -9  10 -14 -185.34   43.94
   9 -10  14   12.65   79.99
  -8  10 -14  -31.24   38.16
   8 -10  14   29.62   77.02
  -7  10 -14    2.74   40.26
  10   7 -14   14.72   41.30
   7 -10  14  -13.84   76.45
  -6  10 -14   -2.65   37.20
  10   6 -14   25.66   42.33
  10   6 -14   73.22   94.84
 -10  -6  14   33.54   20.06
   6 -10  14   46.62   65.14
 -10  -6  14  -19.75   84.26
  10   5 -14  -19.25   42.10
  10   5 -14   43.40   97.75
 -10  -5  14   76.97   79.42
 -10  -5  14   25.80   19.64
  10   4 -14  285.51  108.76
  10   4 -14  135.87   51.11
 -10  -4  14  167.53   85.49
 -10  -4  14  106.71   33.58
  10   3 -14  111.91  109.19
  10   3 -14   -8.64   41.00
 -10  -3  14  103.08   67.53
 -10  -3  14  -11.77   19.15
  10   2 -14  149.36  121.93
  10   2 -14   15.68   47.09
 -10  -2  14  127.47   28.59
 -10  -2  14  108.94   64.99
  10   1 -14  -21.08   45.85
  10   1 -14 -135.98  123.13
 -10  -1  14   55.64   62.41
  10   0 -14  -51.13   46.05
  10   0 -14 -165.48  124.63
  10   0  14  -17.96   96.26
 -10   0  14   -2.90   59.45
  10  -1 -14 -128.29  120.36
 -10   1 -14   90.39  150.43
  10  -1 -14   19.07   48.48
 -10   1  14  -36.62   63.61
  10  -1  14   23.50   80.09
  10  -1  14    9.73   60.14
 -10   2 -14   77.00  156.97
  10  -2 -14  152.36  116.20
  10  -2  14   80.58   74.06
  10  -2  14   36.94   57.27
 -10   2  14 -103.31   65.76
 -10   3 -14   14.60  151.13
  10  -3  14   16.06   58.77
  10  -3  14   36.98   66.47
 -10   4 -14  111.75   44.20
 -10   4 -14  199.62  169.42
  10  -4  14  110.77   68.44
  10  -4  14   85.92   61.64
 -10   5 -14   24.50  177.03
 -10   5 -14   72.25   37.07
  10  -5  14   56.14   53.39
  10  -5  14   39.67   66.93
 -10   6 -14  111.39  190.06
  10  -6  14   -2.66   69.42
 -10   7 -14   -2.46   35.47
  10  -7  14  -28.21   47.16
 -10   8 -14 -222.90  198.01
 -10   8 -14  -69.69   37.55
  10  -8  14  -17.16   50.61
  10  -8  14   52.71   85.46
 -10   9 -14  -46.89   38.61
 -10   9 -14  -54.42  195.17
  10  -9  14   12.74   53.15
  10  -9  14    3.26   86.09
 -10  10 -14   -6.10   40.86
  10 -10  14    3.42   91.02
  11   7 -14   -4.64   48.66
 -11  -7  14  109.31   25.49
  11   6 -14 -243.70  113.12
  11   6 -14    4.73   47.58
 -11  -6  14   23.93   21.57
 -11  -6  14    3.71   94.27
  11   5 -14 -254.12  115.03
  11   5 -14  -49.26   47.43
 -11  -5  14  -21.69   90.39
 -11  -5  14    2.06   19.70
  11   4 -14   63.28  117.91
  11   4 -14  -46.78   49.05
 -11  -4  14  -55.18   84.78
 -11  -4  14   16.82   21.14
  11   3 -14   26.88   47.11
  11   3 -14 -217.61  125.39
 -11  -3  14    6.67   74.60
 -11  -3  14   13.29   21.51
  11   2 -14  -10.12   49.16
  11   2 -14   -9.16  132.80
 -11  -2  14   15.75   23.71
 -11  -2  14    3.15   73.83
  11   1 -14  -12.67  135.37
  11   1 -14   31.50   51.70
  11   1  14   59.97  112.63
 -11  -1  14   28.15   70.90
  11   0 -14  -59.60   54.26
  11   0 -14    3.23  130.45
 -11   0  14   -3.21   66.81
  11   0  14  -18.15   96.40
  11  -1 -14   30.11   50.81
 -11   1 -14  110.90  158.59
 -11   1  14  -42.98   68.48
  11  -1  14   47.60   87.15
  11  -1  14   23.04   63.33
 -11   2 -14  -65.96  161.87
  11  -2  14   10.44   71.99
  11  -2  14   58.20   60.81
 -11   2  14  -17.93   73.18
 -11   3 -14   11.52  161.23
  11  -3  14   63.12   63.96
  11  -3  14  -76.26   62.27
 -11   4 -14   47.90  172.26
 -11   4 -14    7.42   36.45
  11  -4  14   21.93   59.62
  11  -4  14   41.71   66.34
 -11   5 -14 -322.36  192.74
  11  -5  14    2.55   68.87
 -11   7 -14  -75.50  210.88
 -11   7 -14   -2.57   38.53
  11  -7  14    2.42   47.44
  11  -7  14    3.01   80.34
 -11   8 -14   24.10  210.92
 -11   8 -14   13.38   39.19
  11  -8  14  -68.93   92.59
  11  -8  14   67.29   50.91
 -11   9 -14   24.61  202.85
 -11   9 -14  -34.44   40.71
  11  -9  14   26.20   54.66
  11  -9  14   17.66   95.53
 -11  10 -14 -338.12  222.00
 -11  10 -14  -47.41   45.66
  11 -10  14    3.75  101.93
  12   7 -14  236.92   68.63
 -12  -7  14  292.81  111.10
  12   6 -14  148.46  117.38
 -12  -6  14   -2.41   24.90
  12   1  14  -49.91  116.29
  12   0  14   53.41   97.28
 -12   1 -14 -142.74  169.01
  12  -1 -14    3.53  150.60
  12  -1  14  -19.49   91.96
  12  -1  14   -8.11   68.05
  12  -2 -14  164.02   57.43
  12  -2 -14 -473.79  145.47
 -12   2 -14  -94.09  174.73
  12  -2  14  -66.20   67.21
  12  -2  14   10.29   75.81
 -12   3 -14  -77.02  184.42
  12  -3 -14  283.75  145.84
 -12   3 -14  110.51   45.56
  12  -3  14   49.27   74.14
  12  -3  14   75.99   72.61
 -12   4 -14  -75.10  182.47
  12  -4  14   -2.52   67.47
 -12   6 -14  710.41  210.24
 -12   6 -14    7.76   41.61
  12  -6  14    2.41   51.96
  12  -6  14  238.60   79.46
 -12   7 -14    2.68   39.53
 -12   7 -14   15.25  224.01
  12  -7  14    3.10   85.17
  12  -7  14   66.96   52.27
 -12   8 -14   47.25  223.22
 -12   8 -14   14.00   40.11
  12  -8  14   -3.41   88.09
  12  -8  14   94.40   56.42
 -12   9 -14  534.35  254.95
 -12   9 -14   41.83   45.07
  12  -9  14  153.30  107.50
  12  -9  14   24.18   58.55
 -12  10 -14   71.77  243.49
 -12  10 -14    3.28   44.93
  12 -10  14   -4.03  106.14
 -12  11 -14    5.66  243.29
  12 -11  14  -38.69  115.57
  13   7 -14 -247.84  127.81
  13   7 -14    5.69   57.71
 -13  -7  14    8.35   27.84
 -13  -7  14   74.34  121.96
  13   6 -14   41.97  127.76
  13   6 -14   46.89   56.56
 -13  -6  14  -36.96  111.74
 -13  -6  14  -45.37   25.15
  13   5 -14  -96.33   60.73
  13   5 -14  -73.94  136.59
 -13  -5  14  104.04  115.54
 -13  -5  14  -12.89   27.67
  13   4 -14  -69.58   60.75
  13   4 -14 -164.98  147.83
 -13  -4  14  161.61  104.89
 -13  -4  14   12.87   26.08
  13   3 -14    6.26   60.12
  13   3 -14  -38.82  155.39
 -13  -3  14   19.50   29.25
 -13  -3  14  -61.81   97.82
  13   2 -14 -285.19  159.19
  13   2 -14   31.78   60.85
 -13  -2  14  -11.35   29.65
 -13  -2  14   55.53   96.05
  13   1 -14    3.28   59.77
  13   1 -14   22.69  161.68
 -13  -1  14  -14.46   29.27
 -13  -1  14  -19.54   89.28
  13   0 -14  -81.83   61.59
  13   0 -14   76.17  157.80
 -13   0  14   11.80   85.71
  13  -1 -14 -363.49  159.34
  13  -1 -14  -70.59   66.79
 -13   1  14 -111.43   88.30
  13  -2 -14    3.65   64.13
 -13   2 -14 -167.56  185.81
  13  -2 -14  106.20  155.88
 -13   2  14    8.36   84.50
  13  -3 -14   22.63  149.95
 -13   4 -14   -2.68   39.08
 -13   5 -14  840.64  200.50
 -13   5 -14    5.31   41.85
  13  -5  14  -35.43   53.98
  13  -5  14  165.44   73.26
 -13   6 -14   51.25   40.04
 -13   6 -14   60.39  225.88
  13  -6  14    7.37   53.16
  13  -6  14  -34.62   81.99
 -13   7 -14   19.67   40.66
 -13   7 -14  -81.06  247.80
  13  -7  14    3.18   86.99
  13  -7  14  -12.60   55.31
 -13   8 -14   -2.91   39.17
 -13   8 -14   17.00  253.37
  13  -8  14  -73.03   50.21
  13  -8  14  108.54   97.47
 -13   9 -14 -245.41  259.99
 -13   9 -14   37.29   45.46
  13  -9  14  112.30  105.61
  13  -9  14   30.24   57.29
 -13  10 -14  156.67  265.37
  13 -10  14   89.60  114.42
 -13  11 -14 -167.12  278.66
  13 -11  14  -55.35  122.66
  14   7 -14   35.98  134.03
  14   7 -14  124.15   60.17
 -14  -7  14 -118.92  125.43
 -14  -7  14   -6.12   29.50
  14   6 -14  261.88  147.85
  14   6 -14  160.22   67.88
 -14  -6  14   29.62   33.50
 -14  -6  14  -20.39  126.31
  14   5 -14  122.70  155.32
  14   5 -14    3.30   61.24
 -14  -5  14   83.89  117.62
 -14  -5  14  -11.51   28.11
  14   4 -14   27.69   67.20
  14   4 -14 -261.07  163.60
 -14  -4  14  119.09  111.99
 -14  -4  14  -11.52   28.16
  14   3 -14 -407.36  169.42
  14   3 -14   62.45   64.98
 -14  -3  14  -50.50  112.54
 -14  -3  14  -49.49   31.93
  14   2 -14    4.03  170.76
  14   2 -14    3.54   66.75
 -14  -2  14   -3.17   31.48
 -14  -2  14   53.25  100.77
  14   1 -14   65.63   66.75
  14   1 -14   69.73  176.03
 -14  -1  14  -91.43  100.72
 -14  -1  14   12.89   34.72
  14   0 -14  -33.08  174.62
  14   0 -14 -151.26   70.14
 -14   0  14   87.16   93.23
  14  -1 -14    3.95   70.15
  14  -1 -14   -4.15  170.35
 -14   1  14   87.83   94.28
  14  -2 -14   -4.02   71.55
  14  -2 -14   -8.29  164.04
 -14   2  14  109.65   91.54
  14  -3 -14  197.53  164.95
 -14   3  14   19.42   97.54
  15   8 -14 -129.68   66.37
  15   7 -14   41.46   66.75
  15   7 -14   47.74  150.11
 -15  -7  14  -20.26   32.53
 -15  -7  14   97.18  135.16
  15   6 -14  310.08  159.91
  15   6 -14 -104.43   71.61
 -15  -6  14  -19.74   33.70
 -15  -6  14   45.20  137.01
  15   5 -14   14.78   71.26
  15   5 -14   16.48  167.57
 -15  -5  14   -9.65   30.07
 -15  -5  14  115.00  132.96
  15   4 -14   17.22  175.24
  15   4 -14  -98.22   72.62
 -15  -4  14   -9.63   33.96
 -15  -4  14  -10.62  121.27
  15   3 -14 -106.98  176.45
  15   3 -14  -95.69   72.75
 -15  -3  14    3.35   33.71
 -15  -3  14  -97.04  121.71
  15   2 -14   23.54   77.28
  15   2 -14  -78.91  185.13
 -15  -2  14   28.25   35.77
 -15  -2  14  -84.17  115.05
  15   1 -14 -141.44   78.30
  15   1 -14 -272.32  195.95
 -15  -1  14  140.56  112.85
 -15  -1  14   17.90   35.03
  15   0 -14   12.56   73.25
  15   0 -14  420.42  198.53
 -15   0  14    9.68  105.37
 -15   0  14   22.06   39.74
  15  -1 -14    4.34   81.55
  15  -1 -14  165.17  193.36
 -15   1  14  184.20  107.67
  15  -2 -14 -210.86  188.02
  15  -2 -14  101.69   79.20
 -15   2  14  -45.20  105.51
  15  -3 -14 -134.82  185.13
 -15   3  14  142.99  102.61
  16   8 -14  -73.93   71.02
 -16  -8  14  270.80  161.59
  16   7 -14   41.33   73.32
  16   7 -14  -83.75  169.19
 -16  -7  14  -26.12   36.63
 -16  -7  14   25.04  152.39
  16   6 -14 -230.65   78.19
 -16  -6  14  -18.30   36.91
 -16  -6  14 -233.38  157.68
  16   5 -14 -355.32  190.82
  16   5 -14    4.01   75.97
 -16  -5  14   17.95   35.21
 -16  -5  14   18.23  150.89
  16   4 -14 -391.75  192.85
  16   4 -14    4.11   75.33
 -16  -4  14  118.50  135.57
 -16  -4  14   10.72   36.01
  16   3 -14  183.18  199.45
  16   3 -14  -25.18   80.95
 -16  -3  14   18.54   39.13
 -16  -3  14   11.38  133.75
  16   2 -14 -155.89   81.66
  16   2 -14  -28.47  202.43
 -16  -2  14  -11.83   38.28
 -16  -2  14  121.42  126.07
  16   1 -14 -261.07  205.58
  16   1 -14   31.27   79.15
 -16  -1  14  -15.99   39.17
 -16  -1  14   -5.40  121.56
  16   0 -14  178.51  207.13
  16   0 -14  161.83   86.11
 -16   0  14 -172.36  120.74
 -16   0  14   -4.08   41.19
  16  -1 -14    4.79   85.99
  16  -1 -14  250.47  207.07
 -16   1  14 -123.42  112.24
  16  -2 -14 -227.47  208.12
  16  -2 -14    4.88   79.85
 -16   2  14  105.14  109.94
  16  -3 -14   14.56  192.27
 -16   3  14   63.78  115.31
  17   8 -14   88.55   74.05
 -17  -8  14 -242.62  175.75
  17   7 -14  -54.72   81.25
 -17  -7  14    6.91  164.85
 -17  -7  14    4.15   40.13
  17   6 -14  -30.55   83.59
  17   6 -14 -204.80  190.62
 -17  -6  14  -16.29   39.53
 -17  -6  14  128.49  160.98
  17   5 -14  -45.22  208.99
  17   5 -14   13.57   88.12
 -17  -5  14   39.65  159.42
 -17  -5  14 -116.32   41.44
  17   4 -14 -226.96  217.12
  17   4 -14  -67.62   83.06
 -17  -4  14  -83.73  152.96
 -17  -4  14   11.94   41.60
  17   3 -14  699.91  244.81
  17   3 -14  -50.68   95.99
 -17  -3  14   -4.02   47.28
 -17  -3  14   87.28  159.67
  17   2 -14  -47.65   95.33
  17   2 -14   15.55  239.19
 -17  -2  14    8.67   44.53
 -17  -2  14   18.24  144.25
  17   1 -14 -325.52  103.34
 -17  -1  14   -5.98  138.07
 -17  -1  14   -8.91   45.18
  17   0 -14  -50.96   99.01
 -17   0  14   99.36   48.41
 -17   0  14  -12.02  133.33
  17  -1 -14 -413.29  103.27
 -17   1  14 -160.91  138.38
 -17   1  14   18.55   53.69
  17  -2 -14  270.83  251.60
  17  -2 -14 -300.89  106.86
 -17   2  14   24.46  135.34
  17  -3 -14  231.54  259.08
 -17   3  14  751.07  183.02
  18   8 -14    4.51   86.00
 -18  -8  14  205.84  197.04
  18   7 -14  -63.91   84.47
 -18  -7  14   15.02  206.39
 -18  -7  14  -41.39   43.28
  18   6 -14 -340.65  216.14
  18   6 -14  -94.29   90.32
 -18  -6  14   36.43   44.59
 -18  -6  14   22.48  183.62
  18   5 -14    4.89   89.80
  18   5 -14  104.04  217.62
 -18  -5  14    4.50   45.65
 -18  -5  14  -66.14  173.88
  18   4 -14  -90.53   95.66
  18   4 -14  -56.41  234.51
 -18  -4  14  227.79  180.36
 -18  -4  14  -48.78   42.67
  18   3 -14   62.33   94.02
  18   3 -14  -74.87  249.76
 -18  -3  14   62.79   47.16
 -18  -3  14  -96.79  160.80
  18   2 -14  -33.62  241.00
  18   2 -14   -5.40   98.93
 -18  -2  14   61.09  161.81
 -18  -2  14  -93.77   50.41
  18   1 -14  522.90  242.42
  18   1 -14   11.22  100.89
 -18  -1  14  -49.79   54.93
 -18  -1  14  186.87  153.69
  18   0 -14 -271.55  245.34
  18   0 -14  219.46  108.05
 -18   0  14  -87.05  154.43
 -18   0  14  -15.13   54.18
  18  -1 -14  129.34  243.56
  18  -1 -14    6.06  107.73
 -18   1  14   41.15   51.04
 -18   1  14   26.50  143.44
  18  -2 -14   11.24  231.02
  18  -2 -14 -141.30  105.48
 -18   2  14    6.78  138.32
 -18   2  14  -10.65   55.73
  18  -3 -14 -209.17  232.63
 -18   3  14 -140.53  144.96
   0   0  15  -23.64   61.80
  -1   0 -15 1090.36  239.77
   0   1 -15  828.37  237.15
   0  -1  15  987.07  209.14
  -1   0  15  740.53  209.31
   0  -1  15  919.04  197.76
   1   0  15  513.58  211.30
   1   1 -15  -74.18   84.65
  -1   1 -15    9.95   90.03
  -1  -1  15  -20.45   35.20
  -1  -1  15  -21.93   55.76
   1  -1  15  -18.61   57.69
   1  -1  15   20.06   36.75
   2   1 -15  -25.59   46.27
   2   1 -15  -69.88   81.91
  -1   2 -15    2.33   85.68
   1  -2  15   29.89   36.42
  -2  -1  15    1.55   35.30
   1  -2  15   38.09   50.49
  -2  -1  15    7.68   49.61
   0   2 -15   46.39   83.76
  -2   0 -15   34.22   97.84
   2   0  15   18.75   68.20
   0  -2  15   -1.51   35.07
   0  -2  15   -2.56   52.61
  -2   0  15  -17.74   56.55
  -2   1 -15  -18.17   96.92
   1   2 -15  -54.72   85.59
   1   2 -15   -0.67   37.84
  -1  -2  15   26.19   34.43
   2  -1  15  -16.43   61.79
   2  -1  15    1.73   40.25
  -1  -2  15  -31.11   45.65
   2   2 -15  -72.65   81.77
   2   2 -15   -1.72   44.90
  -2   2 -15   59.09   93.46
  -2  -2  15   33.68   34.66
  -2  -2  15    8.88   44.72
   2  -2  15  -14.41   55.96
   2  -2  15  -11.53   40.49
   3   2 -15    2.13   51.08
   3   2 -15   39.14   80.35
  -2   3 -15   20.47  100.25
  -3  -2  15   23.91   41.63
  -3  -2  15    9.66   33.92
   2  -3  15  -27.95   48.25
   2  -3  15  -52.79   39.83
  -1   3 -15  183.52  112.45
   3   1 -15  326.71  108.49
   1  -3  15  217.79   65.39
   1  -3  15  227.61   72.58
  -3  -1  15  294.95   75.99
   0   3 -15   40.92   90.99
  -3   0 -15    2.95   99.92
   0  -3  15    2.25   47.05
   3   0  15   -3.96   73.75
   3   0  15    7.79   39.78
   0  -3  15   13.40   37.29
  -3   0  15   30.30   56.76
   1   3 -15  381.17  105.81
  -3   1 -15  182.38  111.60
   3  -1  15  162.83   63.18
  -1  -3  15  208.30   63.53
  -1  -3  15  173.23   60.08
   3  -1  15  232.65   89.03
  -3   2 -15    2.60   97.20
   2   3 -15  -23.86   83.42
   3  -2  15  -25.95   40.92
  -2  -3  15  -13.24   39.35
   3  -2  15   -6.09   58.76
  -2  -3  15   -6.80   34.88
  -3   3 -15  -48.67  103.68
   3   3 -15  -29.64   79.70
   3   3 -15   -0.87   45.29
   3   3 -15   44.45   20.75
   3  -3  15   21.46   54.57
  -3  -3  15   20.84   35.98
   3  -3  15  -39.94   41.97
  -3  -3  15   -1.68   35.35
  -3   4 -15   83.13  115.66
   4   3 -15  132.20   80.29
   3  -4  15  138.73   49.08
  -4  -3  15   66.68   36.91
  -4  -3  15   36.53   38.51
   3  -4  15   38.29   48.33
   4   2 -15  312.43  111.36
  -2   4 -15  312.72  134.82
  -4  -2  15  210.57   77.04
  -4  -2  15  270.02   78.70
   2  -4  15  430.51   80.16
   2  -4  15  215.53   78.44
  -1   4 -15  224.14  106.08
   4   1 -15   71.45   67.86
   1  -4  15   55.41   45.08
   1  -4  15  165.73   46.83
  -4  -1  15   25.95   50.95
   0   4 -15   51.20   97.71
   0   4 -15  -13.80   20.85
   4   0 -15   13.47   59.13
  -4   0 -15   -9.22  103.33
   4   0  15  -25.05   80.98
   4   0  15   50.72   45.22
  -4   0  15   15.33   55.36
   0  -4  15    7.68   38.83
   0  -4  15    1.54   38.64
  -4   1 -15   57.26  104.89
   1   4 -15   82.79   94.90
   1   4 -15   66.91   25.91
   4  -1  15   89.07   46.99
  -1  -4  15  112.75   41.05
  -1  -4  15   35.66   39.04
   2   4 -15  354.65   70.58
   2   4 -15  330.30  126.78
  -4   2 -15  426.23  134.05
   4  -2  15  189.27   82.21
  -2  -4  15  238.88   80.52
  -2  -4  15  405.01   78.91
   3   4 -15  187.38   91.89
  -4   3 -15   54.07  111.61
   3   4 -15   95.29   26.33
   4  -3  15   38.47   46.90
  -3  -4  15   74.92   41.20
  -3  -4  15   84.03   36.57
   4   4 -15  -68.46   89.32
   4   4 -15  -12.68   16.12
  -4   4 -15  -63.51  116.24
  -4  -4  15  -53.40   36.41
   4  -4  15   22.75   45.93
  -4  -4  15  -10.12   28.27
   5   4 -15   84.24   24.73
   5   4 -15   65.72   61.77
  -4   5 -15  106.06  128.32
   5   4 -15   82.25   28.55
   5   4 -15   66.32   85.67
  -5  -4  15   87.06   41.07
   4  -5  15  143.37   54.95
  -5  -4  15  106.33   33.11
  -3   5 -15   57.08   28.44
   5   3 -15   43.59   60.97
   5   3 -15   95.57   79.58
   5   3 -15   80.38   27.22
   5   3 -15   47.47   21.45
  -3   5 -15  133.25  122.10
  -5  -3  15   71.49   36.38
  -5  -3  15   95.99   36.51
   3  -5  15   37.13   42.99
  -5  -3  15   64.49   17.21
   3  -5  15   30.31   49.05
  -5  -3  15   70.83   31.16
   5   2 -15  126.37   35.24
  -2   5 -15  -33.90  111.47
   5   2 -15   50.75   74.67
  -2   5 -15  150.15   31.82
   2  -5  15   90.04   45.98
  -5  -2  15   67.07   44.39
   2  -5  15  101.03   48.66
  -5  -2  15   80.68   41.16
   5   1 -15  284.37   85.56
  -1   5 -15  118.91  117.56
  -1   5 -15  163.84   40.96
  -5  -1  15   83.12   57.85
   1  -5  15  190.53   55.87
   1  -5  15  118.39   50.39
  -5  -1  15  157.07   52.79
   5   0 -15  217.70   78.55
  -5   0 -15  234.82  119.71
   0   5 -15   99.91   32.57
   0   5 -15  105.85  109.37
   5   0  15  129.58   52.11
   0  -5  15  138.98   43.87
   0  -5  15  107.29   49.95
   5   0  15   51.55   84.69
  -5   0  15   55.64   58.62
   1   5 -15  145.56   37.29
  -5   1 -15  159.91  116.73
   1   5 -15   61.60  109.24
   5  -1  15  187.20   57.89
  -1  -5  15  162.41   45.67
  -1  -5  15  130.50   51.63
   5  -1  15  102.46   82.88
   2   5 -15   63.48   26.98
   2   5 -15  177.79  105.53
  -5   2 -15  197.64  115.66
   5  -2  15   36.95   69.53
   5  -2  15  101.57   49.86
  -2  -5  15   88.23   45.13
  -2  -5  15  105.65   36.62
   3   5 -15   21.61   18.76
   3   5 -15   68.30   99.96
  -5   3 -15  113.71  118.62
  -3  -5  15   33.75   39.73
   5  -3  15   59.27   58.48
   5  -3  15   25.12   45.55
  -3  -5  15   55.64   29.31
   4   5 -15   57.50  100.35
   4   5 -15  104.48   27.65
  -5   4 -15  105.25  123.72
  -4  -5  15  100.22   33.64
  -4  -5  15  145.87   44.08
   5  -4  15   47.77   53.53
   5  -4  15   44.81   58.67
  -5   5 -15    9.82  131.47
  -5   5 -15  -17.76   28.49
   5   5 -15   16.98   15.99
   5   5 -15    5.64   91.68
  -5  -5  15  -23.58   25.37
   5  -5  15    4.67   48.11
  -5  -5  15   57.27   37.74
   5  -5  15   12.55   54.26
  -5   6 -15  210.53   53.69
  -5   6 -15  255.79  146.10
   5  -6  15  184.39   61.89
   5  -6  15  186.55   69.37
  -4   6 -15   63.01  136.80
   6   4 -15  210.22   80.80
   6   4 -15  241.77   51.89
  -6  -4  15  190.09   62.87
  -6  -4  15  205.09   44.97
   4  -6  15  178.59   70.03
   6   3 -15  114.47   37.47
  -3   6 -15  154.84   36.20
  -3   6 -15  264.43  126.46
   6   3 -15  178.77   79.10
  -6  -3  15   87.28   28.31
   3  -6  15   65.14   55.18
   3  -6  15   91.40   47.77
  -6  -3  15  172.76   48.08
   6   2 -15  376.05  110.03
   6   2 -15  287.69   70.87
  -2   6 -15  243.90  137.75
  -2   6 -15  206.90   66.43
   2  -6  15  455.73   74.87
   2  -6  15  353.43   80.38
  -6  -2  15  159.68   77.61
   6   1 -15   78.75   88.86
  -1   6 -15    2.80  116.68
   6   1 -15   88.52   41.24
  -1   6 -15  190.55   36.65
   1  -6  15  182.63   52.27
  -6  -1  15  113.93   50.77
   1  -6  15  115.91   44.79
   0   6 -15 -171.05  109.11
   0   6 -15   18.45   21.75
   6   0 -15   57.23   79.98
  -6   0 -15  -33.78  117.50
   0  -6  15   -4.99   32.32
   0  -6  15   82.70   43.68
   6   0  15  -31.40   85.41
   6   0  15   26.80   49.60
  -6   1 -15  137.04  119.51
   1   6 -15    5.26  111.97
   1   6 -15   87.97   32.16
   6  -1 -15  202.19   80.42
  -1  -6  15   69.19   40.37
  -1  -6  15  189.18   52.25
   6  -1  15  178.47   85.45
   6  -1  15  138.40   55.32
  -6   2 -15  390.44  140.51
   2   6 -15  269.88   63.17
   2   6 -15  424.51  140.37
   6  -2  15  267.64   93.05
  -2  -6  15  315.63   78.64
  -2  -6  15  198.10   68.62
   6  -2  15  292.74   79.22
   3   6 -15  221.94  114.39
  -6   3 -15  220.64  126.32
   3   6 -15   85.77   33.27
   6  -3  15  102.54   64.35
  -3  -6  15  164.46   50.48
   6  -3  15  120.23   58.30
  -3  -6  15  152.24   39.97
   4   6 -15  160.24   46.24
  -6   4 -15  146.49  142.02
   4   6 -15  256.64  123.22
   6  -4  15  118.93   70.60
  -4  -6  15  156.35   61.04
   6  -4  15  175.16   68.02
  -4  -6  15  316.71   51.73
  -6   5 -15  187.16  149.70
  -6   5 -15  134.41   49.04
  -5  -6  15  199.90   49.16
   6  -5  15  185.54   67.35
   6  -5  15  197.04   70.12
  -5  -6  15  178.52   57.60
  -6   6 -15 -118.78  147.76
  -6   6 -15   27.00   31.52
   6  -6  15 -122.87   66.38
  -6   7 -15  176.10  151.81
  -6   7 -15   73.51   34.56
   6  -7  15  127.57   48.95
   6  -7  15  -88.59   65.47
   7   5 -15  -58.91   72.26
   7   5 -15   39.05   30.06
  -5   7 -15  -39.35   31.40
   5  -7  15 -124.80   48.70
   7   4 -15   85.54   79.47
   7   4 -15   93.62   37.15
  -4   7 -15   63.44   35.30
  -7  -4  15  100.92   54.32
   4  -7  15 -111.12   69.78
  -7  -4  15  134.43   25.72
   7   3 -15   63.92   83.70
  -3   7 -15  125.25   33.48
   7   3 -15   53.15   34.25
   3  -7  15   34.65   43.02
   3  -7  15  137.64   54.59
  -7  -3  15  100.64   23.88
  -7  -3  15   91.91   48.21
  -2   7 -15  317.51   94.51
   7   2 -15  676.41  140.58
   7   2 -15  348.40   99.61
   2  -7  15  526.63  106.76
  -7  -2  15  403.23  109.71
   2  -7  15  454.86  100.18
   7   1 -15   -1.91   35.97
   7   1 -15   52.29   92.22
  -1   7 -15   33.21   25.52
   1  -7  15   39.03   34.95
   1  -7  15  -10.74   45.57
  -7  -1  15   47.70   43.26
   7   0 -15  240.71  106.72
   0   7 -15  121.85   51.59
  -7   0 -15  227.66  138.42
   7   0  15  136.97  105.29
   0  -7  15  274.71   65.81
  -7   0  15  251.48   71.77
   0  -7  15  303.54   61.01
   7  -1 -15   75.24   83.83
  -7   1 -15   40.44  131.08
   1   7 -15   49.59   24.45
   7  -1  15   -4.08   87.57
  -1  -7  15   29.37   33.17
  -1  -7  15  132.18   44.45
   7  -1  15   44.16   53.30
  -7   2 -15  511.31  164.59
   2   7 -15  351.13   80.86
   7  -2  15  344.39   96.90
   7  -2  15  157.16  112.72
  -2  -7  15  395.16   94.13
  -2  -7  15  342.27   87.24
  -7   3 -15  112.32  134.42
   3   7 -15   92.75   28.42
  -3  -7  15   98.22   45.56
   7  -3  15  113.07   56.99
   7  -3  15   59.79   66.68
  -3  -7  15   55.31   34.08
  -7   4 -15  189.42  148.80
  -7   4 -15  137.94   44.86
   4   7 -15  154.48   36.48
   7  -4  15  144.08   66.02
  -4  -7  15  130.06   41.39
  -4  -7  15  169.47   51.48
   7  -4  15   27.50   67.03
  -7   5 -15 -259.16  151.49
  -7   5 -15  -86.53   31.17
   7  -5  15 -167.69   63.18
  -5  -7  15   14.08   40.46
   7  -5  15  -51.70   56.54
  -7   6 -15   93.42   38.28
  -7   6 -15  122.74  160.34
   7  -6  15  116.66   68.50
   7  -6  15   63.39   52.19
  -7   7 -15    3.74  158.88
  -7   7 -15  194.18   43.33
   7  -7  15  -53.59   75.04
   7  -7  15  159.31   53.03
  -6   8 -15    7.03  141.56
   6  -8  15   -2.42   63.02
   8   5 -15  206.30   53.91
   8   5 -15  181.41   91.29
   5  -8  15  260.62   60.34
   5  -8  15   40.85   68.88
  -4   8 -15   23.46   30.25
   8   4 -15  -19.32   82.17
   8   4 -15   47.28   33.28
  -8  -4  15   26.70   16.17
  -8  -4  15   51.87   54.76
   4  -8  15   12.70   56.77
   4  -8  15    4.19   41.01
   8   3 -15  325.05   76.23
   8   3 -15  304.27  118.01
  -3   8 -15  294.52   71.50
  -8  -3  15  248.16   90.04
  -8  -3  15  272.22   66.17
   3  -8  15  341.68   76.84
   3  -8  15  282.77   84.15
   8   2 -15   41.46   35.95
   8   2 -15  109.71  100.06
  -2   8 -15   23.49   30.48
   2  -8  15    3.85   50.37
  -8  -2  15   69.85   49.52
   2  -8  15   48.76   38.32
  -1   8 -15  229.85   58.86
   8   1 -15  255.16  125.28
   8   1 -15  152.72   68.21
   1  -8  15  329.37   66.86
   1  -8  15  266.36   72.04
  -8  -1  15  196.11   78.07
   0   8 -15  -29.03   24.92
   8   0 -15   21.82   38.17
   8   0 -15  -67.15  104.27
  -8   0 -15   -7.52  135.23
   0  -8  15  -16.04   45.30
  -8   0  15   -9.96   51.31
   8   0  15   89.73   96.92
   0  -8  15   -1.80   35.08
   8  -1 -15  252.29  118.12
   1   8 -15  253.76   62.77
  -8   1 -15  362.73  156.20
  -1  -8  15  193.75   67.99
   8  -1  15  307.14   82.22
   8  -1  15  207.01  110.09
  -1  -8  15  336.80   73.51
  -8   2 -15  110.48  140.77
   2   8 -15   69.11   27.73
   8  -2  15   46.61   56.93
  -2  -8  15   59.78   44.59
  -2  -8  15   42.05   34.25
   8  -2  15    3.70   82.57
   3   8 -15  376.18   73.88
  -8   3 -15  368.63  169.40
  -3  -8  15  298.17   84.63
   8  -3  15  297.52  101.87
   8  -3  15  250.63   91.42
  -8   4 -15   14.02   35.40
  -8   4 -15  158.02  154.18
   8  -4  15   82.45   59.51
  -4  -8  15    7.77   41.69
   8  -4  15    2.29   57.64
  -8   5 -15  -31.02  171.20
  -8   5 -15  160.76   44.80
   8  -5  15   31.39   72.57
   8  -5  15  142.69   60.68
  -8   6 -15    2.27   33.72
  -8   6 -15   51.45  169.10
   8  -6  15    4.76   49.14
   8  -6  15   -2.56   64.70
  -8   8 -15   39.68   36.05
   8  -8  15   48.13   47.82
  -8   9 -15 -275.52  174.28
  -8   9 -15 -195.22   41.42
   8  -9  15 -190.97   54.98
   8  -9  15  -63.72   82.14
  -7   9 -15 -144.84   37.77
   7  -9  15  -51.21   70.08
   7  -9  15    2.43   45.73
  -6   9 -15   34.28   33.43
   6  -9  15  -37.74   46.65
   9   5 -15   15.56   38.03
   9   5 -15   64.93   90.46
  -9  -5  15   39.85   19.29
  -9  -5  15   75.06   68.70
   9   4 -15  286.25  110.01
   9   4 -15  255.01   63.30
   4  -9  15    6.67   75.47
  -9  -4  15  223.36   81.45
  -9  -4  15  258.10   50.78
   9   3 -15   -2.38  102.03
  -3   9 -15  -41.81   30.53
   9   3 -15  -46.20   37.29
   3  -9  15  -19.03   53.00
  -9  -3  15  -52.74   59.05
  -9  -3  15  -17.46   18.00
   3  -9  15   -2.12   41.71
  -2   9 -15  301.77   69.96
   9   2 -15  460.36  132.77
   9   2 -15  280.74   78.52
   2  -9  15  248.39   76.68
   2  -9  15  298.05   83.90
  -9  -2  15  247.03   90.15
   9   1 -15   -6.54   40.27
   9   1 -15  130.23  113.15
  -1   9 -15   22.90   27.87
  -9  -1  15  -43.41   54.68
   1  -9  15    2.00   37.11
   1  -9  15  -51.98   50.45
   9   0 -15   65.41   44.11
   0   9 -15   16.52   26.91
   9   0 -15  159.96  111.29
  -9   0 -15  -43.70  142.02
   0  -9  15   16.78   49.31
   9   0  15  -28.79   97.93
  -9   0  15  107.26   59.64
   9  -1 -15   57.52  109.42
  -9   1 -15  -60.13  151.12
  -1  -9  15  -45.14   46.65
  -9   1  15  -47.56   58.74
   9  -1  15  -34.04   89.75
   9  -1  15   21.93   58.90
  -9   2 -15  255.94  165.70
   9  -2 -15  221.30  125.23
  -2  -9  15  269.11   73.60
   9  -2  15  270.65   82.72
   9  -2  15  134.02   97.02
  -9   3 -15   91.52  149.52
   9  -3  15    2.33   60.67
  -3  -9  15   22.32   46.13
   9  -3  15  105.18   69.61
  -9   4 -15  403.80  179.29
  -9   4 -15  288.73   66.78
  -4  -9  15  251.16   72.17
   9  -4  15  199.26   82.87
   9  -4  15  165.72   85.20
  -9   5 -15    2.37   35.28
  -9   5 -15   81.49  179.03
   9  -5  15   34.17   54.88
   9  -5  15   -2.52   67.97
  -9   6 -15  156.78  182.94
   9  -6  15   -2.68   71.54
  -9   7 -15    2.46   34.92
   9  -7  15   38.45   51.16
  -9   8 -15    2.61   41.59
   9  -8  15  -17.39   54.45
   9  -8  15  -42.45   86.22
  -9   9 -15  -13.13  186.86
  -9   9 -15  -35.63   40.42
   9  -9  15    5.18   50.31
   9  -9  15   -3.14   82.82
  -9  10 -15   29.72   42.74
   9 -10  15 -134.79   58.75
   9 -10  15   19.64   86.05
  -8  10 -15    2.86   38.09
   8 -10  15   34.73   54.85
   8 -10  15   -3.03   78.20
  -7  10 -15  -85.74   40.19
   7 -10  15  116.65   51.26
   7 -10  15  -19.57   75.12
  -6  10 -15  -48.18   39.18
  10   6 -15 -148.93  107.61
   6 -10  15   31.82   69.22
   6 -10  15    2.52   50.52
  10   5 -15   72.83   44.90
  10   5 -15   58.61  101.68
 -10  -5  15   -7.45   19.96
 -10  -5  15   69.59   74.73
   5 -10  15   -2.50   63.94
  10   4 -15   44.80  107.69
  -4  10 -15   15.32   36.57
  10   4 -15   10.80   44.86
 -10  -4  15   80.05   71.40
 -10  -4  15   59.10   21.29
  10   3 -15   99.31   49.75
  10   3 -15   13.40  122.63
 -10  -3  15   85.70   71.91
 -10  -3  15  112.00   30.49
  10   2 -15   15.79   41.66
  10   2 -15   -2.85  120.63
 -10  -2  15   25.03   61.48
   2 -10  15   39.19   56.00
 -10  -2  15  -20.48   21.76
  10   1 -15   -9.79   44.54
  10   1 -15 -233.76  130.50
   1 -10  15    2.09   53.16
 -10  -1  15   45.14   59.36
  10   0 -15  118.22  128.78
  10   0 -15   29.84   48.23
  10   0  15  -29.04  106.25
 -10   0  15  -20.50   61.28
  10  -1 -15   27.40   49.45
  10  -1 -15   96.52  126.76
 -10   1 -15   -3.95  153.96
  10  -1  15   15.39   62.03
 -10   1  15  110.82   64.79
  10  -1  15   26.09   92.04
  10  -2 -15   77.35  119.78
 -10   2 -15   31.03  153.49
  10  -2  15   36.70   59.89
  10  -2  15  -61.15   82.30
 -10   3 -15  589.31  193.68
  10  -3  15  510.00  119.83
  10  -3  15  408.16  124.90
 -10   4 -15   -2.57   39.19
 -10   4 -15  -28.03  177.12
  10  -4  15   -2.92   61.84
  10  -4  15  -10.04   65.88
 -10   5 -15  141.55  186.79
  10  -5  15    2.61   70.95
 -10   7 -15  -36.87  203.66
 -10   7 -15 -156.86   36.40
  10  -7  15   33.15   78.07
  10  -7  15  -24.79   49.86
 -10   8 -15    4.70  196.27
 -10   8 -15    2.71   39.91
  10  -8  15   19.40   82.37
  10  -8  15   10.24   50.35
 -10   9 -15   -4.72  202.46
 -10   9 -15    2.85   39.39
  10  -9  15    3.43   91.67
  10  -9  15  -16.01   56.73
 -10  10 -15 -289.54  214.47
 -10  10 -15    3.09   40.75
  10 -10  15  -53.32   55.93
  10 -10  15    3.58   95.12
  10 -11  15  -56.29  103.26
   9 -11  15    3.46   88.51
  11   6 -15   -9.81   61.23
  11   6 -15  541.39  110.68
  11   5 -15 -312.22  125.75
  11   5 -15    4.95   50.82
 -11  -5  15   18.78   22.00
 -11  -5  15    3.58   86.47
  11   4 -15 -195.67  128.77
  11   4 -15   45.66   48.58
 -11  -4  15    8.57   22.91
 -11  -4  15    6.73   85.69
  11   3 -15   57.67   47.68
  11   3 -15  -26.82  124.32
 -11  -3  15   -4.52   23.61
 -11  -3  15   25.87   72.94
  11   2 -15  -53.40  142.33
  11   2 -15   15.32   47.18
 -11  -2  15   -6.87   23.56
 -11  -2  15  -18.78   71.69
  11   1 -15   68.51   55.00
  11   1 -15  169.85  139.16
 -11  -1  15   22.02   71.57
  11   0 -15   83.41   54.22
 -11   0  15  -32.51   71.14
  11   0  15   73.49  106.07
 -11   1 -15  -45.85  173.10
  11  -1 -15  -47.92   53.02
  11  -1  15  -27.02   66.57
 -11   1  15   68.33   69.89
  11  -1  15   38.84   96.70
 -11   2 -15   20.43  166.72
  11  -2  15   18.98   79.90
  11  -2  15  -41.19   62.69
 -11   3 -15    4.06  174.54
  11  -3  15   30.34   63.69
  11  -3  15  106.33   73.53
 -11   4 -15 -117.30  186.28
 -11   6 -15  987.75  210.57
  11  -6  15    2.59   60.36
  11  -6  15   40.68   82.50
 -11   7 -15   13.53   39.62
 -11   7 -15  348.22  218.07
  11  -7  15   -3.13   81.88
  11  -7  15    2.55   55.24
 -11   8 -15  111.66  225.32
 -11   8 -15  -76.19   42.05
  11  -8  15  -15.80   53.51
  11  -8  15    3.40   89.58
 -11   9 -15  -17.78   45.46
 -11   9 -15   82.66  230.99
  11  -9  15   -3.67   97.42
  11  -9  15   16.46   57.12
 -11  10 -15   42.31   44.61
 -11  10 -15 -247.11  237.20
  11 -10  15    3.90  100.45
  11 -10  15  -28.85   58.25
 -11  11 -15 -193.93  269.91
  11 -11  15   65.77  114.61
  12   6 -15 -111.21  119.53
 -12  -6  15  -26.58   22.76
  12   0 -15 -174.64  160.20
  12   0  15  -67.43  113.44
  12  -1 -15   -3.33   44.17
  12  -1 -15  -61.28  155.38
 -12   1 -15   44.14  183.22
  12  -1  15 -173.24   76.36
  12  -1  15  123.11   84.04
 -12   2 -15  -38.73  180.42
  12  -2 -15 -430.97  151.40
 -12   2  15  -80.01   89.39
  12  -2  15  -39.97   70.21
 -12   4 -15   -2.78   38.96
 -12   5 -15    2.73   41.24
 -12   5 -15  661.98  201.02
  12  -5  15  196.24   77.72
  12  -5  15  -11.04   60.52
 -12   6 -15   80.22  222.26
 -12   6 -15  -40.79   40.10
  12  -6  15   20.86   79.15
  12  -6  15   -7.73   55.78
 -12   7 -15 -265.39  240.02
 -12   7 -15   22.65   40.39
  12  -7  15   19.51   89.92
  12  -7  15   -7.85   54.44
 -12   8 -15 -395.17  251.71
 -12   8 -15    2.93   43.08
  12  -8  15   -2.70   56.19
  12  -8  15   10.66   96.37
 -12   9 -15   15.41   44.46
 -12   9 -15  -11.21  247.78
  12  -9  15   13.88   57.65
  12  -9  15 -116.40   99.90
 -12  10 -15    3.38   47.24
 -12  10 -15 -401.40  255.65
  12 -10  15   29.25  108.43
 -12  11 -15 -240.63  259.26
  12 -11  15    4.46  115.31
  13   6 -15    3.07   61.42
  13   6 -15  -74.86  135.50
 -13  -6  15  -31.93  117.01
 -13  -6  15   -8.05   24.45
  13   5 -15   18.75   59.14
  13   5 -15   44.35  139.87
 -13  -5  15  -23.41   26.91
 -13  -5  15   92.36  103.84
  13   4 -15  -37.75   58.58
  13   4 -15  -25.00  150.05
 -13  -4  15  -50.98   24.96
 -13  -4  15  123.46  101.33
  13   3 -15  -14.50  156.44
  13   3 -15  -47.27   61.02
 -13  -3  15   57.30   93.66
 -13  -3  15    8.56   28.83
  13   2 -15 -167.54  166.43
  13   2 -15  -16.11   61.40
 -13  -2  15  -17.29   25.16
 -13  -2  15   94.50   89.89
  13   1 -15   82.24   66.71
  13   1 -15 -198.30  166.18
 -13  -1  15    8.91   30.27
 -13  -1  15 -148.67   87.05
  13   0 -15  164.69  159.67
  13   0 -15   31.85   65.94
 -13   0  15  -75.82   88.18
  13  -1 -15   62.68   70.34
  13  -1 -15 -157.55  159.63
 -13   1  15  134.08   85.55
  13  -2 -15  -22.26   69.01
  13  -2 -15    3.90  156.80
 -13   2  15   21.65   84.96
 -13   3 -15   -9.08   44.84
  13  -3  15   48.61   72.19
 -13   4 -15   28.87   41.92
 -13   4 -15  155.67  201.60
  13  -4  15   -5.45   72.34
  13  -4  15    8.91   65.20
 -13   5 -15   -2.84   41.29
 -13   5 -15   28.98  213.65
  13  -5  15   -2.74   60.01
  13  -5  15   97.25   78.14
 -13   6 -15 -129.26   44.82
 -13   6 -15  -41.84  235.31
  13  -6  15   21.36   84.15
  13  -6  15  -10.50   55.55
 -13   7 -15 -544.15  273.00
 -13   7 -15  -53.11   42.48
  13  -7  15  -19.99   93.17
  13  -7  15    2.67   59.06
 -13   8 -15 -296.86  269.04
 -13   8 -15   -3.05   43.36
  13  -8  15    3.65  103.07
  13  -8  15   27.29   55.75
 -13   9 -15   57.95   48.90
 -13   9 -15   85.26  271.42
  13  -9  15  116.75  109.64
  13  -9  15   22.71   61.10
 -13  10 -15  -63.06   49.59
 -13  10 -15   87.31  275.40
  13 -10  15    4.41  115.65
 -13  11 -15  -44.83  288.99
  13 -11  15    9.55  134.43
  14   7 -15   18.01  137.26
  14   6 -15  275.01  150.37
  14   6 -15 -124.16   63.64
 -14  -6  15   11.92   30.77
 -14  -6  15   45.44  124.79
  14   5 -15 -174.54  159.58
  14   5 -15   -3.42   64.29
 -14  -5  15  -11.64   27.38
 -14  -5  15   14.71  119.26
  14   4 -15  204.46   68.56
  14   4 -15   19.88  170.20
 -14  -4  15  -95.36  117.72
 -14  -4  15   32.17   32.27
  14   3 -15  127.39  172.41
  14   3 -15    7.01   63.58
 -14  -3  15  -31.58  107.97
 -14  -3  15   12.62   32.62
  14   2 -15   16.61  176.51
  14   2 -15   10.77   65.95
 -14  -2  15   -9.72   31.30
 -14  -2  15   48.43  102.21
  14   1 -15  -54.77  181.54
  14   1 -15  -45.80   71.48
 -14  -1  15   19.67   34.23
 -14  -1  15   -4.36   95.22
  14   0 -15   82.42   75.75
  14   0 -15  -12.75  184.34
 -14   0  15    4.43   99.60
  14  -1 -15   77.65   77.04
  14  -1 -15 -388.35  180.59
 -14   1  15   53.55   94.68
  14  -2 -15    4.06   73.24
  14  -2 -15  293.55  182.27
 -14   2  15  -89.17   99.69
  14  -3 -15    4.22  168.69
 -14  10 -15  -18.15   47.01
  15   7 -15   65.08   68.69
  15   7 -15   43.92  158.60
  15   6 -15  -47.45   68.93
  15   6 -15   32.17  155.64
 -15  -6  15  -27.46  137.72
 -15  -6  15   19.88   31.15
  15   5 -15  -20.94  165.07
  15   5 -15   11.17   72.32
 -15  -5  15  229.11  124.26
 -15  -5  15   -3.25   33.18
  15   4 -15 -180.08  180.11
  15   4 -15  210.03   71.78
 -15  -4  15 -140.47  120.44
 -15  -4  15    3.27   32.24
  15   3 -15   35.06  182.51
  15   3 -15  -96.93   76.24
 -15  -3  15  -30.15  122.59
 -15  -3  15    3.42   35.57
  15   2 -15 -193.18   73.30
  15   2 -15  -45.05  190.71
 -15  -2  15   14.44   36.33
 -15  -2  15   29.48  114.16
  15   1 -15   72.05   75.31
  15   1 -15  183.19  194.94
 -15  -1  15  -97.10  109.03
 -15  -1  15    3.66   35.90
  15   0 -15    4.35   75.50
  15   0 -15  -45.89  193.77
 -15   0  15   78.64  104.87
 -15   0  15  -33.88   40.65
  15  -1 -15   72.39   85.85
  15  -1 -15  -82.44  188.71
 -15   1  15  -44.31  105.51
  15  -2 -15    4.46   74.26
  15  -2 -15  308.52  188.64
 -15   2  15  -92.39  104.87
  15  -3 -15  169.11  189.72
  16   7 -15    3.93   72.75
  16   7 -15   97.47  170.11
  16   6 -15  -24.40   80.14
 -16  -6  15 -181.66  144.10
 -16  -6  15    3.69   37.01
 -16  -5  15   94.68  143.78
 -16  -5  15  -54.47   36.98
  16   4 -15 -110.83  196.84
  16   4 -15  175.56   86.84
 -16  -4  15   -7.25   38.11
 -16  -4  15   74.79  135.78
  16   3 -15  -38.39  204.94
  16   3 -15   83.44   80.10
 -16  -3  15  -15.15   36.48
 -16  -3  15   22.30  135.38
  16   2 -15   22.70   82.29
  16   2 -15  199.92  207.40
 -16  -2  15  -38.36  124.22
 -16  -2  15    8.07   39.05
  16   1 -15  248.13  212.89
  16   1 -15  126.71   90.96
 -16  -1  15   40.87   44.90
 -16  -1  15  113.52  127.56
  16   0 -15  -91.44   90.25
  16   0 -15  187.84  206.43
 -16   0  15  240.15  116.59
 -16   0  15  -57.97   45.03
  16  -1 -15  301.96  214.25
  16  -1 -15  149.85   93.80
 -16   1  15  -87.14  120.46
  16  -2 -15  -63.73   88.89
  16  -2 -15   29.75  206.64
 -16   2  15 -101.43  116.25
  16  -3 -15  -44.78  196.13
  17   7 -15  110.46   79.72
  17   7 -15 -280.48  192.42
 -17  -7  15    4.16   40.03
 -17  -7  15   73.70  168.17
  17   6 -15    4.95  190.88
  17   6 -15   26.35   82.44
 -17  -6  15  -12.34   39.72
 -17  -6  15 -227.65  161.32
  17   5 -15   54.55   88.44
  17   5 -15 -235.45  207.63
 -17  -5  15  -92.19  157.14
 -17  -5  15  -28.43   39.81
  17   4 -15    4.68   86.66
  17   4 -15  168.87  222.83
 -17  -4  15  108.27  158.65
 -17  -4  15   -4.04   38.40
  17   3 -15  -59.10  230.05
  17   3 -15   91.87   95.27
 -17  -3  15   -8.40   42.02
 -17  -3  15   99.36  149.21
  17   2 -15 -674.17  249.70
  17   2 -15   35.02   96.67
 -17  -2  15   44.30   47.81
 -17  -2  15   73.07  144.95
  17   1 -15 -342.02  101.23
 -17  -1  15 -210.63  146.74
 -17  -1  15  -77.37   51.16
  17   0 -15 -278.45  255.76
  17   0 -15   10.64  104.84
 -17   0  15  236.33  148.51
 -17   0  15   18.47   50.59
  17  -1 -15 -440.92  113.06
 -17   1  15 -308.03  140.83
 -17   1  15   52.22   52.09
 -17   2  15 -149.28  141.10
  17  -3 -15   86.14  220.21
 -17   3  15 -376.72  135.07
  18   7 -15    4.72   92.51
 -18  -7  15  -55.65   44.34
 -18  -7  15 -331.31  190.44
  18   6 -15    4.94   92.86
  18   6 -15  103.98  215.84
 -18  -6  15  -43.54  177.30
 -18  -6  15   18.33   44.81
  18   5 -15  185.90  225.22
  18   5 -15  -84.28   94.83
 -18  -5  15   35.76  174.61
 -18  -5  15  -18.16   47.74
  18   4 -15    5.10   94.55
  18   4 -15    5.77  238.09
 -18  -4  15 -153.44  174.10
 -18  -4  15  -35.99   44.43
  18   3 -15  259.96  103.87
  18   3 -15 -276.92  248.27
 -18  -3  15   91.30   52.97
 -18  -3  15  131.23  159.98
  18   2 -15  363.04  117.00
  18   2 -15  373.23  251.70
 -18  -2  15  169.29  166.78
  18   1 -15 -293.62  255.24
  18   1 -15    5.72  101.21
 -18  -1  15   13.42  147.85
 -18  -1  15   -5.09   53.69
  18   0 -15    5.87  107.46
  18   0 -15  208.37  251.38
 -18   0  15 -188.63  153.63
 -18   0  15  -46.32   53.40
  18  -1 -15  137.93  242.92
  18  -1 -15  127.33  112.34
 -18   1  15  127.63  143.04
 -18   1  15   63.09   58.38
  18  -2 -15    5.95  102.79
  18  -2 -15 -316.25  245.54
 -18   2  15 -213.59  145.73
 -18   3  15   71.67  152.40
   0   0  16 3607.91  811.71
   0   1 -16   12.89   89.71
   0  -1  16   12.20   37.15
   1   0  16  -11.36   72.83
   0  -1  16   12.62   59.25
  -1   0  16  -13.61   60.90
  -1   1 -16  739.92  177.68
   1   1 -16  575.71  174.18
   1  -1  16  381.17  150.09
  -1  -1  16  606.23  137.08
   1  -1  16  536.80  136.48
  -1  -1  16  596.65  147.18
   2   1 -16  117.47   88.23
  -1   2 -16  208.35   99.15
   2   1 -16  -17.57   51.20
  -2  -1  16   75.17   55.31
   1  -2  16   44.37   58.45
   1  -2  16   47.69   38.67
  -2  -1  16  -25.42   38.60
  -2   0 -16   -3.05   99.72
   0   2 -16   57.43   92.54
  -2   0  16   73.32   61.21
   2   0  16   88.27   80.03
   0  -2  16   70.06   39.50
   0  -2  16   33.46   59.12
   1   2 -16   25.18   88.08
  -2   1 -16    8.36  101.72
  -1  -2  16    5.24   57.08
   2  -1  16   -3.54   68.56
  -1  -2  16   -1.57   39.21
   2  -1  16   37.30   42.09
  -2   2 -16  108.25  103.81
   2   2 -16   35.35   88.55
  -2  -2  16  110.77   41.75
   2  -2  16   81.77   46.62
   2  -2  16   46.89   63.55
  -2  -2  16  117.28   54.16
  -2   3 -16  341.07  158.38
   3   2 -16  529.80  145.40
   3   2 -16  420.01  128.74
   2  -3  16  381.58  110.46
  -3  -2  16  476.52  114.92
   2  -3  16  553.99  116.07
  -3  -2  16  475.39  111.04
  -1   3 -16  135.72   97.29
   3   1 -16  -14.60   85.11
   1  -3  16  -16.99   42.46
  -3  -1  16   20.78   54.84
   1  -3  16   20.95   54.19
   0   3 -16    2.42   92.92
  -3   0 -16   40.93  106.81
  -3   0  16  -26.81   59.04
   3   0  16   29.65   83.75
   0  -3  16   35.66   38.24
   0  -3  16   -2.47   48.37
   1   3 -16   54.37   94.16
  -3   1 -16    8.74  108.10
  -1  -3  16   13.85   48.57
   3  -1  16   26.14   73.85
  -1  -3  16    7.75   37.65
   3  -1  16    5.82   42.73
  -3   2 -16  400.68  155.62
   2   3 -16  427.60  143.90
   3  -2  16  497.79  120.68
  -2  -3  16  350.82  105.54
   3  -2  16  314.47  106.24
  -2  -3  16  651.28  109.10
   3   3 -16  174.46   89.75
  -3   3 -16  108.65  112.77
   3  -3  16  148.96   59.93
  -3  -3  16   75.57   43.57
  -3  -3  16   65.33   42.92
   3  -3  16   24.36   51.74
   4   3 -16  -73.96   82.79
  -3   4 -16   -3.05  122.70
  -4  -3  16   18.58   39.24
   3  -4  16   -9.60   48.08
  -4  -3  16  -15.23   37.39
   3  -4  16   13.07   46.70
  -2   4 -16   14.59  116.40
   4   2 -16  -64.58   92.06
  -4  -2  16   16.08   46.39
  -4  -2  16    7.54   39.43
   2  -4  16  -19.83   51.02
   2  -4  16   -9.15   44.62
   4   1 -16  166.86   87.13
  -1   4 -16  193.98  121.85
   1  -4  16  177.73   64.05
   1  -4  16  275.34   64.75
  -4  -1  16   95.14   70.27
   4   0 -16  -30.05   63.85
  -4   0 -16  189.68  113.55
   0   4 -16   73.46  106.70
  -4   0  16   24.58   57.30
   0  -4  16   44.23   43.97
   0  -4  16    8.29   42.91
   1   4 -16  158.34  112.71
   1   4 -16  250.05   52.38
  -4   1 -16  412.51  124.96
  -1  -4  16  215.78   63.63
   4  -1  16  143.99   65.93
  -1  -4  16  180.41   61.80
   2   4 -16   29.90   97.68
   2   4 -16   -4.32   21.06
  -4   2 -16   61.71  112.43
   4  -2  16   23.43   44.49
  -2  -4  16   11.96   37.17
  -2  -4  16    3.63   36.82
   3   4 -16    1.30   18.89
  -4   3 -16  -57.03  119.99
   3   4 -16   42.84   95.41
  -3  -4  16    7.09   37.71
   4  -3  16  -29.55   48.22
  -3  -4  16   32.35   35.00
  -4   4 -16   -3.20  127.07
   4   4 -16  152.33   92.86
   4   4 -16   22.01   17.81
  -4  -4  16   14.27   30.34
   4  -4  16   -2.01   49.15
  -4  -4  16   18.95   36.89
  -4   5 -16  -46.74  134.80
  -4   5 -16   26.40   28.33
   4  -5  16   27.36   54.27
  -5  -4  16   36.63   29.92
  -5  -4  16   60.14   38.52
   5   3 -16   15.75   24.99
   5   3 -16  -14.17   18.01
  -3   5 -16  120.91  127.84
  -3   5 -16    9.67   27.01
   5   3 -16  -54.68   85.11
   5   3 -16  -10.94   64.94
   3  -5  16   23.07   48.49
   3  -5  16   42.17   48.66
  -5  -3  16   -7.18   33.74
  -5  -3  16    1.36   36.74
   5   2 -16  445.03  106.49
   5   2 -16  422.93  145.93
  -2   5 -16  392.08  101.57
  -2   5 -16  479.58  171.99
   5   2 -16  544.41  138.04
  -5  -2  16  504.30  117.08
  -5  -2  16  384.97  114.61
   2  -5  16  613.91  116.32
  -5  -2  16  426.43  113.46
   2  -5  16  424.94  109.86
   5   1 -16  -40.64   75.85
  -1   5 -16   43.55  113.71
  -1   5 -16  -15.53   24.80
   1  -5  16   -6.03   39.92
  -5  -1  16  -19.53   48.85
   1  -5  16  -29.42   46.60
  -5   0 -16  136.58  120.04
   5   0 -16  -14.64   74.25
   0   5 -16   19.55  111.00
   0   5 -16   -6.46   23.07
   5   0  16  -13.76   92.79
   0  -5  16  -17.03   38.65
   0  -5  16  -35.09   45.01
  -5   0  16    2.53   56.18
   1   5 -16    1.51   20.71
  -5   1 -16  -32.15  120.25
   1   5 -16   85.15  106.42
   5  -1  16   -2.12   50.41
  -1  -5  16   20.07   42.49
  -1  -5  16    5.30   34.81
   5  -1  16   28.55   72.95
   2   5 -16  444.08   93.93
  -5   2 -16  570.83  165.67
   2   5 -16  586.47  166.40
   5  -2  16  461.15  107.00
   5  -2  16  199.91  122.43
  -2  -5  16  383.45  109.06
  -2  -5  16  376.81  100.93
   3   5 -16   -2.56   18.31
  -5   3 -16  -22.09  128.43
   3   5 -16   91.98  104.98
  -3  -5  16  -18.02   41.58
  -3  -5  16   -4.40   31.55
   5  -3  16  -35.43   66.38
   5  -3  16    4.14   50.92
  -5   4 -16   50.34  134.24
   4   5 -16   62.47   20.24
   4   5 -16  118.53  104.51
   5  -4  16   43.14   57.68
  -4  -5  16   35.45   40.55
   5  -4  16   12.65   53.50
  -4  -5  16   18.53   30.59
  -5   5 -16 -122.91  143.56
  -5   5 -16   36.21   30.22
  -5  -5  16   -1.34   39.59
  -5  -5  16    8.73   28.50
   5  -5  16  -37.51   53.81
   5  -5  16  -12.67   50.40
  -5   6 -16  619.76  163.62
   5  -6  16 -183.84   58.56
   5  -6  16  -55.42   70.46
  -4   6 -16   10.12   27.48
  -4   6 -16 -101.13  142.74
   4  -6  16   17.82   46.20
   4  -6  16   53.03   59.20
   6   3 -16  115.78   43.08
   6   3 -16  185.19   84.46
  -3   6 -16  152.35   42.27
  -3   6 -16  100.75  136.30
  -6  -3  16  150.98   33.39
   3  -6  16  162.07   61.37
   3  -6  16  106.54   54.12
  -2   6 -16  206.19  138.14
   6   2 -16  129.37   40.51
  -2   6 -16   98.98   37.58
   6   2 -16   61.23   86.90
   2  -6  16  170.50   49.01
  -6  -2  16   87.96   48.72
   2  -6  16  170.91   58.82
  -1   6 -16   60.22  127.82
   6   1 -16  152.64   99.69
  -1   6 -16  176.46   43.37
  -6  -1  16  122.72   58.25
   1  -6  16  199.78   61.80
   1  -6  16  213.12   54.50
   0   6 -16   20.38  124.26
  -6   0 -16  146.75  132.44
   0   6 -16  101.78   28.50
   6   0 -16   49.57   87.40
   0  -6  16   36.96   50.50
   6   0  16   81.45   95.92
   0  -6  16   69.62   42.57
  -6   1 -16  128.59  131.43
   1   6 -16  153.80   37.85
   1   6 -16  106.89  120.15
   6  -1  16  225.96   91.34
  -1  -6  16  108.25   45.18
  -1  -6  16  116.98   55.34
   6  -1  16  121.62   60.23
  -6   2 -16  196.68  137.57
   2   6 -16  119.22  123.45
   2   6 -16   70.01   29.66
   6  -2  16   87.44   78.03
  -2  -6  16  147.44   39.10
  -2  -6  16   73.01   51.72
   6  -2  16   45.00   54.13
   3   6 -16  136.53   41.15
   3   6 -16  183.72  125.82
  -6   3 -16  199.18  139.67
  -3  -6  16  208.64   48.02
   6  -3  16  218.96   82.16
  -3  -6  16  135.69   58.81
   6  -3  16  205.49   66.63
   4   6 -16   37.94   20.12
   4   6 -16    2.44  114.73
  -6   4 -16    3.53  142.17
  -4  -6  16   44.59   42.62
   6  -4  16   28.71   56.07
  -4  -6  16    7.05   28.86
   6  -4  16   80.98   62.78
  -6   5 -16  138.27   39.22
   6  -5  16   11.60   67.02
   6  -5  16    2.64   56.44
  -6   6 -16   15.00  158.01
  -6   6 -16   79.90   34.89
   6  -6  16   21.90   66.19
   6  -6  16    2.43   52.63
  -6   7 -16  -41.22  152.63
   6  -7  16   -2.53   67.88
   6  -7  16   -2.30   42.18
  -5   7 -16 -184.18  153.87
   5  -7  16   23.96   63.79
  -4   7 -16 -227.43  150.95
  -4   7 -16   60.71   33.44
   4  -7  16   -2.25   58.62
   4  -7  16   -2.12   47.84
   7   3 -16  105.51   42.78
  -3   7 -16  160.14   41.83
  -3   7 -16    9.78  144.06
   7   3 -16  131.33   91.45
  -7  -3  16  133.41   54.31
  -7  -3  16  151.60   31.61
   3  -7  16  129.50   68.22
   3  -7  16   48.82   54.16
  -2   7 -16  189.20  135.51
  -2   7 -16   80.29   43.56
   7   2 -16  169.96   49.72
   7   2 -16  240.31  101.77
  -7  -2  16  169.97   59.59
   2  -7  16  212.80   64.38
   2  -7  16  181.37   55.68
  -1   7 -16  151.09   35.35
   7   1 -16   66.68   42.09
  -1   7 -16  -33.70  124.67
   7   1 -16  194.99  103.72
  -7  -1  16  131.35   52.92
   1  -7  16  198.48   56.94
   1  -7  16   76.72   44.33
   0   7 -16 -119.76  122.18
   7   0 -16   -4.60   93.86
   0   7 -16   12.23   24.86
  -7   0 -16   30.11  134.06
   7   0  16    9.76   94.91
   0  -7  16   12.55   35.68
   0  -7  16   -9.22   46.62
   7  -1 -16  166.31   96.82
   1   7 -16   59.83   31.35
  -7   1 -16  163.79  137.26
  -1  -7  16  106.39   50.15
   7  -1  16  102.36   59.71
  -1  -7  16   91.25   43.21
   7  -1  16  153.58   90.39
  -7   2 -16  294.65  141.27
   2   7 -16  167.95   43.85
  -2  -7  16  144.92   50.06
   7  -2  16  100.56   86.98
  -2  -7  16  220.54   60.45
   7  -2  16  175.14   68.60
   3   7 -16  176.57   41.54
  -7   3 -16  209.70  151.07
   7  -3  16  160.60   83.48
   7  -3  16  120.29   69.41
  -3  -7  16  204.41   46.96
  -3  -7  16   72.47   58.04
  -7   4 -16    7.37  160.47
   4   7 -16   65.81   28.95
   4   7 -16   69.87  123.22
  -4  -7  16  167.00   37.53
  -4  -7  16   80.90   48.85
   7  -4  16  111.51   65.48
   7  -4  16  113.76   65.83
  -7   5 -16   69.98  154.58
  -7   5 -16   97.93   38.15
   7  -5  16    2.44   66.90
   7  -5  16   41.24   59.90
  -7   6 -16   95.23   38.47
  -7   6 -16 -130.48  167.32
   7  -6  16  133.63   56.50
   7  -6  16   64.04   69.60
  -7   8 -16  -50.08   36.10
   7  -8  16   -2.77   54.44
   7  -8  16   -2.45   50.36
  -5   8 -16  -31.92  148.63
   5  -8  16  -19.24   65.16
   8   4 -16   68.98   88.57
   8   4 -16   87.18   33.46
  -4   8 -16    6.65   33.25
   4  -8  16   48.53   48.30
   4  -8  16    2.25   60.61
   8   3 -16   29.11   34.69
  -3   8 -16   63.69   32.38
   8   3 -16   62.48   97.49
   3  -8  16    2.12   53.66
  -8  -3  16   28.12   51.27
   3  -8  16    8.46   43.44
  -8  -3  16   57.85   18.41
  -2   8 -16  188.73   48.74
   8   2 -16  274.44  116.15
   8   2 -16  131.76   56.88
  -8  -2  16  119.29   69.31
   2  -8  16  172.58   66.26
   2  -8  16  253.00   59.50
   8   1 -16   19.14   38.56
  -1   8 -16   13.70   30.06
   8   1 -16   71.33  109.68
   1  -8  16   71.17   50.33
  -8  -1  16    2.35   50.32
   1  -8  16   -1.97   38.91
   0   8 -16   41.26   29.43
   8   0 -16  -66.48  112.40
  -8   0 -16   75.30  143.73
   0  -8  16   24.04   48.84
   8   0  16    5.05  100.54
  -8   0  16   31.56   54.89
   0  -8  16   91.95   39.50
   1   8 -16   27.03   25.04
   8  -1 -16  107.57  106.05
  -8   1 -16  176.49  146.81
  -1  -8  16   37.64   46.25
   8  -1  16    4.55   90.59
   8  -1  16   48.99   59.75
  -1  -8  16   16.36   35.74
  -8   2 -16   62.30  155.97
   2   8 -16  218.53   58.87
  -2  -8  16  347.33   73.29
  -2  -8  16  246.62   65.02
   8  -2  16  308.66  105.69
   8  -2  16  287.86   81.60
   3   8 -16   17.40   23.52
  -8   3 -16   36.75  149.61
  -3  -8  16   30.26   44.36
   8  -3  16  -46.18   73.36
   8  -3  16  -18.97   61.10
  -8   4 -16  108.01  160.65
  -8   4 -16   92.83   42.48
   8  -4  16   15.51   69.29
  -4  -8  16  120.10   51.63
   8  -4  16   63.43   66.00
  -8   5 -16  -40.69  170.22
  -8   5 -16   19.47   37.93
   8  -5  16 -111.99   68.00
   8  -5  16   60.77   58.68
  -8   6 -16   -4.21  173.31
  -8   7 -16   27.41   37.76
   8  -7  16  -98.64   49.05
  -8   8 -16   -2.61   38.46
  -8   8 -16 -365.24  184.56
   8  -8  16 -178.02   81.07
   8  -8  16   43.15   54.48
  -8   9 -16  362.70  184.59
  -8   9 -16   -2.73   35.23
   8  -9  16  140.26   82.43
   8  -9  16 -120.36   54.11
  -7   9 -16   31.87  165.74
  -7   9 -16    7.87   37.49
   7  -9  16    2.82   75.10
   7  -9  16   78.54   49.72
  -6   9 -16  -68.21   33.87
   6  -9  16   -4.90   50.85
   6  -9  16   13.02   67.02
   9   4 -16  -89.75  100.44
   9   4 -16   41.99   40.33
  -9  -4  16   -3.51   17.22
  -9  -4  16   15.21   62.06
   9   3 -16  226.72   64.26
   9   3 -16  269.25  121.31
  -9  -3  16  283.67   52.30
   3  -9  16   87.99   77.69
  -9  -3  16  172.45   80.81
   9   2 -16   36.15   39.95
  -2   9 -16  -61.39   30.80
   9   2 -16  -52.98  112.99
   2  -9  16   12.92   42.10
   2  -9  16  126.24   57.34
  -9  -2  16   12.36   56.78
   9   1 -16  112.59  119.57
  -1   9 -16   34.06   30.14
   9   1 -16   20.42   42.55
   1  -9  16  135.70   53.52
   1  -9  16   16.50   40.57
  -9  -1  16   20.80   56.49
   9   0 -16   28.35  117.93
   9   0 -16  -40.99   44.03
   0   9 -16   24.83   24.91
   9   0  16  -77.11  114.63
   0  -9  16  -64.32   37.90
  -9   0  16  -27.88   55.89
   0  -9  16   -1.95   50.32
   9  -1 -16  -22.74  114.18
  -9   1 -16  201.29  160.21
   1   9 -16   30.74   27.59
   9  -1  16   38.60   62.68
  -1  -9  16  -39.74   51.03
   9  -1  16   13.77   98.53
  -9   2 -16   50.48  153.44
   9  -2  16    4.04   82.11
  -2  -9  16  -38.48   48.46
   9  -2  16   89.23   63.97
  -9   3 -16  173.95  172.81
  -3  -9  16  319.73   72.53
   9  -3  16  145.65   82.09
   9  -3  16  205.96   95.08
  -9   4 -16   86.86   37.88
  -9   4 -16   -4.02  169.84
   9  -4  16   -2.56   64.95
   9  -4  16   22.38   67.31
  -4  -9  16   49.94   47.51
  -9   5 -16  286.94  188.20
   9  -5  16   -2.65   70.68
  -9   7 -16  158.47  196.51
  -9   7 -16   57.29   44.20
   9  -7  16   91.70   57.99
   9  -7  16  -53.91   80.80
  -9   8 -16  122.77  197.54
  -9   8 -16    8.16   38.43
   9  -8  16    2.62   54.09
   9  -8  16 -177.46   84.97
  -9   9 -16   28.53   40.71
  -9   9 -16  210.27  196.69
   9  -9  16  -62.01   54.92
   9  -9  16   -3.32   83.07
  -9  10 -16 -200.15  193.74
   9 -10  16  -99.12   59.29
   9 -10  16   30.98   94.14
  -8  10 -16   38.28   42.43
   8 -10  16    3.14   80.30
   8 -10  16   43.98   56.76
  -7  10 -16  -56.82   40.48
   7 -10  16   -2.92   74.76
   7 -10  16   21.34   54.68
  -6  10 -16   -2.74   39.20
   6 -10  16   -2.59   53.18
   6 -10  16 -115.41   74.07
   5 -10  16   -2.57   65.80
  -4  10 -16   56.60   40.92
  10   4 -16  105.43   48.70
  10   4 -16  228.35  111.69
 -10  -4  16  211.37   72.93
   4 -10  16    2.44   50.77
 -10  -4  16  108.64   27.33
   4 -10  16  -24.35   63.83
  -3  10 -16    2.50   33.31
  10   3 -16   -2.26   42.86
  10   3 -16  176.08  115.41
   3 -10  16    2.35   47.87
 -10  -3  16  -39.13   66.31
 -10  -3  16  -12.23   21.11
  10   2 -16   44.32   46.17
  10   2 -16  167.44  125.71
 -10  -2  16   63.01   25.61
 -10  -2  16   33.45   66.17
  10   1 -16  -32.78   51.76
  10   1 -16  142.76  139.73
 -10  -1  16  106.84   63.29
   1 -10  16   82.76   57.63
  10   0 -16    2.68   47.97
  10   0 -16  207.18  133.39
 -10   0  16   39.18   65.74
   0 -10  16   22.60   55.15
  10   0  16   51.94  107.35
 -10   1 -16  128.84  161.57
  10  -1 -16  -31.26  134.46
 -10   1  16   49.62   65.79
  -1 -10  16  237.84   55.89
  10  -1  16  -32.90  101.51
  10  -1  16   32.43   67.04
  10  -2 -16   98.60  120.13
 -10   2 -16  -81.79  168.72
  10  -2  16   24.90   89.20
  -2 -10  16   39.19   51.88
  10  -2  16    2.60   66.98
 -10   3 -16 -175.14  178.68
  10  -3  16  375.48   80.65
  -3 -10  16  -60.87   52.80
  10  -3  16  -36.10   63.99
 -10   6 -16   21.17   35.68
 -10   6 -16  764.49  208.77
  10  -6  16  -73.45   57.81
  10  -6  16  -11.77   78.72
 -10   7 -16  136.49  219.05
 -10   7 -16   59.87   40.62
  10  -7  16    7.88   57.46
  10  -7  16   21.95   84.54
 -10   8 -16  123.06  218.17
 -10   8 -16  -56.66   46.90
  10  -8  16   90.43   89.39
  10  -8  16    5.41   55.63
 -10   9 -16   19.91  212.14
 -10   9 -16   26.71   42.16
  10  -9  16  -88.77   61.49
  10  -9  16    7.13   94.66
 -10  10 -16   50.42  217.48
 -10  10 -16   -3.17   46.23
  10 -10  16   49.54   61.03
  10 -10  16  -93.49   98.23
 -10  11 -16    6.97   48.84
 -10  11 -16  159.84  230.26
  10 -11  16  -19.59  101.26
  -9  11 -16    3.37   49.95
   9 -11  16  -57.12   93.92
  -8  11 -16  -84.57   45.84
   8 -11  16   -3.30   83.68
  -7  11 -16  138.40   51.97
  -6  11 -16    3.05   41.36
   6 -11  16  -52.47   73.61
  11   5 -16    5.05   50.50
  11   5 -16  138.72  118.31
  11   4 -16 -230.82  132.15
  11   4 -16   17.50   49.13
 -11  -4  16   -4.36   23.51
 -11  -4  16  -19.72   74.49
  11   3 -16   20.55   51.26
  11   3 -16  327.72  143.91
 -11  -3  16  -23.06   23.19
 -11  -3  16  129.68   79.03
  11   2 -16  -78.10  145.73
  11   2 -16   73.93   51.61
 -11  -2  16   23.48   23.91
 -11  -2  16  -50.14   76.86
 -11  -1  16   22.41   71.50
  11   0 -16 -107.70   52.28
  11   0  16  226.59  112.27
 -11   0  16  -42.70   72.42
 -11   1 -16  -48.28  175.11
  11  -1 -16   39.37   54.09
  11  -1  16   -4.67   84.52
  11  -1  16   28.43   70.73
 -11   1  16  -52.97   69.61
 -11   2 -16  -47.38  174.86
  11  -2  16    8.16   68.46
 -11   4 -16   37.52   43.04
  11  -4  16   -3.26   73.92
 -11   5 -16  818.71  203.21
 -11   5 -16  -66.93   42.32
  11  -5  16    3.00   63.03
  11  -5  16  -60.35   76.04
 -11   6 -16 -308.64  216.75
 -11   6 -16   25.08   42.86
  11  -6  16   15.22   80.31
  11  -6  16  -69.71   60.35
 -11   7 -16  150.96  220.87
 -11   7 -16   -2.85   42.87
  11  -7  16  -29.52   93.86
  11  -7  16   62.24   57.26
 -11   8 -16  -89.29   43.19
 -11   8 -16  132.99  229.09
  11  -8  16    3.54   94.38
  11  -8  16   24.91   58.04
 -11   9 -16  145.28  237.85
 -11   9 -16    3.09   45.32
  11  -9  16   82.75   59.66
  11  -9  16   41.87  101.02
 -11  10 -16 -235.08  234.95
 -11  10 -16    3.30   49.55
  11 -10  16 -101.84   62.69
  11 -10  16   56.59  110.01
 -11  11 -16 -262.88  254.26
  11 -11  16    4.26  113.83
  12   5 -16   34.19  127.25
 -12  -5  16   -2.36   23.16
  12   2 -16   10.71  155.46
  12   1 -16  243.35  168.76
  12   0 -16   22.53  156.97
  12  -1 -16   40.93  153.08
  12  -1 -16   23.20   63.17
 -12   1  16   83.94   78.70
  12  -2 -16 -316.09  154.88
  12  -3  16   14.55   77.36
 -12   4 -16    3.00   44.55
 -12   4 -16  -64.52  196.67
  12  -4  16  -46.33   71.65
  12  -4  16   11.24   72.90
 -12   5 -16   58.25  211.10
 -12   5 -16   14.65   42.12
  12  -5  16    2.99   63.08
  12  -5  16    2.97   79.74
 -12   6 -16   93.03   46.13
 -12   6 -16  283.49  238.65
  12  -6  16   59.78   64.36
  12  -6  16   15.68   84.73
 -12   7 -16  -17.83   45.99
 -12   7 -16  200.41  250.46
  12  -7  16   68.13   90.36
  12  -7  16   44.44   60.05
 -12   8 -16    3.09   46.42
 -12   8 -16 -334.43  269.50
  12  -8  16  -18.44   98.99
  12  -8  16 -164.71   61.70
 -12   9 -16 -247.38  259.92
 -12   9 -16   -3.22   44.74
  12  -9  16   29.27   60.86
  12  -9  16  -48.01  109.11
 -12  10 -16   37.84   45.51
 -12  10 -16  255.80  263.98
  12 -10  16 -138.38  115.84
  12 -10  16  -12.29   64.86
 -12  11 -16 -139.86  263.25
  12 -11  16    4.64  121.13
  13   5 -16    9.36   59.30
  13   5 -16  -86.67  138.32
 -13  -5  16   -7.90   24.99
 -13  -5  16  106.92  105.88
  13   4 -16  290.63  155.78
  13   4 -16    6.46   58.71
 -13  -4  16   35.45   30.86
 -13  -4  16    8.29   96.36
  13   3 -16  193.80  161.46
  13   3 -16  -39.15   60.50
 -13  -3  16  -64.21   30.74
 -13  -3  16  -68.05   96.20
  13   2 -16  160.55  164.87
  13   2 -16 -127.16   62.10
 -13  -2  16    3.94   87.68
 -13  -2  16   29.48   29.37
  13   1 -16    3.46   61.45
  13   1 -16  100.09  169.35
 -13  -1  16    9.13   33.37
 -13  -1  16   43.40   87.14
  13   0 -16 -214.14  166.84
  13   0 -16    3.59   65.58
 -13   0  16 -155.46   85.80
  13   0  16  116.47  105.74
  13  -1 -16    3.66   63.58
  13  -1 -16  -60.88  172.61
  13  -1  16   50.82  103.13
 -13   1  16  -54.17   87.91
 -13   2 -16  557.26  187.58
  13  -2 -16 -184.56  165.52
  13  -2  16   24.64   85.51
  13  -2  16  122.70   72.63
 -13   2  16  -26.69   88.66
 -13   3 -16   23.71  196.98
 -13   3 -16   -9.77   52.17
  13  -3  16   -3.66   78.77
  13  -3  16   14.28   78.43
 -13   4 -16 -115.79  209.53
 -13   4 -16  -12.46   46.04
  13  -4  16   16.21   72.16
  13  -4  16  115.49   73.73
 -13   5 -16  -18.33   48.13
 -13   5 -16 -308.48  221.78
  13  -5  16   36.31   81.22
  13  -5  16    3.03   63.86
 -13   6 -16 1336.33  292.82
  13  -6  16  348.85  114.51
  13  -6  16  126.74   91.49
 -13   7 -16 -140.14  251.59
 -13   7 -16    3.13   45.84
  13  -7  16   73.15   95.47
  13  -7  16   79.51   60.08
 -13   8 -16   30.87  278.48
 -13   8 -16  -61.08   48.62
  13  -8  16    3.82  100.99
  13  -8  16   37.72   58.16
 -13   9 -16  280.78  283.47
 -13   9 -16   40.11   49.95
  13  -9  16  104.12  115.15
  13  -9  16   11.99   60.96
 -13  10 -16 -101.79   52.71
 -13  10 -16    6.52  286.19
  13 -10  16   45.42  125.41
  13 -10  16    3.12   62.53
 -13  11 -16  186.98  295.15
  13 -11  16    9.87  134.74
  14   5 -16   39.20   66.48
  14   5 -16  111.79  159.35
 -14  -5  16  -17.65   28.63
 -14  -5  16  -81.07  113.20
  14   4 -16   17.92   72.67
  14   4 -16    4.05  170.50
 -14  -4  16   77.18   32.05
 -14  -4  16  -55.46  112.15
  14   3 -16   97.95  177.71
  14   3 -16    3.64   71.07
 -14  -3  16  143.48  106.74
 -14  -3  16   22.58   32.42
  14   2 -16 -138.35   75.59
  14   2 -16  -55.55  189.27
 -14  -2  16  -96.87  102.01
 -14  -2  16  -19.86   33.81
  14   1 -16 -258.30   70.74
 -14  -1  16   43.65   34.98
 -14  -1  16   21.97   98.96
  14   0 -16 -231.87  194.61
  14   0 -16   23.89   76.10
 -14   0  16  -97.15   98.92
  14  -1 -16    4.07   73.06
  14  -1 -16 -417.18  190.55
 -14   1  16  -82.40  101.73
  14  -2 -16   26.25  181.68
 -14   2  16  -77.48   98.41
 -14   7 -16    3.26   45.39
 -14   8 -16  -92.96   46.54
 -14   9 -16  521.96  324.50
 -14  10 -16   85.18  323.25
 -14  10 -16 -147.21   56.03
  14 -10  16  -75.68  129.06
 -14  11 -16 -639.16  321.61
  14 -11  16   51.58  139.49
  15   6 -16  231.47  170.55
  15   5 -16   89.36   74.48
  15   5 -16 -123.46  176.49
 -15  -5  16   -3.29   34.05
 -15  -5  16  -85.09  134.42
  15   4 -16  260.24  190.45
  15   4 -16    3.95   76.17
 -15  -4  16  246.67  125.87
 -15  -4  16   43.10   37.30
  15   3 -16  328.54  189.80
  15   3 -16  -56.71   77.25
 -15  -3  16   41.91   35.82
 -15  -3  16  -70.04  113.23
  15   2 -16 -231.67  200.04
  15   2 -16   20.80   83.05
 -15  -2  16  -53.99  113.02
 -15  -2  16  -22.13   36.84
  15   1 -16 -205.92   76.72
  15   1 -16 -108.26  200.13
 -15  -1  16  -48.90  109.26
 -15  -1  16   22.46   38.16
  15   0 -16 -235.74  194.80
  15   0 -16  -88.30   81.26
 -15   0  16   15.42   37.39
 -15   0  16  143.13  107.00
  15  -1 -16   28.24  207.29
  15  -1 -16   -4.51   82.69
 -15   1  16   80.63  106.91
  15  -2 -16  -14.13  191.16
 -15   2  16   15.85  107.89
  16   6 -16   81.95   80.49
  16   6 -16 -220.96  184.53
 -16  -5  16 -173.77  143.24
 -16  -5  16  -33.08   38.46
  16   4 -16 -333.79   96.69
 -16  -4  16  -28.58  141.89
 -16  -4  16  -47.93   40.33
  16   3 -16 -294.52  206.38
  16   3 -16   -4.48   85.33
 -16  -3  16  -61.81   38.48
 -16  -3  16 -200.61  131.90
  16   2 -16  129.00   90.74
  16   2 -16 -235.36  212.58
 -16  -2  16   94.91   47.12
 -16  -2  16   60.11  123.35
  16   1 -16 -229.42  220.91
  16   1 -16    4.75   89.78
 -16  -1  16  -29.01   44.50
 -16  -1  16  217.93  121.68
  16   0 -16 -336.73  213.21
  16   0 -16   73.38   91.36
 -16   0  16   32.61  119.53
 -16   0  16    8.47   42.94
  16  -1 -16   24.94   90.85
  16  -1 -16   60.94  220.18
 -16   1  16  100.13  119.74
  16  -2 -16 -198.43  211.42
  16  -2 -16  -84.53   92.41
 -16   2  16   17.39  118.75
  17   6 -16   82.79   87.42
  17   6 -16   -5.01  197.05
  17   5 -16  -15.62  210.43
  17   5 -16 -250.54   94.04
 -17  -5  16   -4.10   41.74
 -17  -5  16   25.55  160.67
  17   4 -16  -94.99   89.90
  17   4 -16  204.85  226.88
 -17  -4  16   32.86   41.29
 -17  -4  16    6.23  150.79
  17   3 -16  197.45  234.60
  17   3 -16    4.92   90.89
 -17  -3  16  -38.51   44.26
 -17  -3  16 -128.71  140.02
  17   2 -16   86.40  228.15
  17   2 -16   55.98   91.93
 -17  -2  16   36.24   47.74
 -17  -2  16   96.83  142.78
  17   1 -16  136.59   98.87
  17   1 -16   -5.49  234.39
 -17  -1  16 -248.99  135.54
 -17  -1  16   -4.64   48.14
  17   0 -16   10.84  101.72
  17   0 -16   32.93  236.08
 -17   0  16   23.55   48.23
 -17   0  16   90.56  132.44
  17  -1 -16 -240.46  233.89
  17  -1 -16   -5.51   98.68
 -17   1  16    9.70   49.97
 -17   1  16   -6.16  130.35
  17  -2 -16  207.50  237.25
  17  -2 -16  -16.43   96.42
 -17   2  16  -89.32  128.90
  18   6 -16  -44.59   91.58
 -18  -6  16  -27.74   46.26
 -18  -6  16  187.42  172.26
  18   5 -16   72.00   95.12
  18   5 -16 -378.72  237.37
 -18  -5  16  -18.36   47.11
 -18  -5  16  168.91  161.12
  18   4 -16   48.04  105.85
  18   4 -16  601.04  248.32
 -18  -4  16  138.01  171.84
 -18  -4  16    9.13   48.34
  18   3 -16  189.26  105.55
  18   3 -16 -481.91  263.90
 -18  -3  16  -13.92   43.91
 -18  -3  16   61.42  158.37
  18   2 -16 -173.45  107.10
  18   2 -16   29.42  246.40
 -18  -2  16  -53.93  155.85
 -18  -2  16  -63.49   48.65
  18   1 -16   75.20  104.47
  18   1 -16  -88.71  251.05
 -18  -1  16  -41.56   53.86
 -18  -1  16   61.01  147.80
  18   0 -16   65.26  246.43
  18   0 -16  -77.83  108.35
 -18   0  16   94.05  143.98
 -18   0  16  -15.64   56.01
  18  -1 -16   -6.07  107.47
  18  -1 -16    5.88  249.31
 -18   1  16 -431.43  156.19
 -18   1  16  -32.01   51.31
  18  -2 -16   24.16  105.66
 -18   2  16   56.63  145.93
   0   0  17    3.81   68.26
   0   1 -17 1465.02  396.12
   1   0  17 1322.18  360.94
   0  -1  17 1766.50  358.83
  -1   0  17 1635.59  359.23
   1   1 -17  -26.79  100.23
  -1   1 -17 -122.92  104.32
   1  -1  17   80.87   43.81
  -1  -1  17  -38.37   65.22
  -1  -1  17    7.40   42.49
   1  -1  17    3.59   72.84
   2   1 -17   13.21   90.44
  -1   2 -17    5.41  100.07
   1  -2  17   49.15   40.46
   1  -2  17  -25.57   61.60
  -2  -1  17  -21.06   59.33
   0   2 -17 -116.21   99.19
   0  -2  17   -3.02   60.24
   0  -2  17  -29.90   41.24
  -2   0  17   -3.37   65.51
   2   0  17   -4.28   76.96
   1   2 -17   57.14   94.48
  -2   1 -17 -139.67  110.90
   2  -1  17   -1.99   44.20
  -1  -2  17   35.93   41.01
   2  -1  17  -37.91   75.93
  -1  -2  17   39.86   57.13
   2   2 -17  -28.68   93.99
  -2   2 -17  -93.61  109.05
  -2  -2  17   13.45   40.78
   2  -2  17   23.62   67.10
  -2  -2  17   13.34   58.20
   2  -2  17   36.00   46.00
  -2   3 -17  452.10  132.01
   3   2 -17  102.06  113.00
  -3  -2  17  262.82   78.21
  -3  -2  17  109.01   70.14
   2  -3  17  365.89   74.54
   2  -3  17  366.83   85.81
  -1   3 -17    8.14  113.67
   1  -3  17  140.06   53.15
   1  -3  17  108.20   61.93
  -3  -1  17  209.05   67.89
  -3   0 -17    6.70  107.06
   0   3 -17  148.68  104.80
  -3   0  17   59.96   64.91
   3   0  17  112.85   91.88
   0  -3  17  125.31   48.63
   0  -3  17   53.74   58.44
   1   3 -17  223.01  104.39
  -3   1 -17    6.20  116.03
  -1  -3  17  143.48   52.47
   3  -1  17  163.93   87.01
   3  -1  17  146.28   57.43
  -1  -3  17  186.79   62.89
  -3   2 -17  369.86  132.22
   2   3 -17  265.35  114.81
  -2  -3  17  199.28   72.28
   3  -2  17  245.24   91.41
   3  -2  17  235.65   73.22
  -2  -3  17  222.04   69.65
  -3   3 -17  117.66  114.71
   3   3 -17    2.17   88.39
  -3  -3  17   21.72   42.82
   3  -3  17   50.66   62.32
   3  -3  17  -13.97   48.67
  -3  -3  17   40.26   46.64
  -3   4 -17  103.43  129.84
   4   3 -17   74.54   93.03
  -4  -3  17   88.33   44.54
   3  -4  17   65.23   53.81
  -4  -3  17   51.40   43.68
   3  -4  17   91.10   60.17
  -2   4 -17  455.43  182.11
   4   2 -17  577.17  156.24
   2  -4  17  405.19  122.78
  -4  -2  17  520.50  124.47
   2  -4  17  484.32  121.64
  -4  -2  17  512.03  122.00
   4   1 -17  163.23   76.56
  -1   4 -17   46.77  118.71
   1  -4  17   51.04   53.16
   1  -4  17   53.79   49.08
  -4  -1  17   51.89   54.90
   4   0 -17   33.41   69.94
   0   4 -17 -108.00  113.04
  -4   0 -17 -135.46  119.35
   0  -4  17  -26.39   50.42
   0  -4  17   -8.84   46.06
  -4   0  17  -70.75   61.35
   1   4 -17    5.23  111.89
  -4   1 -17   77.97  118.66
  -1  -4  17   52.21   45.07
   4  -1  17   51.51   49.08
  -1  -4  17   40.86   44.55
   2   4 -17  356.19  163.83
   2   4 -17  446.27  101.30
  -4   2 -17  464.71  167.85
   4  -2  17  493.37  112.69
  -2  -4  17  447.94  110.65
  -2  -4  17  453.30  113.26
   3   4 -17   93.19  102.83
  -4   3 -17   41.24  124.29
   3   4 -17   95.11   28.34
  -3  -4  17   41.61   44.83
   4  -3  17   83.77   52.77
  -3  -4  17  138.42   44.76
  -4   4 -17 -118.73  138.35
   4   4 -17  -20.99   94.22
   4   4 -17  -10.24   19.08
  -4  -4  17   10.99   34.41
   4  -4  17   -8.97   58.24
   4  -4  17  -53.38   55.07
  -4  -4  17  -32.69   41.09
  -4   5 -17  273.74  147.40
  -4   5 -17   -2.19   32.37
   4  -5  17   -7.87   55.71
   4  -5  17  -22.36   54.37
  -3   5 -17   20.38  150.76
  -3   5 -17  179.67   63.05
   3  -5  17  362.40   73.87
   3  -5  17  366.67   81.16
  -5  -3  17  244.58   73.83
  -5  -3  17  237.82   69.74
  -2   5 -17   11.92   26.00
  -2   5 -17  183.14  137.36
   2  -5  17   46.84   48.64
  -5  -2  17   -9.79   42.29
   2  -5  17   18.99   50.59
   5   1 -17  242.96  102.17
  -1   5 -17   78.21  142.21
  -1   5 -17  236.16   54.04
  -5  -1  17  146.21   75.26
   1  -5  17  265.15   67.58
   1  -5  17  220.19   71.12
   0   5 -17   28.10   23.51
  -5   0 -17    3.62  121.38
   5   0 -17  -15.40   80.89
   0   5 -17  -86.68  124.65
   0  -5  17   28.74   42.09
   5   0  17  -24.42   95.55
  -5   0  17   -5.48   60.35
   0  -5  17   31.65   46.71
   1   5 -17  142.17   52.65
   1   5 -17  309.87  135.87
  -5   1 -17   71.53  134.17
  -1  -5  17  255.80   64.21
   5  -1  17  287.22   72.62
   5  -1  17   52.36  100.46
  -1  -5  17  337.35   70.14
   2   5 -17   39.27   22.56
   2   5 -17  -59.20  115.62
  -5   2 -17  -76.11  123.34
  -2  -5  17    8.45   45.32
   5  -2  17   46.99   72.07
  -2  -5  17  -23.24   38.03
   5  -2  17   71.59   54.39
  -5   3 -17  260.54  149.77
   3   5 -17  289.17   61.41
   3   5 -17  170.61  133.09
   5  -3  17  259.21   80.44
  -3  -5  17  249.14   75.68
   5  -3  17  142.92   95.33
  -3  -5  17  329.29   68.26
   4   5 -17   57.02   20.21
   4   5 -17  -56.02  108.45
  -5   4 -17   56.63  144.96
   5  -4  17  -34.34   66.59
   5  -4  17  -65.07   56.28
  -4  -5  17   20.54   33.52
  -4  -5  17   15.25   41.85
  -5   5 -17 1324.58  323.40
  -5   6 -17 -318.28  157.35
   5  -6  17   -2.44   66.38
  -4   6 -17  -23.68   34.71
   4  -6  17 -201.38   55.78
  -3   6 -17  -78.52   37.58
   3  -6  17 -100.64   61.66
   6   2 -17  307.35  118.79
  -2   6 -17  384.54  165.74
   6   2 -17  233.22   78.57
  -2   6 -17  324.03   76.33
   2  -6  17  392.43   84.88
   2  -6  17  453.14   93.14
  -1   6 -17   -7.44   26.08
  -1   6 -17   61.34  132.88
   6   1 -17   44.10   93.58
   1  -6  17    2.07   42.97
   1  -6  17  -22.59   54.29
  -6   0 -17   15.15  130.60
   0   6 -17   -8.73   24.98
   6   0 -17  -30.32   89.80
   0   6 -17 -171.54  137.51
   0  -6  17    1.92   38.51
   0  -6  17   29.55   50.42
   6   0  17  -71.44   99.02
   1   6 -17   -9.87   25.13
  -6   1 -17   10.74  131.32
   1   6 -17   81.22  126.25
  -1  -6  17  -30.23   48.52
   6  -1  17   23.52   55.56
  -1  -6  17   34.33   36.68
   6  -1  17    4.57   91.42
   2   6 -17  176.07  145.15
   2   6 -17  281.77   61.41
  -6   2 -17  439.36  154.74
  -2  -6  17  248.45   68.76
   6  -2  17  335.71  104.25
   6  -2  17  159.35   81.39
  -2  -6  17  228.06   80.60
   3   6 -17 -216.73  117.73
   3   6 -17   12.97   21.05
  -3  -6  17  -12.01   47.14
  -3  -6  17   10.95   32.94
   6  -3  17  -91.96   63.86
   6  -3  17  -76.55   83.40
   4   6 -17   47.47   22.70
   4   6 -17   61.96  120.47
  -6   4 -17 -247.90  163.62
   6  -4  17   55.42   74.16
   6  -4  17  -77.79   72.10
  -4  -6  17  142.95   35.27
  -4  -6  17   87.91   48.30
  -6   5 -17  -26.43   35.22
  -6   5 -17  -54.85  163.93
   6  -5  17   31.92   64.13
   6  -5  17   -2.86   57.95
  -6   6 -17   84.88   43.67
  -6   6 -17   19.95  171.89
   6  -6  17  388.57   63.19
   6  -6  17    2.56   72.58
  -5   7 -17 -129.44  160.25
   5  -7  17    2.53   67.36
  -4   7 -17    2.20   33.49
  -4   7 -17  454.46  155.45
   4  -7  17   74.25   49.41
   4  -7  17   45.68   62.79
  -3   7 -17  348.15   55.53
  -3   7 -17  199.00  161.74
   3  -7  17    4.59   78.95
   3  -7  17  142.92   65.66
  -2   7 -17   -4.04   29.42
   7   2 -17   43.92   34.14
   7   2 -17  102.81   95.88
   2  -7  17  -70.37   44.08
   2  -7  17  -85.31   60.87
  -7  -2  17    4.08   42.07
  -1   7 -17  165.49   43.02
   7   1 -17  205.27  110.95
   1  -7  17  129.71   63.61
  -7  -1  17   34.94   57.49
   1  -7  17  144.30   51.10
   7   0 -17  222.96  114.15
  -7   0 -17  576.02  151.93
   0   7 -17  151.51   43.05
   0  -7  17   34.18   63.25
   0  -7  17   64.36   51.15
   7   0  17  239.21  117.40
   1   7 -17  378.12  147.97
  -7   1 -17  244.61  151.20
   1   7 -17   83.62   36.41
   7  -1 -17  214.79  107.16
  -1  -7  17   73.51   59.97
   7  -1  17   74.02   65.75
   7  -1  17   89.33   98.54
  -1  -7  17  103.18   46.95
   2   7 -17    3.07  130.04
  -7   2 -17  -92.25  151.86
   2   7 -17   11.51   23.51
   7  -2  17   11.94   60.80
  -2  -7  17   24.17   35.34
  -2  -7  17   37.31   49.32
   7  -2  17    4.17   85.67
  -7   3 -17  236.22  155.55
   3   7 -17  214.91   53.68
   3   7 -17  270.72  152.47
  -3  -7  17  280.54   61.92
   7  -3  17  251.39   97.96
  -3  -7  17  244.50   73.81
   7  -3  17   69.46   80.45
   4   7 -17  -19.95  125.90
  -7   4 -17   27.05  164.10
   4   7 -17   37.09   22.70
   7  -4  17   42.10   66.96
   7  -4  17   30.47   72.08
  -4  -7  17   73.21   34.37
  -4  -7  17  -48.40   50.41
  -7   5 -17   50.20   37.46
  -7   5 -17  -97.83  176.56
   7  -5  17    2.97   59.14
   7  -5  17    5.13   66.55
  -7   7 -17  -77.60   37.28
   7  -7  17   -2.61   49.26
  -7   8 -17  -75.93  172.78
  -7   8 -17   31.52   36.70
   7  -8  17   46.71   76.80
   7  -8  17   -2.59   55.73
  -6   8 -17  -90.73   33.30
   6  -8  17   -2.50   52.67
   6  -8  17   -2.75   67.99
  -4   8 -17   -7.24  147.47
   4  -8  17    7.21   63.98
  -3   8 -17  -69.16   34.61
   8   3 -17  141.45  104.02
  -3   8 -17    3.49  144.28
   8   3 -17   42.17   35.42
   3  -8  17    4.58   59.58
   3  -8  17  281.35   47.72
   8   2 -17  190.95  113.59
  -2   8 -17   -3.39  145.18
  -2   8 -17   79.01   30.29
   8   2 -17   71.91   42.19
  -8  -2  17   54.48   54.23
   2  -8  17  125.65   56.03
   2  -8  17   27.95   47.19
   8   1 -17   14.73   36.36
  -1   8 -17   -4.11   28.50
   8   1 -17  -52.48  116.46
   1  -8  17  -45.31   41.62
   1  -8  17   -2.07   54.53
  -8  -1  17  -31.98   53.14
   8   0 -17   58.63  114.74
   0   8 -17  -23.44   27.72
   8   0  17   53.90  114.04
   0  -8  17   17.85   39.18
   0  -8  17   13.93   50.87
   1   8 -17   40.98   27.13
   8  -1 -17   64.08  104.51
  -8   1 -17  118.41  151.20
  -1  -8  17   28.84   51.04
  -1  -8  17   17.01   38.39
   8  -1  17  113.86   63.55
   8  -1  17    9.76  102.30
  -8   2 -17   54.50  153.77
   2   8 -17   44.56   26.32
  -2  -8  17   -1.86   52.98
   8  -2  17   32.52   64.10
  -2  -8  17   49.53   35.72
   8  -2  17   38.94   94.50
   3   8 -17   34.57   27.01
  -8   3 -17  -42.66  164.36
  -3  -8  17   82.89   47.89
   8  -3  17    3.85   80.11
   8  -3  17  -15.04   62.67
  -3  -8  17   60.22   33.95
  -8   4 -17 -237.68  167.05
   4   8 -17    5.15   22.93
   8  -4  17  178.70   69.30
  -4  -8  17    3.48   47.60
   8  -4  17  137.61   69.36
  -8   6 -17   -2.59   38.89
   8  -6  17   -2.81   61.00
  -8   7 -17   39.21   38.79
  -8   7 -17   58.33  192.89
   8  -7  17  -14.85   81.12
   8  -7  17   45.99   57.83
  -8   8 -17   67.14  192.92
  -8   8 -17    5.48   41.79
   8  -8  17 -226.96   82.82
   8  -8  17 -144.59   57.92
  -8   9 -17   76.12  190.98
  -8   9 -17   83.15   43.27
   8  -9  17   -2.77   57.20
   8  -9  17  -67.71   84.26
  -7   9 -17    2.76   36.57
  -7   9 -17  -29.48  179.39
   7  -9  17   -2.68   55.66
   7  -9  17   20.87   79.36
  -6   9 -17    2.65   35.22
  -6   9 -17 -139.14  171.14
   6  -9  17  -47.20   72.43
   6  -9  17    2.59   54.10
  -5   9 -17 -245.59  154.91
   5  -9  17   51.55   67.66
  -4   9 -17   22.02   34.62
   4  -9  17    7.18   51.22
   9   3 -17   35.15  111.14
   9   3 -17   80.67   41.56
  -9  -3  17   41.91   21.84
   9   2 -17  216.08  121.61
   9   2 -17   55.36   41.25
   2  -9  17   65.47   57.30
  -9  -2  17   30.15   53.08
   9   1 -17  -16.48   42.45
   9   1 -17    2.92  126.81
  -1   9 -17  -10.93   33.07
   1  -9  17  229.51   43.79
  -9  -1  17   23.77   56.83
   1  -9  17   14.61   52.77
   9   0 -17   58.87  123.18
   0   9 -17   25.37   30.98
   0  -9  17 -103.17   54.87
  -9   0  17   -5.86   59.28
   0  -9  17   16.60   41.12
   9   0  17   60.39  113.97
  -9   1 -17   58.11  153.50
   9  -1 -17 -100.44  120.02
   1   9 -17   18.46   28.51
  -1  -9  17  -12.16   41.24
   9  -1  17   98.58  105.63
  -1  -9  17    1.99   50.82
   9  -1  17   27.11   69.99
  -9   2 -17  118.69  165.87
   2   9 -17   83.18   32.22
   9  -2  17   28.93   68.28
   9  -2  17  -31.28   94.57
  -2  -9  17   67.42   53.61
  -9   3 -17  151.15  172.28
  -3  -9  17   54.21   52.64
   9  -3  17    2.62   63.33
  -4  -9  17  192.00   65.39
  -9   5 -17   -2.73   41.99
   9  -5  17   -3.19   69.38
  -9   6 -17  311.22  200.07
  -9   6 -17    2.71   42.31
   9  -6  17 -302.24   82.28
   9  -6  17 -116.16   63.57
  -9   7 -17  -86.44  208.13
  -9   7 -17   19.11   42.53
   9  -7  17   46.30   56.60
   9  -7  17   -6.24   83.62
  -9   8 -17  -28.61   43.12
  -9   8 -17 -288.67  210.18
   9  -8  17   32.90   87.57
   9  -8  17  -80.19   56.57
  -9   9 -17 -299.81  206.62
  -9   9 -17   -2.98   42.85
   9  -9  17  102.76   60.58
   9  -9  17  -48.46   93.74
  -9  10 -17  292.71  212.05
  -9  10 -17  -81.87   41.83
   9 -10  17   35.99   93.72
   9 -10  17    2.93   58.23
  -8  10 -17 -231.48  187.70
  -8  10 -17  -15.16   45.76
   8 -10  17    3.32   86.54
   8 -10  17    8.54   57.63
  -7  10 -17  -72.31  185.50
  -7  10 -17   17.53   41.49
   7 -10  17    3.04   80.06
   7 -10  17    2.76   56.48
  -6  10 -17  -50.76   39.98
   6 -10  17    2.82   70.56
   6 -10  17  -13.38   51.88
   5 -10  17    2.65   66.23
  -4  10 -17    5.29   37.48
   4 -10  17    2.48   59.21
   4 -10  17    2.52   50.67
  10   3 -17   55.55   46.93
  -3  10 -17   53.75   36.97
  10   3 -17  251.27  126.01
 -10  -3  17   70.70   26.04
   3 -10  17  -88.79   65.04
   3 -10  17   31.79   50.68
 -10  -3  17  124.15   69.26
  -2  10 -17   29.82   34.51
  10   2 -17   96.49   45.73
  10   2 -17  -18.19  130.86
 -10  -2  17   -2.79   66.67
   2 -10  17   16.65   50.23
  10   1 -17   -7.67   46.73
  10   1 -17   99.55  134.62
 -10  -1  17    8.68   64.99
  10   0 -17  162.61  134.08
  10   0 -17  -31.98   47.99
  10   0  17   -5.55  102.62
   0 -10  17  -83.53   57.24
 -10   0  17  -24.93   62.90
 -10   1 -17  -34.99  172.52
  10  -1 -17 -249.96  136.42
  -1 -10  17  -33.26   54.19
  10  -1  17  -17.11   71.42
 -10   2 -17  129.28  172.56
  10  -2  17   -2.75   68.28
  -2 -10  17   10.07   52.44
  -3 -10  17  123.14   58.02
 -10   4 -17 -100.42   47.03
  10  -4  17  -74.91   77.06
  -4 -10  17 -223.63   58.16
 -10   5 -17    2.86   39.47
 -10   5 -17   84.28  195.91
  10  -5  17  -25.46   68.36
  10  -5  17 -328.03   81.95
 -10   6 -17   17.01   40.56
 -10   6 -17    4.94  213.09
  10  -6  17    2.99   61.63
  10  -6  17    3.08   79.72
 -10   7 -17  225.00  218.88
 -10   7 -17   31.73   44.60
  10  -7  17    5.61   57.82
  10  -7  17   -3.28   88.67
 -10   8 -17    2.99   43.86
 -10   8 -17    5.17  222.79
  10  -8  17    2.85   60.41
  10  -8  17    3.50   95.11
 -10   9 -17    3.09   44.42
 -10   9 -17  171.64  224.78
  10  -9  17   26.46   61.86
  10  -9  17   81.57  103.73
 -10  10 -17   36.15   47.74
 -10  10 -17 -194.54  228.30
  10 -10  17  151.81  106.46
  10 -10  17  -81.53   63.06
 -10  11 -17  252.24  227.82
 -10  11 -17  -21.59   48.21
  10 -11  17   -4.07  105.67
  -9  11 -17 -263.96  205.25
  -9  11 -17  -83.25   48.07
   9 -11  17   -3.74   97.83
  -8  11 -17    3.35   45.55
   8 -11  17   10.24   85.27
  -7  11 -17  -45.29   45.27
   7 -11  17   54.16   82.61
  -6  11 -17   12.52   38.40
   6 -11  17    2.94   73.42
  -5  11 -17   -3.03   41.81
   5 -11  17   45.05   70.82
  11   4 -17  560.83  123.87
  -4  11 -17    5.87   40.71
   4 -11  17 -192.54   69.96
  11   3 -17    7.68   50.06
  11   3 -17  380.75  139.17
   3 -11  17    2.55   64.83
 -11  -3  17   25.86   24.01
 -11  -3  17  -31.16   68.72
  11   2 -17  -79.07   58.54
 -11  -2  17  -40.64   79.30
  11   1 -17   70.92   55.07
 -11  -1  17   -9.67   72.64
  11   0 -17  438.02  107.61
 -11   0  17  297.59  121.03
  11  -2 -17 -286.33  146.27
  11  -3  17    8.16   84.38
 -11   4 -17 -160.78   47.06
 -11   4 -17   -9.25  199.44
  11  -4  17   14.15   80.75
  11  -4  17    2.88   76.75
 -11   5 -17    2.98   48.03
 -11   5 -17  160.60  206.25
  11  -5  17   -3.25   70.08
  11  -5  17   21.32   81.95
 -11   6 -17   11.82   42.14
 -11   6 -17 -135.61  228.91
  11  -6  17   -9.02   63.16
  11  -6  17    3.20   86.49
 -11   7 -17    3.02   40.45
 -11   7 -17 -383.05  245.96
  11  -7  17    3.44   86.89
  11  -7  17  -54.74   58.26
 -11   8 -17   43.62   46.08
 -11   8 -17 -196.15  248.45
  11  -8  17    7.34  100.22
  11  -8  17   -2.94   62.40
 -11   9 -17  -56.69  240.89
 -11   9 -17   -3.21   46.18
  11  -9  17    2.99   61.67
  11  -9  17  -27.50  102.24
 -11  10 -17   28.71  250.81
 -11  10 -17   -3.42   48.38
  11 -10  17   41.91  110.03
  11 -10  17    3.10   63.31
 -11  11 -17 -127.68  248.32
 -11  11 -17  -82.10   50.41
  11 -11  17  -80.15  114.83
  12   4 -17 -377.01  143.15
  12   3 -17   83.48  147.54
 -12  -3  17    2.64   25.16
  12   2 -17  -66.11  157.16
 -12  -2  17  -18.91   28.47
  12   1 -17  220.65  167.04
  12   1 -17   -3.17   46.38
  12   0 -17  297.38   79.59
  12   0 -17  228.90  173.60
 -12   0  17  147.16   89.99
  12   0  17   -5.57  126.26
  12  -1 -17  -30.76  159.97
 -12   1  17   98.86   84.56
  12  -1  17  106.85  113.33
  12  -2 -17  -68.39  151.60
 -12   2 -17  303.93  184.89
  12  -2  17  -18.18  104.45
  12  -2  17  -38.56   69.97
 -12   3 -17  305.33  206.21
  12  -3  17   43.64   86.99
  12  -3  17    2.92   76.15
 -12   4 -17  121.14  210.76
 -12   4 -17    3.23   48.84
  12  -4  17   11.91   74.20
  12  -4  17   -3.61   79.93
 -12   5 -17 -140.50   46.72
 -12   5 -17 -177.76  225.95
  12  -5  17    3.23   67.15
  12  -5  17  -43.74   83.47
 -12   6 -17   48.98  233.98
 -12   6 -17   90.19   47.16
  12  -6  17   49.13   64.55
  12  -6  17  -46.45   86.52
 -12   7 -17  110.38   54.11
  12  -7  17   74.81  100.44
 -12   8 -17  252.33  260.17
 -12   8 -17   12.97   45.37
  12  -8  17    3.85  104.46
  12  -8  17   11.99   65.15
 -12   9 -17   -6.14  271.48
 -12   9 -17    3.37   47.32
  12  -9  17 -219.42  110.72
  12  -9  17    3.06   63.93
 -12  10 -17   71.28   50.99
 -12  10 -17  -99.52  268.68
  12 -10  17  -17.80  120.34
  12 -10  17    3.19   68.05
 -12  11 -17  155.10   79.06
 -12  11 -17  743.93  304.52
  12 -11  17  377.99  150.87
  13   4 -17    3.64  156.84
  13   4 -17 -109.55   65.60
 -13  -4  17  -16.37  100.10
 -13  -4  17  -55.35   26.93
  13   3 -17    9.83   61.42
 -13  -3  17  -15.78   92.75
 -13  -3  17   17.87   31.18
  13   2 -17  -58.90   61.89
  13   2 -17 -173.26  176.68
 -13  -2  17   50.88   85.89
 -13  -2  17   -6.03   30.74
  13   1 -17   90.75  172.88
  13   1 -17   -3.55   67.01
 -13  -1  17  -28.07   31.66
 -13  -1  17  -39.92   90.07
  13   0 -17    4.19  179.85
  13   0 -17  121.93   73.80
 -13   0  17  153.72   88.33
  13   0  17   -5.45  116.41
  13  -1 -17   54.44  172.79
  13  -1 -17 -124.98   69.95
 -13   1  17  -12.81   86.98
  13  -1  17    9.99  106.11
  13  -2 -17 -128.27  171.60
 -13   2 -17 -133.61  200.81
  13  -2  17   43.00   77.77
  13  -2  17   22.33   99.39
 -13   3 -17  -66.22   55.43
 -13   3 -17   84.77  217.78
  13  -3  17   11.96   84.84
  13  -3  17    6.05   81.76
 -13   4 -17 -127.07  224.32
 -13   4 -17    3.35   51.87
  13  -4  17  -78.85   82.19
  13  -4  17  -17.66   76.00
 -13   5 -17 1271.11  298.23
  13  -5  17  481.37  166.45
 -13   6 -17   55.09   48.31
 -13   6 -17 -101.54  253.07
  13  -6  17 -121.56   71.70
  13  -6  17   85.48   93.12
 -13   7 -17   -3.29   51.18
 -13   7 -17   30.46  259.58
  13  -7  17    6.05   61.34
  13  -7  17   40.18   97.40
 -13   8 -17    3.41   48.21
 -13   8 -17  245.21  290.45
  13  -8  17  -23.95  108.84
  13  -8  17    3.07   62.13
 -13   9 -17  394.09  302.66
 -13   9 -17    7.02   49.45
  13  -9  17   17.32  119.54
  13  -9  17   -6.27   63.92
 -13  10 -17 -274.92   60.22
 -13  10 -17 -692.76  318.43
  13 -10  17   -3.26   73.03
  13 -10  17  -65.99  139.38
 -13  11 -17  103.67  306.10
  13 -11  17   50.70  140.77
  14   4 -17   99.06  176.10
  14   4 -17    3.60   65.93
 -14  -4  17   90.31  108.40
 -14  -4  17   12.05   32.00
  14   3 -17    3.67   68.16
  14   3 -17   12.58  180.75
 -14  -3  17  -59.29   35.90
 -14  -3  17  -57.44  111.58
  14   2 -17    4.39  187.25
 -14  -2  17  -21.87   98.58
 -14  -2  17  -57.35   36.42
  14   1 -17 -520.22  201.68
  14   1 -17 -182.47   76.74
 -14  -1  17  -13.33  101.10
 -14  -1  17  -17.18   37.50
  14   0 -17   53.54   80.32
  14   0 -17  126.17  188.22
 -14   0  17   44.63   99.66
  14  -1 -17 -362.21  197.06
  14  -1 -17  -32.44   72.21
 -14   1  17  154.10   97.71
  14  -2 -17 -175.73  184.29
 -14   5 -17    3.41   48.36
 -14   6 -17    6.83   50.35
 -14   6 -17   -5.86  262.10
 -14   7 -17  120.22  278.21
 -14   7 -17 -145.55   51.28
 -14   8 -17   -3.53   50.20
 -14   8 -17 -413.94  314.95
  14  -8  17 -146.55  117.47
  14  -8  17    3.12   67.35
 -14   9 -17    3.65   49.59
 -14   9 -17   78.86  319.48
  14  -9  17   57.59   67.17
  14  -9  17  -22.43  124.44
 -14  10 -17    3.87   51.67
 -14  10 -17-1000.00  336.83
  14 -10  17   36.36   68.33
  14 -10  17   29.36  132.03
 -14  11 -17  278.89  331.55
  14 -11  17 -106.94  144.19
  15   4 -17   -4.10   77.44
  15   4 -17  146.48  193.71
 -15  -4  17 -110.40  113.16
 -15  -4  17  -13.46   34.63
  15   3 -17    4.61  196.27
  15   3 -17  113.88   82.84
 -15  -3  17  -14.58   35.75
 -15  -3  17 -123.52  111.79
  15   2 -17   -4.34   76.09
  15   2 -17  -57.16  202.62
 -15  -2  17   29.31  112.42
 -15  -2  17  -37.65   38.92
  15   1 -17    4.42   81.50
  15   1 -17 -217.87  203.48
 -15  -1  17 -103.87  114.16
 -15  -1  17   95.72   40.32
  15   0 -17  110.23   84.74
  15   0 -17    4.85  214.39
 -15   0  17   24.70  109.00
  15  -1 -17  184.06  204.41
  15  -1 -17 -179.34   80.75
 -15   1  17 -117.76  111.26
  15  -2 -17    9.70  194.85
 -15   2  17  -59.33  108.97
  16   5 -17 -282.66  202.77
  16   4 -17 -365.93   94.50
 -16  -4  17  -22.49   39.03
 -16  -4  17 -128.22  130.77
  16   3 -17 1143.55  251.32
 -16  -3  17 1067.38  275.60
  16   2 -17 -308.16   93.85
 -16  -2  17  -67.40   47.08
 -16  -2  17  -70.81  127.83
  16   1 -17  120.48  224.61
  16   1 -17    4.92   89.95
 -16  -1  17 -110.00  116.31
 -16  -1  17  -12.71   44.52
  16   0 -17    5.10   90.82
  16   0 -17 -157.34  232.23
 -16   0  17   38.35  122.00
 -16   0  17    4.34   43.02
  16  -1 -17 -307.71   94.78
  16  -1 -17 -417.52  231.45
 -16   1  17  -73.39  123.87
 -16   2  17 -242.79  125.78
  17   5 -17 -529.40  220.83
  17   5 -17  -57.39   88.86
  17   4 -17   44.13  225.93
  17   4 -17    4.97   94.28
 -17  -4  17    6.19  148.48
 -17  -4  17   33.35   39.40
  17   3 -17  -33.08  231.43
  17   3 -17   87.55   94.20
 -17  -3  17  -17.42   41.74
 -17  -3  17  -30.56  146.08
  17   2 -17 -144.13  239.78
  17   2 -17  245.10   95.04
 -17  -2  17  -60.61  142.13
 -17  -2  17  -60.18   49.53
  17   1 -17   10.91   99.87
  17   1 -17  113.00  237.07
 -17  -1  17  -33.15   49.63
 -17  -1  17  -18.34  134.43
  17   0 -17  242.31  248.91
  17   0 -17  158.22  107.04
 -17   0  17  -52.92   52.10
 -17   0  17  170.36  137.72
  17  -1 -17 -329.45  102.58
  17  -1 -17  213.27  237.84
 -17   1  17    4.96   53.14
 -17   1  17 -162.48  136.93
  17  -2 -17 -313.80  238.20
 -17   2  17  -13.05  133.63
  18   5 -17  233.58  241.59
  18   5 -17   57.29   97.08
  18   4 -17  156.49  246.32
  18   4 -17   76.17   99.26
 -18  -4  17   88.10   48.83
 -18  -4  17 -108.66  158.40
  18   3 -17    5.65  105.46
  18   3 -17 -283.51  266.61
 -18  -3  17 -101.70  156.07
 -18  -3  17  -42.44   49.37
  18   2 -17 -488.96  260.18
  18   2 -17 -152.87  112.16
 -18  -2  17   99.63   55.67
 -18  -2  17  -60.70  156.36
  18   1 -17 -163.83  261.52
  18   1 -17  -72.38  111.58
 -18  -1  17  142.79  153.23
 -18  -1  17  -15.74   52.89
  18   0 -17   -6.09  251.71
  18   0 -17  211.87  119.54
 -18   0  17   63.89   58.60
 -18   0  17  -20.32  146.30
  18  -1 -17 -394.77  113.01
 -18   1  17 -124.81  152.43
 -18   1  17   70.80   54.04
 -18   2  17 -122.70  141.40
   0   1 -18  -38.19  108.44
   0  -1  18  -18.15   73.43
   0  -1  18    2.02   45.68
  -1   1 -18  382.40  161.64
   1   1 -18  333.82  158.64
  -1  -1  18  564.78  115.25
  -1  -1  18  336.15  125.82
   1  -1  18  500.95  113.74
   1  -1  18  525.55  132.21
  -1   2 -18 -209.33  108.44
   2   1 -18  144.80  102.46
   1  -2  18   -3.92   44.46
   1  -2  18  -34.38   66.34
  -2  -1  18  -29.11   64.01
   0   2 -18  116.86  104.98
   0  -2  18   35.83   64.33
   0  -2  18   53.04   46.05
  -2   0  18   21.60   72.98
  -2   1 -18 -224.59  111.30
   1   2 -18  -42.65  100.17
  -1  -2  18  -14.84   44.13
   2  -1  18  -25.48   48.67
  -1  -2  18    6.15   62.03
   2  -1  18    8.10   77.75
  -2   2 -18   39.47  118.22
   2   2 -18  -48.90  103.77
   2  -2  18  -10.87   76.30
   2  -2  18  134.08   52.03
  -2  -2  18   94.74   45.54
  -2  -2  18   26.05   61.72
  -2   3 -18   18.25  120.69
   3   2 -18   59.93  101.84
  -3  -2  18    5.41   57.23
  -3  -2  18   26.95   44.86
   2  -3  18    6.50   68.13
   2  -3  18   42.69   52.43
  -1   3 -18  124.08  144.80
   1  -3  18  326.78   99.96
  -3  -1  18  252.60  103.45
   1  -3  18  525.02   92.22
   0   3 -18  -95.71  105.83
   0  -3  18   46.45   49.12
  -3   0  18  -84.49   68.40
   0  -3  18   -2.92   58.40
   1   3 -18  370.28  137.82
  -3   1 -18  345.96  147.55
   3  -1  18  305.37   90.18
  -1  -3  18  357.02   96.03
   3  -1  18  295.36  117.29
  -1  -3  18  311.14   87.86
  -3   2 -18   92.39  121.50
   2   3 -18  147.29  102.42
  -2  -3  18   19.04   42.72
   3  -2  18   15.26   77.55
   3  -2  18   -6.35   51.18
  -2  -3  18   20.57   52.93
  -3   3 -18  160.10  154.50
   3   3 -18  398.38  139.12
   3  -3  18  482.72   99.57
   3  -3  18  413.33  111.55
  -3  -3  18  273.59   96.93
  -3  -3  18  453.06  100.96
  -3   4 -18  455.67  183.37
   4   3 -18  248.25  149.88
  -4  -3  18  538.52  112.75
   3  -4  18  459.61  113.85
  -4  -3  18  429.25  111.97
   3  -4  18  606.67  121.52
   4   2 -18  820.63  194.01
  -2   4 -18  823.42  216.06
  -4  -2  18  674.83  159.64
   2  -4  18  460.07  161.18
   2  -4  18  682.75  157.52
  -4  -2  18  619.71  161.39
  -1   4 -18  268.11  149.84
   1  -4  18  316.68   84.40
   1  -4  18  306.21   81.67
  -4  -1  18  191.15   94.46
   0   4 -18  490.26  150.14
   0  -4  18  372.11   85.79
   0  -4  18  227.53   86.89
  -4   0  18  183.57   97.75
  -4   1 -18  223.88  148.57
   1   4 -18  142.89  137.63
  -1  -4  18  423.73   83.83
  -1  -4  18  325.60   85.34
   4  -1  18  246.81   85.33
   2   4 -18  697.09  191.03
   2   4 -18  395.39  128.70
  -4   2 -18  642.48  200.14
   4  -2  18  528.19  138.46
   4  -2  18  537.01  160.16
  -2  -4  18  624.11  140.90
  -2  -4  18  672.25  139.36
   3   4 -18  307.11   91.12
   3   4 -18  241.52  150.84
  -4   3 -18  601.90  171.13
   4  -3  18  607.33  108.35
   4  -3  18  390.88  118.92
  -3  -4  18  387.35  102.59
  -3  -4  18  378.56  103.54
  -4   4 -18 -362.66  174.21
   4   4 -18   95.76  113.79
  -4  -4  18  300.68   65.19
   4  -4  18   58.16   84.73
   4  -4  18   50.26   86.72
  -4  -4  18  312.47   59.07
  -4   5 -18  -77.66   43.56
   4  -5  18 -277.68   73.06
  -3   5 -18    4.50   37.91
   3  -5  18 -113.46   68.67
   3  -5  18 -229.06   78.26
  -2   5 -18  484.90  107.33
  -2   5 -18  535.75  189.15
   2  -5  18  555.75  119.95
   2  -5  18  406.26  118.21
  -1   5 -18   71.22   30.29
  -1   5 -18    6.66  134.38
  -5  -1  18   41.14   59.32
   1  -5  18   78.95   56.33
   1  -5  18   48.71   53.06
   0   5 -18  -38.15  132.46
   0   5 -18   -3.82   26.60
   5   0 -18  123.46   86.43
  -5   0  18  -14.48   64.64
   0  -5  18   13.78   46.41
   0  -5  18  -55.63   53.04
  -5   1 -18   25.23  131.10
   1   5 -18  -90.64  126.23
   1   5 -18   30.21   25.50
  -1  -5  18   20.87   49.49
  -1  -5  18   41.78   44.47
   5  -1  18  -28.61   54.15
   5  -1  18   79.15   96.92
   2   5 -18  342.43   72.66
  -5   2 -18  293.00  161.30
   2   5 -18  176.84  152.62
  -2  -5  18  289.01   89.64
  -2  -5  18  262.49   82.49
   5  -2  18  268.93  114.44
   5  -2  18  349.01   90.68
   3   5 -18   66.17  120.62
   3   5 -18   22.61   22.51
   5  -3  18  -67.29   72.10
  -3  -5  18   85.99   40.45
  -3  -5  18  161.35   48.03
   4   5 -18   57.10   23.21
   4   5 -18   31.85  119.38
  -4  -5  18    1.63   50.01
  -4  -5  18   57.11   35.68
  -5   5 -18   90.33  169.85
   5  -5  18   37.16   65.63
  -5   6 -18  117.70  175.26
   5  -6  18 -128.64   70.58
  -4   6 -18   23.29  162.76
  -4   6 -18  -11.52   35.99
   4  -6  18   -2.46   61.90
   4  -6  18  113.63   56.39
  -3   6 -18  283.16  186.78
  -3   6 -18  413.89   86.30
   3  -6  18  131.63  108.73
   3  -6  18  476.11   99.50
  -2   6 -18   -8.38   31.53
   2  -6  18  -82.08   54.49
   6   1 -18  267.51  134.39
  -1   6 -18  341.59   75.87
   1  -6  18  293.96   88.38
   0   6 -18   69.60   37.17
   0   6 -18 -114.35  146.36
   6   0 -18  120.14  102.77
   0  -6  18  279.48   68.51
   0  -6  18  128.73   52.01
   6   0  18   47.80  112.87
   1   6 -18  207.07   62.46
   1   6 -18  420.53  166.91
   6  -1  18  346.37   89.13
  -1  -6  18  178.98   73.45
   6  -1  18  146.10  123.12
   2   6 -18   45.85   25.95
   2   6 -18   98.29  133.69
   6  -2  18 -105.46   90.59
  -2  -6  18   40.07   39.10
  -2  -6  18   38.31   52.77
   6  -2  18   -7.27   63.58
   3   6 -18  653.24  184.97
  -6   3 -18  382.31  186.64
   3   6 -18  441.85   98.35
   6  -3  18  378.93  118.67
  -3  -6  18  508.86  117.59
   6  -3  18  377.17  132.29
  -3  -6  18  440.30  104.96
  -6   4 -18 -329.69  165.74
   4   6 -18   -2.73  120.88
   4   6 -18   28.26   21.73
  -4  -6  18   12.59   35.64
  -4  -6  18   50.01   48.60
   6  -4  18   67.07   74.61
   6  -4  18  125.72   68.85
  -6   5 -18  205.78   44.50
  -6   5 -18   -4.10  171.27
   6  -5  18  -77.56   70.85
  -6   7 -18    2.55   37.73
   6  -7  18  -45.85   58.57
  -4   7 -18  143.61  165.32
   4  -7  18    2.55   68.17
  -3   7 -18    3.74  155.21
  -3   7 -18   -2.23   31.82
   3  -7  18    2.43   64.82
   3  -7  18    2.38   48.76
  -2   7 -18    3.65  163.02
  -2   7 -18  180.77   55.41
   2  -7  18  310.27   78.95
   2  -7  18  170.05   64.28
  -1   7 -18   28.24   28.64
  -1   7 -18  -78.17  152.38
   7   1 -18   -9.74  107.48
   1  -7  18  -79.95   44.51
   1  -7  18  -85.28   58.42
   7   0 -18   17.53  104.05
   0   7 -18 -252.75  148.41
   0   7 -18   21.25   28.18
   0  -7  18    6.01   40.13
   7   0  18  -66.34  121.50
   0  -7  18  -69.21   56.68
   1   7 -18 -145.20  142.11
   1   7 -18  -14.56   25.26
  -7   1 -18 -170.08  154.23
  -1  -7  18  -11.48   39.47
   7  -1  18  -25.11  109.80
  -1  -7  18   -2.09   55.30
   7  -1  18    7.82   62.92
  -7   2 -18  378.93  168.50
   2   7 -18  416.32  166.35
   2   7 -18  300.76   60.99
   7  -2  18   43.07   85.92
   7  -2  18  107.51  113.41
  -2  -7  18  264.66   68.08
  -2  -7  18  275.35   80.11
   3   7 -18   -3.26   24.24
  -7   3 -18   74.05  155.13
   3   7 -18    3.16  139.29
  -3  -7  18   -1.74   37.01
   7  -3  18    4.10   89.31
  -3  -7  18   86.86   54.06
   7  -3  18    2.54   64.22
  -7   4 -18   60.65  168.22
   4   7 -18   84.24  139.50
   4   7 -18   56.14   27.36
  -4  -7  18  167.75   54.96
   7  -4  18    2.63   66.78
   7  -4  18   -3.67   70.00
  -4  -7  18  104.19   38.78
  -7   6 -18 -160.77   43.23
   7  -6  18    2.99   60.39
  -7   7 -18   98.80  190.71
  -7   7 -18    5.32   40.56
   7  -7  18 -152.92   84.74
   7  -7  18  -25.18   60.06
  -7   8 -18    2.75   36.71
  -7   8 -18 -151.63  202.63
   7  -8  18    2.74   59.66
   7  -8  18  -12.26   83.29
  -6   8 -18 -131.87   39.01
  -6   8 -18 -186.75  172.51
   6  -8  18    8.66   75.05
   6  -8  18    7.91   55.49
  -5   8 -18 1423.35  322.08
  -2   8 -18  -91.19  154.59
  -2   8 -18   51.62   36.93
   2  -8  18  264.59   47.64
   2  -8  18  -58.59   66.33
   8   1 -18   84.54  117.37
  -1   8 -18 -271.78  154.39
  -1   8 -18   17.14   29.99
   1  -8  18   30.44   46.55
   1  -8  18  -17.90   59.84
  -8  -1  18   69.92   53.99
   8   0 -18   61.00  123.43
   0   8 -18    2.05   29.52
   0   8 -18  -66.84  150.79
   8   0  18   17.01  119.42
   0  -8  18  105.51   57.49
   0  -8  18  -18.71   40.77
   1   8 -18  197.68  151.35
  -8   1 -18  -45.65  156.66
   1   8 -18   27.14   28.31
   8  -1 -18  -47.30  109.99
   8  -1  18   -5.22  106.95
   8  -1  18   38.20   65.31
  -1  -8  18  100.89   56.21
  -1  -8  18   37.98   41.55
  -8   2 -18 -402.30  174.37
   2   8 -18  -14.73   24.61
   2   8 -18   40.96  144.07
   8  -2  18  -31.93   64.68
   8  -2  18  195.37   93.76
  -2  -8  18  -71.24   55.49
  -2  -8  18    3.81   39.90
  -8   3 -18  270.66  178.66
   3   8 -18   64.89   31.24
   3   8 -18   20.04  145.02
  -3  -8  18  124.94   58.31
  -3  -8  18  111.48   41.71
   8  -3  18  -15.96   66.36
   4   8 -18   -3.41   24.80
  -4  -8  18   69.44   35.94
  -4  -8  18   35.93   53.88
  -8   5 -18  -47.77   44.32
   8  -5  18    3.34   74.66
  -8   6 -18  -68.88   41.47
  -8   6 -18   32.93  194.46
   8  -6  18   -2.97   80.46
   8  -6  18    3.02   64.49
  -8   7 -18 -127.91   45.04
  -8   7 -18 -281.35  215.41
   8  -7  18  -20.30   63.14
   8  -7  18   -3.10   81.14
  -8   8 -18   90.45  199.85
  -8   8 -18   71.70   46.68
   8  -8  18    3.23   83.74
   8  -8  18   36.85   59.62
  -8   9 -18 -111.67   44.35
  -8   9 -18  -85.54  203.02
   8  -9  18 -127.97   90.49
   8  -9  18    2.91   61.26
  -7   9 -18    8.89  181.13
  -7   9 -18  -55.15   43.10
   7  -9  18    3.16   81.35
   7  -9  18    2.81   57.97
  -6   9 -18 -105.56  179.43
  -6   9 -18  -61.39   40.48
   6  -9  18    2.94   79.72
   6  -9  18    2.72   55.72
  -5   9 -18  -40.20  175.00
  -5   9 -18   50.95   40.08
   5  -9  18    2.74   76.61
  -4   9 -18  -28.29   35.83
  -4   9 -18  -81.16  158.16
   4  -9  18    2.60   69.79
   4  -9  18  -60.76   52.73
  -3   9 -18    2.46   34.70
   3  -9  18   29.33   49.79
   9   2 -18    2.82  128.96
   9   2 -18   56.92   42.88
   9   1 -18  106.01  125.11
   9   1 -18    9.27   41.97
   1  -9  18  -40.15   58.83
  -9  -1  18   32.85   56.87
   0   9 -18  -36.96   32.35
   9   0 -18   42.82  128.77
   0  -9  18  -23.90   57.25
   1   9 -18   71.26   30.23
  -9   1 -18   34.94  165.97
   9  -1 -18 -139.70  125.08
   9  -1  18   11.47   67.51
  -1  -9  18   71.48   55.16
  -1  -9  18    2.09   42.79
   2   9 -18   50.74   28.44
  -2  -9  18   16.32   55.15
  -2  -9  18   34.49   41.29
   3   9 -18   47.99   29.64
  -3  -9  18   47.54   52.80
   9  -4  18   30.16   76.85
  -9   5 -18 -490.65  210.00
  -9   5 -18  -64.54   44.37
   9  -5  18   10.36   76.58
   9  -5  18  -47.56   79.61
  -9   6 -18  -40.56   42.78
  -9   6 -18  -49.14  217.32
   9  -6  18   34.43   66.10
   9  -6  18    9.31   84.23
  -9   7 -18   85.84  215.19
  -9   7 -18 -180.05   45.40
   9  -7  18  -58.89   87.51
   9  -7  18   -3.00   63.53
  -9   8 -18 -264.11  216.99
  -9   8 -18    2.99   46.08
   9  -8  18  -23.43   61.61
   9  -8  18   34.40   93.49
  -9   9 -18    5.07  211.15
  -9   9 -18    3.14   43.43
   9  -9  18   12.00   63.66
   9  -9  18   -3.61   95.07
  -9  10 -18  301.39  222.06
  -9  10 -18   95.13   49.75
   9 -10  18  -24.77   66.69
   9 -10  18    3.75   99.75
  -8  10 -18   -4.78  198.30
  -8  10 -18   72.63   42.87
   8 -10  18   12.01   62.30
   8 -10  18    6.95   92.46
  -7  10 -18   26.89  184.14
  -7  10 -18  -30.40   41.47
   7 -10  18    3.20   85.56
   7 -10  18   20.37   56.57
  -6  10 -18    4.25  172.57
   6 -10  18   -2.98   77.87
   6 -10  18  -42.26   55.85
  -5  10 -18   28.25   39.78
   5 -10  18   -2.73   54.60
   5 -10  18  -41.66   69.01
  -4  10 -18    2.72   44.05
   4 -10  18    2.61   50.53
   4 -10  18   34.29   70.37
  -3  10 -18   60.65   47.36
   3 -10  18   -2.53   60.25
   3 -10  18  152.04   75.95
  10   2 -18  -36.85   49.66
  10   2 -18 -174.98  145.71
  -2  10 -18    7.65   33.09
   2 -10  18 -117.89   50.26
   2 -10  18 -241.02   66.18
 -10  -2  18  -36.85   65.26
  10   1 -18  -13.01   49.78
  10   1 -18    3.32  140.54
  -1  10 -18    2.47   32.39
   1 -10  18   88.45   46.75
 -10  -1  18   -8.86   62.94
  10   0 -18  141.65  142.50
 -10   0  18  -25.97   66.18
  10  -1 -18  159.59  143.79
  -1 -10  18   -2.17   59.23
  -2 -10  18  -86.29   58.89
  10  -2  18  -43.54  106.28
  10  -3  18  288.85  123.09
 -10   4 -18  116.13  193.56
 -10   4 -18   34.72   49.12
  10  -4  18   -2.94   80.26
  10  -4  18  -46.51   83.47
 -10   5 -18  -87.71  208.28
 -10   5 -18    3.06   43.58
  10  -5  18  -65.52   74.03
  10  -5  18  -52.75   83.37
 -10   6 -18    5.18  215.66
 -10   6 -18    3.03   46.32
  10  -6  18    3.23   68.76
  10  -6  18   35.61   85.81
 -10   7 -18 -112.16   46.27
 -10   7 -18   26.95  226.16
  10  -7  18   -3.44   89.77
  10  -7  18  -43.15   63.71
 -10   8 -18   -3.15   45.68
 -10   8 -18   92.93  230.34
  10  -8  18   21.17   63.13
  10  -8  18    3.63   96.72
 -10   9 -18  252.45  235.01
 -10   9 -18   45.69   49.62
  10  -9  18  114.97  108.12
  10  -9  18    6.19   64.25
 -10  10 -18 -138.49  233.57
 -10  10 -18   -3.41   47.38
  10 -10  18    8.09  108.43
  10 -10  18  -31.91   63.46
 -10  11 -18   -5.58  240.86
 -10  11 -18  -58.71   48.48
  10 -11  18    4.26  110.52
  10 -11  18    6.64   66.87
  -9  11 -18   45.92   54.02
  -9  11 -18    5.20  222.17
   9 -11  18   29.04   66.74
   9 -11  18 -234.00  104.91
  -8  11 -18    3.40   46.96
  -8  11 -18   63.20  205.20
   8 -11  18    3.60   91.39
   8 -11  18    3.16   66.13
  -7  11 -18  -55.83   48.09
   7 -11  18    3.04   59.74
   7 -11  18  -62.73   88.36
   6 -11  18   -3.10   78.11
  -5  11 -18   62.41   41.34
   5 -11  18   -2.88   74.14
   5 -11  18   -2.87   55.85
  -4  11 -18   -3.02   37.43
   4 -11  18    2.72   70.26
  -3  11 -18    2.92   38.73
   3 -11  18 -157.62   65.32
  11   2 -18   27.03   51.65
  -2  11 -18 -127.37   40.59
 -11  -2  18  128.24   26.19
 -11  -2  18   22.08   69.56
   2 -11  18  -68.15   65.47
  11   1 -18  123.19   60.33
 -11  -1  18   45.24   71.42
   1 -11  18  -36.53   66.09
   0 -11  18  -80.09   59.93
  11   0  18  -12.06  135.77
 -11   2 -18  199.78  193.61
  11  -2  18  -33.09   77.50
  11  -2  18   19.82  108.44
 -11   3 -18   14.38  202.96
  11  -3  18   -5.97   73.76
  11  -3  18   -8.85   91.39
 -11   4 -18   -4.87  205.64
 -11   4 -18  -33.04   48.64
  11  -4  18   35.65   80.75
  11  -4  18    3.05   78.02
 -11   5 -18    3.20   48.77
 -11   5 -18 -183.12  216.34
  11  -5  18  -24.74   70.57
  11  -5  18   67.21   82.25
 -11   6 -18    3.17   48.52
 -11   6 -18   54.18  233.24
  11  -6  18   13.27   71.33
  11  -6  18   70.94   92.15
 -11   7 -18   56.78  244.34
 -11   7 -18   44.88   49.17
  11  -7  18   33.97   65.83
  11  -7  18   61.16   92.17
 -11   8 -18   -5.85  255.60
 -11   8 -18 -102.14   50.41
  11  -8  18   12.46   65.83
  11  -8  18   19.16  103.76
 -11   9 -18   10.19   45.28
 -11   9 -18 -225.55  254.94
  11  -9  18   54.12   67.20
  11  -9  18   -4.08  111.16
 -11  10 -18   31.95   48.60
 -11  10 -18 -137.40  260.78
  11 -10  18  -61.56   66.36
  11 -10  18    4.32  108.89
 -11  11 -18  121.61  276.07
 -11  11 -18    3.87   53.78
  11 -11  18  -13.78  119.38
  11 -11  18 -140.08   68.66
 -11  12 -18 -303.86  265.31
  11 -12  18    4.87  127.33
 -10  12 -18   23.05  240.76
  12   3 -18   74.89  151.77
  12   2 -18 -215.47  169.77
  12   2 -18  321.41   63.52
 -12  -2  18  368.92   84.54
 -12  -2  18    2.76   38.97
  12   1 -18 -176.70  166.40
  12   1 -18   16.57   60.04
 -12  -1  18   64.24   82.11
  12   0 -18 -329.07  171.48
  12   0 -18  126.72   61.44
  12   0  18   77.49  130.89
 -12   0  18   33.86   82.84
  12  -1 -18   47.73  166.10
 -12   1 -18 -102.20  190.54
  12  -1  18   -5.47  114.23
  12  -2 -18   15.73  156.01
 -12   2 -18  178.83  207.97
  12  -2  18  -14.74  108.19
  12  -2  18  -40.56   80.10
 -12   3 -18   25.06  210.25
  12  -3  18 -148.59   80.81
  12  -3  18   22.42   98.55
 -12   4 -18  -34.58   52.62
 -12   4 -18  158.39  220.40
  12  -4  18   86.07   87.40
  12  -4  18   21.92   78.96
 -12   5 -18   63.84  233.34
 -12   5 -18  -70.12   50.27
  12  -5  18   10.79   77.77
  12  -5  18  157.96   87.34
 -12   6 -18   72.60   58.79
 -12   6 -18  480.40  259.26
  12  -6  18  143.99  103.87
  12  -6  18   79.67   79.38
 -12   7 -18  -26.82   48.63
 -12   7 -18    6.02  261.19
  12  -7  18 -208.58   98.66
  12  -7  18    3.16   65.08
 -12   8 -18   -3.44   46.53
 -12   8 -18 -239.28  280.68
  12  -8  18   -4.02  107.42
  12  -8  18   63.96   69.42
 -12   9 -18 -373.97  289.95
 -12   9 -18   49.35   50.85
  12  -9  18  106.67   69.39
  12  -9  18    8.60  119.21
 -12  10 -18   70.57   54.84
 -12  10 -18 -194.81  289.84
  12 -10  18   36.59   66.48
  12 -10  18  -36.94  127.91
 -12  11 -18 -639.72  294.10
 -12  11 -18 -116.77   62.13
  12 -11  18   79.17  139.99
 -12  12 -18 -291.04  297.39
  12 -12  18 -247.62  144.78
  13   3 -18   74.65  173.96
  13   3 -18   20.21   65.23
  13   2 -18  -66.29  172.62
  13   2 -18  -72.61   65.32
 -13  -2  18   82.39   82.26
 -13  -2  18   27.73   32.01
  13   1 -18   38.30  184.34
  13   1 -18   39.25   67.52
 -13  -1  18   43.51   84.48
  13   0 -18 -148.71   66.69
  13   0 -18    4.33  182.83
  13   0  18  -35.03  116.99
 -13   0  18  -66.09   92.10
  13  -1 -18    4.33  177.86
 -13   1  18  233.06   94.71
  13  -1  18   -5.38  111.64
  13  -2 -18   -4.27  177.41
 -13   2 -18  -67.52  220.78
  13  -2  18  -29.14   82.30
  13  -2  18   94.44  111.13
 -13   3 -18 -340.80  236.66
 -13   3 -18    3.72   58.41
  13  -3  18  -67.01   84.65
  13  -3  18   34.73   97.89
 -13   4 -18    3.59   55.85
 -13   4 -18 -353.10  248.76
  13  -4  18 -105.90   85.47
  13  -4  18  -39.59   87.59
 -13   5 -18 -277.31  246.43
 -13   5 -18    3.51   50.33
  13  -5  18   32.04   79.15
  13  -5  18  -67.12   92.43
 -13   6 -18   -3.47   50.84
 -13   6 -18 -164.41  252.73
  13  -6  18   93.37   96.96
  13  -6  18   20.23   69.97
 -13   7 -18    3.50   52.19
 -13   7 -18 -290.15  284.54
  13  -7  18    3.85  101.25
  13  -7  18  -29.11   67.18
 -13   8 -18    3.58   53.55
 -13   8 -18  153.12  291.19
  13  -8  18   87.35  110.09
  13  -8  18    3.26   65.24
 -13   9 -18   88.63   57.90
 -13   9 -18    6.94  300.29
  13  -9  18  -13.56  129.04
  13  -9  18 -102.43   75.64
 -13  10 -18 -234.47  322.46
 -13  10 -18  -73.62   54.51
  13 -10  18  -82.69  128.49
  13 -10  18  -10.22   70.40
 -13  11 -18  -25.10   63.54
 -13  11 -18   79.56  307.96
  13 -11  18  -57.73  141.60
 -13  12 -18   -7.35  323.81
  13 -12  18   62.24  153.75
  14   3 -18    3.79   69.44
  14   3 -18 -283.81  186.65
 -14  -3  18   30.68  103.89
 -14  -3  18  -10.08   34.84
  14   2 -18 -524.10  201.57
  14   2 -18   15.55   74.08
 -14  -2  18  -17.51   97.58
 -14  -2  18  -61.99   36.32
  14   1 -18  291.21  205.73
  14   1 -18    3.99   73.07
 -14  -1  18  -22.17   95.42
 -14  -1  18   28.14   35.91
  14   0 -18  -32.51   72.67
  14   0 -18   60.40  200.88
 -14   0  18   72.73   97.78
  14  -1 -18   56.01  202.17
 -14   1  18  186.75  104.26
  14  -2 -18   27.89  197.14
 -14   3 -18    7.73   57.28
 -14   4 -18 -139.95  233.80
 -14   4 -18    3.73   54.54
 -14   5 -18   52.10  263.79
 -14   5 -18   62.13   53.82
  14  -5  18   10.25   88.72
 -14   6 -18 -342.87  269.00
 -14   6 -18 -115.43   54.56
  14  -6  18   81.76   72.61
  14  -6  18  -47.40   95.97
 -14   7 -18 -128.81   55.31
 -14   7 -18   78.77  294.03
  14  -7  18  -52.71   77.10
  14  -7  18  -51.43  105.30
 -14   8 -18 -119.44  307.87
 -14   8 -18  -56.42   54.19
  14  -8  18  -81.03  121.63
  14  -8  18  -39.84   77.83
 -14   9 -18    3.85   58.98
 -14   9 -18  147.99  323.47
  14  -9  18   60.76  127.89
  14  -9  18   70.77   72.12
 -14  10 -18   -4.04   57.01
 -14  10 -18   15.36  329.70
  14 -10  18  -55.70   69.77
  14 -10  18   96.74  139.04
 -14  11 -18  149.71  352.41
 -14  11 -18  -69.55   62.25
  14 -11  18 -148.86  144.79
 -14  12 -18 -782.14  386.02
  15   3 -18    8.47   79.58
  15   3 -18    9.46  200.06
 -15  -3  18   51.93   38.52
 -15  -3  18 -102.82  120.02
  15   2 -18  -87.06   77.52
  15   2 -18 -117.59  209.45
 -15  -2  18   49.91   39.79
 -15  -2  18  -39.10  108.07
  15   1 -18 -184.30  213.81
  15   1 -18    4.46   77.79
 -15  -1  18  133.16  112.28
 -15  -1  18   27.37   38.94
  15   0 -18  159.09   83.28
  15   0 -18 -179.94  211.96
 -15   0  18  -25.11  110.00
  15  -1 -18  220.55  210.59
  15  -1 -18   67.69   81.72
 -15   1  18   20.97  106.03
  15  -2 -18  125.00  200.89
  16   4 -18  164.63  215.86
  16   3 -18 -128.80  221.16
  16   3 -18  -94.18   85.93
 -16  -3  18   24.07   44.60
 -16  -3  18  -59.72  122.47
  16   2 -18 -305.28  101.87
 -16  -2  18  -42.94   45.28
 -16  -2  18 -272.74  132.99
  16   1 -18  -39.76  102.25
 -16  -1  18   99.47   50.04
 -16  -1  18   93.29  139.23
  16   0 -18 -102.50  251.02
  16   0 -18   40.45  100.36
 -16   0  18  183.03  132.68
 -16   0  18   17.74   47.93
  16  -1 -18 -125.00   97.98
 -16   1  18   40.26  127.51
  17   4 -18   16.91  230.56
  17   3 -18   78.91  245.76
  17   3 -18 -109.40   96.87
 -17  -3  18 -108.78  140.07
 -17  -3  18   -4.43   47.53
  17   2 -18  -26.87   99.80
  17   2 -18  290.47  247.28
 -17  -2  18   54.86  130.20
 -17  -2  18    9.45   49.11
  17   1 -18 -273.04  250.08
  17   1 -18    5.53  102.93
 -17  -1  18   -4.83   49.41
 -17  -1  18 -151.42  142.82
  17   0 -18 -115.81  258.07
  17   0 -18  157.19  103.70
 -17   0  18   -4.91   52.20
 -17   0  18   49.25  133.09
  17  -1 -18   44.32  100.24
  17  -1 -18 -167.23  246.04
 -17   1  18  -20.28   50.43
 -17   1  18   25.45  140.15
  17  -2 -18 -115.21  243.78
  18   3 -18   -5.92  108.02
  18   3 -18  132.22  269.10
 -18  -3  18  -47.92   48.79
 -18  -3  18  168.10  164.51
  18   2 -18 -210.69  263.25
  18   2 -18   -5.92  108.75
 -18  -2  18    5.20   51.86
 -18  -2  18 -251.22  152.12
  18   1 -18   42.88  117.23
 -18  -1  18    6.74  155.35
 -18  -1  18    5.35   58.15
  18   0 -18   -6.25  190.82
  18   0 -18 -167.68  111.39
 -18   0  18  158.07  161.28
 -18   0  18   27.15   55.66
  18  -1 -18 -171.83  112.30
 -18   1  18  -98.82  154.07
   0   1 -19  549.70  168.01
   0  -1  19  417.99  137.69
   0  -1  19  483.21  122.39
   1   1 -19   -3.08  110.36
  -1   1 -19   74.23  118.58
  -1  -1  19   10.99   77.52
   1  -1  19  -41.95   53.39
   1  -1  19  -36.78   80.15
  -1   2 -19   -3.10  118.34
   1  -2  19  -51.56   75.58
   1  -2  19   10.51   50.43
  -2  -1  19   20.54   73.04
   0   2 -19  -80.16  113.90
   0  -2  19  -44.96   48.71
   0  -2  19  -27.96   69.76
  -2   1 -19  -50.12  121.50
   1   2 -19  -68.53  110.19
   2  -1  19  -38.79   87.02
   2  -1  19   72.42   53.14
  -1  -2  19  -19.95   45.26
  -1  -2  19  -16.55   71.64
   2   2 -19    5.51  106.41
  -2   2 -19  -55.17  125.28
  -2  -2  19   25.40   46.53
   2  -2  19  -34.90   83.58
  -2  -2  19   15.61   67.63
   2  -2  19  171.66   53.47
  -2   3 -19  574.16  189.42
   3   2 -19  383.92  174.18
   2  -3  19  535.74  132.15
   2  -3  19  471.72  144.03
  -3  -2  19  746.54  142.71
  -3  -2  19  537.59  133.45
  -1   3 -19  -85.84  120.92
   1  -3  19   58.04   51.42
   1  -3  19  -13.29   65.69
  -3  -1  19   29.04   66.50
   0   3 -19   75.66  128.85
   0  -3  19  269.19   69.19
  -3   0  19  230.74   88.96
   0  -3  19  223.54   83.66
  -3   1 -19   -3.47  124.99
   1   3 -19  -96.91  116.23
  -1  -3  19  107.03   65.68
  -1  -3  19  -15.39   45.19
   3  -1  19  -13.46   88.94
   3  -1  19   39.74   51.76
  -3   2 -19  442.22  187.01
   2   3 -19  361.69  174.60
  -2  -3  19  632.31  127.64
   3  -2  19  611.44  128.43
  -2  -3  19  438.70  135.30
   3  -2  19  456.74  147.25
   3   3 -19  -47.99  103.21
  -3   3 -19    3.39  136.07
   3  -3  19    7.34   72.86
  -3  -3  19  -30.41   55.00
   3  -3  19    9.02   56.20
  -3  -3  19   16.35   47.55
   4   2 -19  126.10  109.27
  -4  -2  19  156.85   64.67
   2  -4  19   88.59   70.66
   2  -4  19   33.43   63.06
  -1   4 -19  307.57  175.72
   1  -4  19  437.11  112.54
  -4  -1  19  408.48  121.81
   1  -4  19  501.57  118.16
   0   4 -19  199.34  129.75
   0  -4  19  -10.21   51.41
   0  -4  19    5.68   59.77
  -4   0  19  -27.08   69.98
   1   4 -19  504.09  170.65
  -4   1 -19  377.25  181.52
   4  -1  19  212.32  144.00
  -1  -4  19  231.55  120.11
   4  -1  19  625.47  118.84
  -1  -4  19  635.42  117.97
   2   4 -19  246.40  122.85
  -4   2 -19   -3.57  149.06
   4  -2  19  -18.82   67.65
  -2  -4  19  160.58   57.48
   4  -2  19  192.74   97.45
  -2  -4  19  171.55   62.67
   3   4 -19  674.76  247.04
   3   4 -19  504.49  172.69
  -3  -4  19  682.43  187.37
   4  -3  19 1251.84  200.25
  -3  -4  19  660.75  192.54
   4   4 -19   47.58  104.06
  -4   4 -19 -115.45  157.23
   4   4 -19   -4.69   24.47
  -4  -4  19  -86.39   47.40
  -4  -4  19   11.66   45.61
   4  -4  19    3.48   72.53
   4  -4  19    2.44   62.35
  -4   5 -19  151.40   44.02
  -4   5 -19   -3.98  170.34
   4  -5  19   78.77   74.26
   4  -5  19    2.50   72.83
  -3   5 -19  385.39  193.76
  -3   5 -19  321.40   91.75
   3  -5  19  436.27  105.86
   3  -5  19  414.37  108.71
  -2   5 -19  380.77   76.53
   2  -5  19  185.85   99.04
   2  -5  19  286.52   94.52
   1  -5  19  218.60  104.39
   1  -5  19  578.69  110.89
   0  -5  19  889.40  161.85
   0  -5  19  465.47  157.53
   1   5 -19  500.72  164.46
  -1  -5  19  231.06   93.62
  -1  -5  19  168.27   90.03
   5  -1  19  494.73   98.27
   2   5 -19  185.09  161.53
   2   5 -19  312.47   81.66
  -2  -5  19  496.66   96.58
  -2  -5  19  403.47   92.41
  -5   3 -19  142.02  182.02
   3   5 -19  367.86   84.02
   3   5 -19  410.34  163.27
  -3  -5  19  494.95   93.95
  -3  -5  19  546.39  100.34
   5  -3  19   39.47  105.11
  -5   4 -19  225.49  174.85
   4   5 -19  174.25   50.76
   4   5 -19  223.40  133.36
   5  -4  19   94.35   83.52
  -4  -5  19  320.62   70.06
  -4  -5  19  257.56   61.63
  -5   5 -19    4.15  171.20
   5  -5  19    2.61   65.08
  -4   6 -19  181.73  181.80
   4  -6  19    5.20   69.90
  -3   6 -19   40.00  162.85
  -3   6 -19   51.86   37.21
   3  -6  19    5.44   57.51
   3  -6  19    2.49   66.37
  -2   6 -19  489.57  205.32
   2  -6  19  410.93  120.82
   2  -6  19  569.07  116.50
  -1   6 -19  238.12  163.11
  -1   6 -19    4.27   30.37
   1  -6  19   11.48   60.04
   1  -6  19  -14.39   54.03
   6   0 -19   80.64   98.37
   0   6 -19  -28.70  162.21
   0   6 -19  -16.20   30.13
   0  -6  19  112.43   61.38
   0  -6  19   31.76   45.77
  -6   1 -19  -59.57  151.62
   1   6 -19  120.54  148.40
   1   6 -19   22.70   26.40
   6  -1  19   -5.12  107.42
  -1  -6  19   74.04   56.71
  -1  -6  19   23.50   43.86
   6  -1  19    2.63   63.28
   2   6 -19  260.77   59.57
  -6   2 -19   39.28  168.93
   2   6 -19  288.87  165.23
  -2  -6  19  460.99   82.19
   6  -2  19    5.15   85.11
   6  -2  19  155.01  116.89
  -2  -6  19  248.77   71.51
   3   6 -19   92.41  138.20
   3   6 -19  113.10   30.55
  -6   3 -19 -207.97  163.08
  -3  -6  19   49.31   44.88
   6  -3  19  113.92   87.88
  -3  -6  19  111.91   53.52
   6  -3  19    7.74   64.65
  -6   4 -19    4.07  165.84
   4   6 -19  128.68   35.00
   6  -4  19   13.27   74.21
  -4  -6  19  121.64   46.74
  -4  -6  19  194.72   60.42
  -6   6 -19  -51.08   39.51
   6  -6  19   52.70   68.19
  -6   7 -19    5.40   44.51
  -6   7 -19   -4.54  194.11
   6  -7  19 -118.39   61.31
   6  -7  19  -58.76   82.88
  -5   7 -19   54.28   40.19
  -3   7 -19  133.01  180.35
   3  -7  19   25.66   76.83
  -2   7 -19  171.64  166.25
  -2   7 -19   24.95   34.17
   2  -7  19  -41.90   68.43
   2  -7  19    2.43   52.56
  -1   7 -19  131.29   43.85
  -1   7 -19  243.13  165.86
   1  -7  19  157.11   57.31
   1  -7  19   83.06   71.34
   7   0 -19   26.12  111.30
   0   7 -19    6.09   29.56
   0   7 -19   40.73  155.33
   0  -7  19  -25.61   47.10
   0  -7  19  -86.96   60.40
   1   7 -19   90.03  161.50
   1   7 -19  125.53   37.90
  -7   1 -19   49.98  160.84
  -1  -7  19  185.36   64.22
  -1  -7  19   72.94   51.79
   7  -1  19  213.79  119.69
   7  -1  19   38.59   69.75
  -7   2 -19 -251.36  163.90
   2   7 -19   25.30   27.15
   2   7 -19  432.02  157.63
   7  -2  19   -4.79   87.53
   7  -2  19    2.70   68.02
  -2  -7  19   46.30   40.85
  -2  -7  19   36.12   57.11
  -7   3 -19  449.92  190.46
   3   7 -19  461.14  173.39
   3   7 -19  292.55   61.19
   7  -3  19    2.69   87.17
  -3  -7  19  244.24   69.54
  -3  -7  19  305.69   84.36
  -4  -7  19  -15.56   53.92
  -4  -7  19   38.41   37.03
  -7   5 -19  -71.78   43.10
   7  -5  19   24.29   71.98
  -7   6 -19  -39.32   45.58
  -7   6 -19 -187.27  197.05
   7  -6  19    3.22   67.83
   7  -6  19   -2.98   81.35
  -7   7 -19   82.44   57.93
   7  -7  19    3.09  102.95
  -7   8 -19   81.43   46.30
  -7   8 -19  119.04  207.91
   7  -8  19   29.02   63.97
   7  -8  19   41.58   93.84
  -6   8 -19 -517.25  205.35
   6  -8  19    5.59   60.14
   6  -8  19    3.02   83.76
  -5   8 -19   29.44   41.30
  -5   8 -19   77.20  182.53
   5  -8  19    2.69   56.05
   5  -8  19   -5.76   73.93
   4  -8  19  320.58   97.54
   3  -8  19   -2.49   50.27
  -1   8 -19  121.76   34.56
  -1   8 -19   -3.83  162.16
   1  -8  19  -38.88   63.30
   0   8 -19  -10.71   30.36
   0   8 -19  240.98  165.75
   8   0 -19   83.81  122.86
   0  -8  19  119.50   65.24
   0  -8  19  -83.51   48.67
   8  -1 -19   -2.90  120.95
   1   8 -19  -81.41  157.81
   1   8 -19    2.04   27.61
  -8   1 -19   -4.38  164.83
  -1  -8  19   22.69   59.37
  -1  -8  19  -10.49   43.43
   2   8 -19  250.49  166.18
   2   8 -19   55.38   31.06
  -2  -8  19   26.15   42.13
  -2  -8  19  127.43   61.52
   3   8 -19    1.81   24.28
   3   8 -19   56.66  163.51
  -3  -8  19    2.13   57.50
  -3  -8  19  -11.51   40.94
   8  -4  19   65.70   88.22
  -8   5 -19  -90.20   43.03
  -8   5 -19  191.82  195.87
   8  -5  19   -3.01   79.71
   8  -5  19   -3.60   76.43
  -8   6 -19   -4.90  213.17
  -8   6 -19  -23.50   47.19
   8  -6  19   33.35   72.96
   8  -6  19  -24.94   83.44
  -8   7 -19  155.88  222.72
  -8   7 -19  263.99   55.49
   8  -7  19    9.33   73.07
   8  -7  19    3.26   96.29
  -8   8 -19 -241.61  219.06
  -8   8 -19    3.03   44.34
   8  -8  19   20.34   92.94
   8  -8  19 -114.32   62.65
  -8   9 -19   40.94   49.82
  -8   9 -19   10.00  214.98
   8  -9  19   30.62   62.95
   8  -9  19   97.92   97.91
  -7   9 -19    3.03   43.16
  -7   9 -19  -28.43  197.09
   7  -9  19 -145.06   85.49
   7  -9  19 -168.72   62.78
  -6   9 -19   -4.47  187.78
   6  -9  19   15.51   75.60
  -5   9 -19    8.53  176.90
  -5   9 -19    2.79   42.59
   5  -9  19   -2.76   56.84
   5  -9  19    2.93   76.22
  -4   9 -19  198.22  183.80
  -4   9 -19   70.38   46.24
   4  -9  19   21.28   57.08
   4  -9  19  105.21   78.52
  -3   9 -19  152.07  169.94
  -3   9 -19   36.32   38.31
   3  -9  19    5.24   69.07
   3  -9  19   -2.56   52.80
  -2   9 -19   69.38   38.61
   2  -9  19    2.47   51.52
   2  -9  19   -2.49   48.18
   9   1 -19  -21.98  130.54
   9   0 -19  158.96  140.37
   9  -1 -19   56.90  127.16
   1   9 -19 -181.28  163.73
   1   9 -19  163.67   35.83
  -1  -9  19  112.64   61.61
  -1  -9  19   -2.20   40.47
   2   9 -19  -29.93  163.13
   2   9 -19  -24.84   29.06
  -2  -9  19   43.75   57.51
   9  -2  19   51.54  109.54
  -2  -9  19    6.33   44.13
   3   9 -19  -40.58  164.35
   9  -3  19   37.07  103.63
   9  -3  19  306.17   77.45
   9  -4  19  413.18  109.68
   9  -4  19  175.23  111.50
  -9   5 -19   63.31  205.16
  -9   5 -19   -3.13   48.39
   9  -5  19   14.92   80.34
   9  -5  19  132.20   87.61
  -9   6 -19   15.36   44.65
  -9   6 -19  211.64  225.29
   9  -6  19  -45.63   91.27
   9  -6  19    3.37   71.62
  -9   7 -19 -416.25  225.83
  -9   7 -19    3.09   48.18
   9  -7  19   13.75   92.72
   9  -7  19   32.14   69.71
  -9   8 -19   72.83   50.33
  -9   8 -19   96.85  226.22
   9  -8  19    3.11   66.08
   9  -8  19   -3.58   98.77
  -9   9 -19    9.94   45.89
   9  -9  19 -193.17   65.25
   9  -9  19  149.54  102.90
  -9  10 -19   43.15  224.68
  -9  10 -19  -30.90   51.89
   9 -10  19   32.41   66.84
   9 -10  19    3.90  102.31
  -8  10 -19 -160.65  212.80
  -8  10 -19    3.30   49.16
   8 -10  19 -138.17   66.49
   8 -10  19    3.63   97.77
  -7  10 -19    9.53   47.94
  -7  10 -19 -131.92  195.62
   7 -10  19  -63.82   63.79
   7 -10  19  -44.10   88.07
  -6  10 -19   13.46  181.92
   6 -10  19  -25.21   79.65
  -5  10 -19 -103.09   41.72
  -5  10 -19   -4.29  170.82
   5 -10  19  -45.54   55.51
   5 -10  19    2.94   78.10
  -4  10 -19  -24.83  168.37
  -4  10 -19    2.84   39.97
   4 -10  19  -90.85   55.63
   4 -10  19  -55.57   73.29
  -3  10 -19   -2.73   41.91
   3 -10  19    5.26   66.06
   3 -10  19   61.31   56.03
  -2  10 -19    2.62   37.49
   2 -10  19   40.15   67.27
   2 -10  19    2.55   49.60
  10   1 -19 -309.64  164.07
  10   1 -19   33.21   50.20
  -1  10 -19    2.54   36.96
   1 -10  19   14.83   50.92
   1 -10  19 -163.19   65.21
  10   0 -19 -258.80  158.12
   0  10 -19  -48.99   34.92
   0 -10  19    9.63   49.04
   0 -10  19   -2.35   42.10
 -10   1 -19  687.72  203.42
  10  -1  19  139.01  151.16
 -10   2 -19  147.72  191.91
  10  -2  19  -31.16  109.94
  10  -2  19 -137.13   82.51
 -10   3 -19   38.48  194.74
  10  -3  19   51.62   78.37
  10  -3  19   23.95  102.24
  -3 -10  19   -4.29   59.57
 -10   4 -19  -40.29   50.48
 -10   4 -19 -214.90  207.26
  10  -4  19    4.19   93.26
  10  -4  19  -34.25   78.86
 -10   5 -19 -193.60  215.99
 -10   5 -19   -3.27   49.05
  10  -5  19    6.52   86.78
  10  -5  19   53.87   82.48
 -10   6 -19 -118.55  229.10
 -10   6 -19    9.70   49.24
  10  -6  19   -3.42   88.41
  10  -6  19    6.96   73.54
 -10   7 -19   51.67   48.46
 -10   7 -19    5.60  236.62
  10  -7  19   49.77   73.74
  10  -7  19 -414.37   96.26
 -10   8 -19  -72.76   51.14
 -10   8 -19 -269.37  249.84
  10  -8  19   11.38  104.55
  10  -8  19    3.22   66.30
 -10   9 -19   37.96   50.49
 -10   9 -19  138.46  238.12
  10  -9  19    3.99  104.62
  10  -9  19    3.27   66.53
 -10  10 -19   40.46  247.79
 -10  10 -19   32.17   50.86
  10 -10  19    3.34   71.49
  10 -10  19   20.87  108.44
 -10  11 -19   45.62   55.77
 -10  11 -19  152.51  254.59
  10 -11  19   -3.48   70.54
  10 -11  19    4.40  115.08
  -9  11 -19    3.65   50.88
  -9  11 -19  -97.72  231.13
   9 -11  19   28.60  105.41
   9 -11  19    3.38   67.45
  -8  11 -19   -3.52   48.23
  -8  11 -19  168.24  213.21
   8 -11  19   39.34   66.74
   8 -11  19   -3.76   98.50
  -7  11 -19 -192.20  204.42
  -7  11 -19  101.84   49.65
   7 -11  19  -19.07   62.11
   7 -11  19  -65.63   90.01
  -6  11 -19   36.50  181.21
   6 -11  19    6.46   79.39
  -5  11 -19    3.17   41.52
   5 -11  19   74.74   59.05
   5 -11  19  -21.07   80.52
  -4  11 -19  -36.78   43.36
   4 -11  19   48.94   57.36
   4 -11  19  -14.34   74.33
  -3  11 -19   -3.01   39.34
   3 -11  19   11.19   54.79
   3 -11  19   13.57   70.15
  -2  11 -19  -43.65   39.89
   2 -11  19    2.57   67.19
  -1  11 -19  -11.24   38.14
   1 -11  19   59.63   64.72
   0 -11  19  310.00   97.48
  11  -1 -19 -105.50  152.99
 -11   1 -19   86.64  193.71
  11  -1  19  -23.15  130.67
  -1 -11  19   37.89   62.75
 -11   2 -19 -253.87  202.95
  11  -2  19   31.68   74.47
  11  -2  19  117.24  122.94
 -11   3 -19   10.08  210.10
  11  -3  19  100.44  110.57
  11  -3  19 -255.53   80.10
 -11   4 -19   -3.52   52.40
 -11   4 -19  -35.89  223.84
  11  -4  19   22.57   79.23
  11  -4  19  158.77   97.46
 -11   5 -19    5.34  228.03
 -11   5 -19   -3.42   50.41
  11  -5  19  -19.12   83.67
  11  -5  19  -60.77   93.30
 -11   6 -19  -95.67  243.48
 -11   6 -19  -54.10   49.38
  11  -6  19   -3.57   90.32
  11  -6  19    3.58   80.26
 -11   7 -19    3.37   51.88
 -11   7 -19  961.86  277.24
  11  -7  19    3.40   72.73
  11  -7  19  124.03  102.60
 -11   8 -19    6.96   49.37
 -11   8 -19  203.02  271.01
  11  -8  19   23.21   70.93
  11  -8  19    4.01  104.93
 -11   9 -19 -648.91  274.33
 -11   9 -19   39.53   51.94
  11  -9  19    3.37   68.10
  11  -9  19    4.23  110.57
 -11  10 -19    6.25  255.43
 -11  10 -19   11.17   49.28
  11 -10  19   -4.48  123.91
  11 -10  19    3.44   68.83
 -11  11 -19 1024.62  303.10
 -11  11 -19   91.10   85.81
  11 -11  19  354.84  102.81
  11 -11  19  404.32  156.95
 -11  12 -19    6.49  274.92
  11 -12  19  150.94  128.31
 -10  12 -19  292.96  260.95
  10 -12  19  204.10  131.22
  -9  12 -19   31.95   55.00
  -9  12 -19  -50.33  227.33
   9 -12  19   76.42  113.51
  -8  12 -19 -367.77  228.21
  -8  12 -19   -3.86   51.82
   8 -12  19 -348.74  101.80
  -7  12 -19    3.72   52.41
   7 -12  19    3.60   91.39
  12   2 -19 -225.52  172.90
  12   1 -19  154.77   64.87
  12   1 -19   16.22  171.94
 -12  -1  19   79.37   79.21
  12   0 -19  -78.89  177.11
 -12   0  19   46.45   80.75
  12  -1 -19  312.77  180.98
  12  -1  19   46.95  137.72
 -12   2 -19 -161.38  215.01
  12  -2  19   63.46  119.01
  12  -2  19  -29.57   79.39
 -12   3 -19 -163.41  215.68
  12  -3  19   55.60   80.84
  12  -3  19    4.86  108.50
 -12   4 -19   16.14  222.77
  12  -4  19   23.12   83.86
  12  -4  19    4.24   92.98
 -12   5 -19  142.51   76.45
 -12   5 -19 1047.23  259.63
  12  -5  19  338.88  110.14
  12  -5  19   81.83  100.96
 -12   6 -19   82.12  260.73
 -12   6 -19  -17.66   52.75
  12  -6  19   18.43   99.77
  12  -6  19   25.64   77.96
 -12   7 -19 -193.38  280.37
 -12   7 -19   -3.57   53.22
  12  -7  19   20.39   67.51
  12  -7  19    7.85  101.44
 -12   8 -19    7.29   52.40
 -12   8 -19  234.48  288.12
  12  -8  19   88.05  106.69
  12  -8  19    3.41   71.94
 -12   9 -19   14.95   49.41
 -12   9 -19   -6.71  287.97
  12  -9  19  -62.25   74.74
  12  -9  19    8.97  116.38
 -12  10 -19   47.74  313.44
 -12  10 -19   15.51   61.74
  12 -10  19  715.29  141.80
  12 -10  19  -21.23   80.76
 -12  11 -19   -6.91  295.93
 -12  11 -19   33.04   64.41
  12 -11  19  -32.87   73.49
  12 -11  19    5.08  135.40
 -12  12 -19   77.17  304.69
  12 -12  19    5.43  144.04
  13   2 -19  -80.86   69.70
  13   2 -19 -575.18  193.59
  13   1 -19    3.64   67.22
  13   1 -19   52.68  195.37
 -13  -1  19  147.35   88.64
  13   0 -19  522.83  210.07
  13   0 -19  194.49   83.43
 -13   0  19  105.05  100.93
  13  -1 -19  214.85  188.63
  13  -1  19   -5.78  128.01
 -13   2 -19 -289.32  238.18
  13  -2  19   37.51  124.16
  13  -2  19  -54.51   87.05
 -13   3 -19   -5.50  230.44
  13  -3  19   -3.34   84.27
  13  -3  19   18.83  104.82
 -13   4 -19   -3.84   56.39
 -13   4 -19  191.91  243.60
  13  -4  19    3.40   90.60
  13  -4  19   38.71   95.94
 -13   5 -19  419.46  266.66
 -13   5 -19  -44.75   54.18
  13  -5  19  -56.78   92.94
  13  -5  19    3.95   86.89
 -13   6 -19 -576.77  277.16
 -13   6 -19  137.30   52.59
  13  -6  19  -32.81   83.25
  13  -6  19  -60.54   97.88
 -13   7 -19  215.41  289.23
 -13   7 -19   48.48   58.76
  13  -7  19  -38.12   73.59
  13  -7  19   20.34  106.54
 -13   8 -19  180.33  310.33
 -13   8 -19  -72.37   49.46
  13  -8  19   34.78  116.59
  13  -8  19  -20.93   72.44
 -13   9 -19    3.88   58.03
 -13   9 -19 -861.77  332.30
  13  -9  19    4.71  130.79
  13  -9  19 -219.60   74.58
 -13  10 -19   -4.06   56.66
 -13  10 -19 -346.83  325.30
  13 -10  19   50.12   71.69
  13 -10  19   -5.05  133.09
 -13  11 -19   60.23  339.23
 -13  11 -19    4.37   58.34
  13 -11  19   -5.41  141.45
 -13  12 -19 -222.54  333.20
  13 -12  19   -5.80  151.39
  14   2 -19  -63.38   73.53
  14   2 -19 -181.16  202.27
  14   1 -19   44.98   75.35
  14   1 -19  138.06  210.51
 -14  -1  19  -57.55   37.24
 -14  -1  19   97.05  101.33
  14   0 -19 -128.23   73.52
  14   0 -19   67.14  203.50
 -14   0  19   78.20  104.80
  14  -1 -19  154.29  198.68
 -14   2 -19  114.33  228.97
 -14   3 -19  -28.76   60.55
 -14   3 -19 -119.66  238.57
  14  -3  19   34.26   83.77
 -14   4 -19   -5.87  252.57
 -14   4 -19  -39.74   62.15
  14  -4  19   37.78   91.67
  14  -4  19   -3.48   88.64
 -14   5 -19   62.52   61.28
 -14   5 -19 -505.23  265.78
  14  -5  19  -54.51   82.97
  14  -5  19   50.23   91.42
 -14   6 -19  153.55  275.92
 -14   6 -19 -185.33   58.20
  14  -6  19  -11.06   80.62
  14  -6  19   53.56   98.70
 -14   7 -19 -543.67  317.99
 -14   7 -19   -3.89   58.48
  14  -7  19  -83.01  123.40
  14  -7  19 -166.11   83.61
 -14   8 -19  320.33  335.11
 -14   8 -19 -103.04   56.17
  14  -8  19 -363.88  118.03
  14  -8  19  -31.86   77.84
 -14   9 -19   -4.06   58.29
 -14   9 -19 -184.27  344.30
  14  -9  19  145.95  131.11
  14  -9  19   60.69   74.93
 -14  10 -19   -8.01  345.04
 -14  10 -19   -4.23   60.16
  14 -10  19    3.66   75.78
  14 -10  19   90.14  141.13
 -14  11 -19  351.47  373.10
 -14  11 -19    4.54   59.16
  14 -11  19    5.71  150.24
  15   2 -19    4.45   84.87
  15   2 -19   80.64  206.14
 -15  -2  19  -27.37   39.46
 -15  -2  19   29.41  107.89
  15   1 -19 -216.06   85.64
  15   1 -19   41.03  217.37
 -15  -1  19   24.50  117.00
 -15  -1  19  -83.75   41.72
  15   0 -19  134.04   84.58
  15   0 -19  237.01  222.34
 -15   0  19    5.07  106.72
  15  -1 -19 -243.03  219.11
 -15   1  19   16.02  111.07
  15  -2 -19 -185.75  212.53
  16   2 -19 -348.37  232.50
  16   2 -19  -69.65   94.92
 -16  -2  19  -49.22  122.13
 -16  -2  19   -4.33   44.29
  16   1 -19   51.38   95.89
  16   1 -19 -449.16  247.87
 -16  -1  19   13.24   46.63
 -16  -1  19  163.54  124.42
  16   0 -19  109.64   90.82
  16   0 -19  166.65  237.66
 -16   0  19  -73.02  120.97
 -16   0  19 -113.26   45.31
  16  -1 -19 -138.32  238.95
 -16   1  19 -105.91  112.56
  16  -2 -19 -310.98  226.77
  17   2 -19  -70.21  244.97
  17   2 -19   72.05  100.78
 -17  -2  19  133.91  137.58
 -17  -2  19  -14.45   45.19
  17   1 -19 -108.79  104.16
  17   1 -19    5.97  250.77
 -17  -1  19   29.48   50.27
 -17  -1  19   91.02  132.99
  17   0 -19   88.76   99.44
  17   0 -19   59.57  256.54
 -17   0  19  -18.68  132.93
 -17   0  19  -10.02   51.84
  17  -1 -19   89.05  249.04
 -17   1  19  -97.52  139.71
  18   2 -19   -6.14  114.39
 -18  -2  19  -21.15   49.63
 -18  -2  19   33.84  146.73
  18   1 -19    6.34  118.29
 -18  -1  19 -136.29   57.83
 -18  -1  19  -81.11  150.26
  18   0 -19  203.30  121.50
 -18   0  19   62.37  160.71
   0   1 -20 -157.23  124.65
   0  -1  20  -86.44   83.84
  -1   1 -20 -127.14  126.43
   1   1 -20   -3.28  110.09
   1  -1  20   72.96   88.45
   1  -1  20  127.20   54.17
  -1  -1  20   61.71   85.08
  -1   2 -20 -105.50  130.18
   1  -2  20  -24.74   56.76
  -2  -1  20   -3.65   72.63
   1  -2  20   35.38   82.69
   0   2 -20    3.16  118.46
   0  -2  20   41.22   51.56
   0  -2  20  -11.20   78.69
  -2   1 -20   70.95  131.58
   1   2 -20   -9.12  121.27
   2  -1  20    4.83   55.01
  -1  -2  20   25.53   48.93
  -1  -2  20    3.54   75.67
   2  -1  20  -13.57   88.30
  -2   2 -20 -282.11  142.71
   2   2 -20  161.14  120.05
  -2  -2  20   90.46   72.60
  -2  -2  20  258.16   54.71
   2  -2  20    4.13   87.66
   2  -2  20    9.30   62.61
   3   2 -20  108.52  126.38
   2  -3  20  313.17   71.27
   2  -3  20   11.24   84.83
  -3  -2  20   52.45   65.49
  -3  -2  20   72.55   78.09
  -1   3 -20    3.26  149.73
   1  -3  20  254.44   75.23
   1  -3  20  295.73   91.38
  -3  -1  20  237.89   94.61
   0   3 -20  -34.18  127.51
   0  -3  20   -3.39   70.32
   0  -3  20   -4.24   56.40
   1   3 -20  -53.32  138.08
  -3   1 -20    3.68  154.40
   3  -1  20  268.67   81.08
   3  -1  20  176.21  113.12
  -1  -3  20  349.27   89.05
  -1  -3  20  340.16   74.01
   2   3 -20  400.11  134.49
  -2  -3  20   39.27   85.11
  -2  -3  20  123.77   71.16
   3  -2  20  393.10   84.88
   3  -2  20  121.62  107.52
   3   3 -20  439.43  185.11
  -3   3 -20  399.33  208.17
   3  -3  20  601.61  151.83
  -3  -3  20  483.28  137.89
  -3  -3  20  481.16  143.09
   3  -3  20  808.93  137.70
  -3   4 -20   37.42  156.67
   4   3 -20  -20.87  111.19
  -4  -3  20    7.64   58.38
  -4  -3  20   23.41   50.14
   3  -4  20  -64.09   66.82
   3  -4  20    3.67   76.43
   4   2 -20  440.20  166.67
  -2   4 -20  424.61  189.86
  -4  -2  20  629.95  130.16
   2  -4  20  505.40  125.80
   2  -4  20  479.31  133.48
  -4  -1  20  -25.95   70.16
   1  -4  20    9.71   74.02
   1  -4  20 -101.75   61.14
   0   4 -20   32.17  148.40
   0  -4  20  344.75   76.89
   0  -4  20  180.96   83.47
  -4   0  20  222.63   93.59
   1   4 -20    3.04  127.85
  -4   1 -20 -356.64  150.60
   4  -1  20 -405.48  106.35
  -1  -4  20   11.56   62.64
   4  -1  20 -110.77   61.04
  -1  -4  20  -62.39   57.25
   2   4 -20  332.34  153.29
  -4   2 -20  252.73  172.51
   4  -2  20  355.75  127.89
   4  -2  20   80.30  101.83
  -2  -4  20  434.27  102.04
  -2  -4  20  512.41  100.02
   3   4 -20  -96.95  112.07
  -4   3 -20    3.78  148.08
   3   4 -20   24.75   29.39
   4  -3  20  -12.53   64.40
  -3  -4  20  -38.29   53.80
  -3  -4  20   32.61   52.39
   4  -3  20    4.12   85.05
  -4   4 -20 -231.11  165.06
   4   4 -20  163.20   33.46
   4  -4  20    2.58   67.68
   4  -4  20   34.61   88.98
  -4  -4  20   67.89   52.32
  -4  -4  20   69.07   54.86
  -4   5 -20   -4.18  173.00
   4  -5  20 -127.43   72.30
  -3   5 -20  453.85  200.04
  -3   5 -20  528.22   91.07
   3  -5  20  379.40  113.27
   3  -5  20  139.61  110.99
  -2   5 -20  518.44  115.00
  -2   5 -20  367.61  211.15
   2  -5  20  466.35  130.12
   2  -5  20  592.99  131.99
  -1   5 -20  318.59  205.71
  -1   5 -20  418.94  115.82
   1  -5  20  733.68  130.53
   1  -5  20  501.45  131.49
   0   5 -20   24.72   34.03
   0   5 -20    7.06  152.64
   0  -5  20 -100.47   59.16
   0  -5  20    2.69   55.67
  -5   1 -20  356.43  187.86
   1   5 -20  389.06  187.90
   1   5 -20  511.63   98.96
   5  -1  20  235.64  115.48
  -1  -5  20  442.61  113.29
  -1  -5  20  483.94  115.44
   2   5 -20  430.81  183.20
   2   5 -20  528.31   93.82
  -5   2 -20  383.30  192.36
  -2  -5  20  331.95  104.57
  -2  -5  20  408.02  111.40
   5  -2  20  222.46  113.28
  -5   3 -20  289.35  188.83
   3   5 -20  264.11  155.79
   3   5 -20  341.47   70.56
   5  -3  20    2.60   96.29
  -3  -5  20  313.20   83.72
  -3  -5  20  416.94   90.33
  -5   4 -20   20.48  169.10
  -4  -5  20  183.14   58.54
  -4  -5  20   94.83   47.84
   5  -4  20   72.64   71.62
  -5   6 -20    2.76   43.69
   5  -6  20   12.81   69.42
  -3   6 -20  140.12  189.29
   3  -6  20   21.14   75.62
  -2   6 -20  356.47  176.45
  -2   6 -20   94.04   43.08
   2  -6  20   91.94   67.65
   2  -6  20  157.42   75.25
  -1   6 -20  316.38  169.57
  -1   6 -20  126.03   43.83
   1  -6  20   70.76   73.14
   1  -6  20  116.24   63.99
   0   6 -20  -53.29  157.53
   0   6 -20   30.32   31.35
   0  -6  20   21.10   64.30
   0  -6  20  -48.80   50.89
  -6   1 -20   62.85  161.43
   1   6 -20  140.64   35.34
   1   6 -20   58.31  158.42
  -1  -6  20  101.12   53.49
   6  -1  20   39.07   68.54
   6  -1  20   -5.44  102.46
  -1  -6  20    2.25   65.43
  -6   2 -20    4.14  163.62
   2   6 -20  148.86  158.04
   2   6 -20  162.23   37.12
  -2  -6  20   34.40   63.43
   6  -2  20   -2.73   73.58
  -2  -6  20  107.77   51.88
   3   6 -20  436.25  161.10
   3   6 -20  222.17   53.77
  -3  -6  20  160.98   64.35
  -3  -6  20  225.18   76.44
  -6   5 -20   11.72   44.75
   6  -5  20   -3.70   79.81
  -6   6 -20  226.53  206.78
   6  -6  20  -56.69   72.32
   6  -6  20   59.92   83.78
  -6   7 -20  779.90  230.66
   6  -7  20  -77.38  105.33
  -5   7 -20    2.76   41.52
  -5   7 -20  -97.41  207.58
   5  -7  20 -194.67   66.94
   5  -7  20   26.56   80.94
  -4   7 -20   -4.46  157.89
  -4   7 -20    2.65   38.50
   4  -7  20  -37.87   63.01
   4  -7  20   -2.82   67.46
  -2   7 -20    4.19  186.85
   2  -7  20   -2.62   73.13
  -1   7 -20  -43.66   35.64
  -1   7 -20   -4.07  174.21
   1  -7  20  225.22   51.38
   1  -7  20   12.61   67.85
   0   7 -20  -55.46  177.41
   0   7 -20   21.68   32.30
   0  -7  20   42.13   48.78
   0  -7  20  -58.41   64.54
   1   7 -20   38.42  166.01
   1   7 -20   51.37   34.32
  -1  -7  20   77.71   49.73
  -1  -7  20  215.74   65.71
   2   7 -20  159.09   45.08
   2   7 -20   44.45  172.56
  -2  -7  20  110.34   55.95
  -2  -7  20  279.65   71.43
   3   7 -20  -38.93  164.55
   3   7 -20   12.54   27.64
  -3  -7  20   13.55   39.46
  -3  -7  20   -2.15   59.94
   7  -3  20   -4.72  100.68
   7  -4  20   59.73   89.25
   7  -4  20   -2.92   66.88
  -7   5 -20    3.06   46.08
  -7   5 -20    4.70  197.06
   7  -5  20   80.92   81.56
   7  -5  20    3.05   79.23
  -7   6 -20   80.90   51.83
  -7   6 -20  611.24  228.23
   7  -6  20   53.28   94.97
   7  -6  20 -183.83   77.31
  -7   7 -20 4062.73 1110.92
  -7   8 -20  -60.62  214.67
  -7   8 -20  -67.78   49.31
   7  -8  20    3.34   95.29
   7  -8  20   -3.09   64.24
  -6   8 -20  -95.80  206.53
   6  -8  20   -3.18   83.49
  -5   8 -20 -161.59   45.85
  -5   8 -20 -239.59  205.69
   5  -8  20  -78.57   81.27
   5  -8  20   11.44   62.78
  -4   8 -20    2.72   42.16
  -4   8 -20 -106.24  194.58
   4  -8  20 -219.83   62.19
   4  -8  20  -92.24   82.33
  -3   8 -20  545.44  181.06
  -3   8 -20   -2.60   39.15
   3  -8  20   -2.76   69.55
   3  -8  20    2.64   56.93
  -2   8 -20   -2.48   37.03
   2  -8  20    5.06   54.40
   0   8 -20   40.65  176.51
   0  -8  20   74.85   69.63
   1   8 -20   -3.99  173.24
   1   8 -20  -14.90   31.30
  -1  -8  20   33.05   44.76
   8  -1  20 -195.00  126.12
  -1  -8  20   53.16   65.77
   2   8 -20  -12.06   27.19
   2   8 -20  -70.20  177.73
  -2  -8  20  -10.55   41.58
  -2  -8  20 -151.95   63.68
   8  -2  20  117.01  110.46
   3   8 -20    1.87   26.90
   3   8 -20    3.75  167.46
  -8   3 -20  527.51  185.45
  -3  -8  20  -11.99   41.33
   8  -3  20    4.78   96.20
  -3  -8  20  -54.12   63.62
   8  -3  20   -2.96   71.91
  -8   4 -20 -538.59  208.33
   8  -4  20 -274.42   99.65
   8  -4  20  -30.38   82.51
  -8   5 -20  -35.17   49.64
   8  -5  20  -28.66   84.49
   8  -5  20   -3.88   86.87
  -8   6 -20   56.79  213.32
  -8   6 -20   37.51   49.69
   8  -6  20    3.60   79.94
   8  -6  20    3.28   86.19
  -8   7 -20   -3.13   51.50
  -8   7 -20  106.40  235.84
   8  -7  20 -198.73   95.07
   8  -7  20   -3.34   71.19
  -8   8 -20  163.87   58.06
  -8   8 -20 -294.30  228.30
   8  -8  20    3.20   69.95
   8  -8  20    3.54   91.58
  -8   9 -20   43.31   50.78
  -8   9 -20 -117.15  223.30
   8  -9  20   29.32   69.98
   8  -9  20   73.24   96.35
  -7   9 -20    5.00  209.96
  -7   9 -20  137.60   50.23
   7  -9  20    3.44   91.44
   7  -9  20   28.30   68.07
  -6   9 -20  223.01  204.74
   6  -9  20    3.26   87.90
  -5   9 -20  -47.21   43.95
  -5   9 -20    4.57  188.05
   5  -9  20 -185.07   80.24
   5  -9  20    8.77   62.88
  -4   9 -20    2.83   44.70
  -4   9 -20  136.58  192.56
   4  -9  20   -2.82   56.24
   4  -9  20    2.94   79.95
  -3   9 -20   42.73  186.90
  -3   9 -20   -2.71   36.80
   3  -9  20    2.70   53.56
   3  -9  20   81.25   74.12
  -2   9 -20  209.11  187.67
  -2   9 -20   67.88   43.21
   2  -9  20  132.16   80.19
   2  -9  20    7.79   59.46
  -1   9 -20 1242.79  252.12
   1  -9  20  795.07  192.03
   0  -9  20   -2.37   46.96
   9  -1 -20  138.10  151.74
  -9   1 -20  -29.07  197.75
   9  -1  20  -41.91  140.54
  -9   2 -20  903.22  221.49
   9  -2  20  212.90  106.64
   9  -2  20    5.51  140.17
   3   9 -20 -456.77  192.58
  -9   3 -20 -135.28  197.96
   3   9 -20  -40.67   28.63
  -3  -9  20 -101.06   65.97
   9  -3  20  -61.70   81.61
   9  -3  20    4.97  104.33
  -3  -9  20   33.99   40.35
  -9   4 -20   78.43  199.48
   9  -4  20  -32.02   99.32
   9  -4  20  -75.97   83.83
  -9   5 -20  107.06  203.24
  -9   5 -20    3.35   51.14
   9  -5  20 -233.16   92.73
   9  -5  20   -3.30   86.93
  -9   6 -20 -391.70  223.97
  -9   6 -20   35.99   51.23
   9  -6  20    3.72   80.25
   9  -6  20    3.45   88.74
  -9   7 -20  -44.47  231.31
  -9   7 -20   69.29   51.83
   9  -7  20  -97.10   94.40
   9  -7  20   51.83   77.75
  -9   8 -20   20.13   50.73
  -9   8 -20 -220.51  240.88
   9  -8  20   -3.75   98.45
   9  -8  20   53.07   70.58
  -9   9 -20   31.25   50.08
  -9   9 -20    5.66  245.70
   9  -9  20 -128.28  102.62
   9  -9  20  -13.49   72.73
  -9  10 -20  -84.81  237.08
  -9  10 -20  -10.81   59.12
   9 -10  20   64.67  107.09
   9 -10  20  -88.74   72.13
  -8  10 -20  -27.52   50.94
  -8  10 -20   36.95  219.76
   8 -10  20    3.79  101.70
   8 -10  20   -3.31   70.20
  -7  10 -20   62.93   49.02
  -7  10 -20  125.17  211.41
   7 -10  20   31.92   94.49
   7 -10  20    3.20   65.97
  -6  10 -20  -47.44  198.32
   6 -10  20    3.32   86.34
  -5  10 -20  -27.39  190.52
  -5  10 -20  117.06   47.82
   5 -10  20   59.66   62.45
   5 -10  20  -12.55   79.75
  -4  10 -20    4.40  187.91
  -4  10 -20    2.96   43.23
   4 -10  20    8.88   79.85
   4 -10  20  -25.91   58.60
  -3  10 -20   17.09   40.56
  -3  10 -20   -4.29  178.28
   3 -10  20  -33.63   76.44
   3 -10  20   38.93   58.61
  -2  10 -20    2.73   39.63
  -2  10 -20  311.67  181.54
   2 -10  20  143.08   71.44
   2 -10  20   26.89   56.04
  -1  10 -20  -91.43  178.24
  -1  10 -20  -15.70   40.06
   1 -10  20   90.69   69.14
   1 -10  20    2.57   51.78
   0  10 -20    4.12  176.15
   0  10 -20    2.52   39.34
   0 -10  20  152.43   69.45
   0 -10  20   44.80   53.97
 -10   1 -20 -234.29  216.30
  10  -1  20    6.17  162.02
  -1 -10  20  741.02  112.06
 -10   2 -20    5.01  193.38
  10  -2  20    6.42   75.03
  10  -2  20  -38.89  120.79
 -10   3 -20 -166.94  207.97
  10  -3  20   -9.63   82.26
  10  -3  20   10.29  105.77
 -10   4 -20  144.13  216.20
  10  -4  20   52.60   81.38
  10  -4  20   67.96   99.43
 -10   5 -20   -3.49   51.75
 -10   5 -20   53.42  227.43
  10  -5  20   -4.15   87.36
  10  -5  20   17.18   91.35
 -10   6 -20 -201.76  242.89
 -10   6 -20  -78.79   50.49
  10  -6  20   -3.75   83.42
  10  -6  20   68.67   95.62
 -10   7 -20  170.29  256.52
 -10   7 -20 -103.19   52.11
  10  -7  20  -42.83   77.17
  10  -7  20  -86.62  104.07
 -10   8 -20  132.85  269.72
 -10   8 -20  248.94   62.22
  10  -8  20   63.56  111.85
  10  -8  20   48.01   77.24
 -10   9 -20   91.25  250.31
 -10   9 -20    7.23   51.50
  10  -9  20  -55.42   73.88
  10  -9  20   41.44  109.97
 -10  10 -20   48.53  252.85
 -10  10 -20    3.75   51.64
  10 -10  20   -3.52   73.03
  10 -10  20  -69.52  113.39
 -10  11 -20  -67.31  262.72
 -10  11 -20  -91.17   57.64
  10 -11  20  -61.87   76.54
  10 -11  20    4.57  119.81
  -9  11 -20   76.10   54.09
  -9  11 -20 -411.89  247.47
   9 -11  20    4.23  109.48
   9 -11  20   -3.53   71.85
  -8  11 -20  112.13  222.34
  -8  11 -20    3.66   54.00
   8 -11  20    6.84   68.21
   8 -11  20    3.92  100.08
  -7  11 -20 -130.49   49.25
  -7  11 -20  450.66  218.99
   7 -11  20   -3.66   95.39
   7 -11  20    3.31   66.36
  -6  11 -20  269.32  202.60
   6 -11  20    3.40   92.71
  -5  11 -20    9.85   44.96
  -5  11 -20   18.48  184.87
   5 -11  20    3.20   81.33
   5 -11  20    3.11   63.16
  -4  11 -20    3.17   44.36
  -4  11 -20 -169.76  180.92
   4 -11  20   -3.01   60.64
   4 -11  20   -3.01   79.44
  -3  11 -20   -3.06   42.31
   3 -11  20   -2.85   74.25
   3 -11  20    8.76   56.15
  -2  11 -20    2.96   42.86
   2 -11  20  -40.80   70.21
   2 -11  20  149.15   59.05
  -1  11 -20   26.03   43.49
   1 -11  20  100.53   68.52
  11   0 -20   11.90  168.28
   0  11 -20    2.78   38.31
   0 -11  20 -163.44   67.39
  11  -1 -20  203.21  173.73
  -1 -11  20   71.57   70.11
  11  -1  20  271.63  130.10
 -11   2 -20 -229.72  211.36
  11  -2  20   -3.33   80.25
  11  -2  20 -182.71  124.64
  -2 -11  20   -2.40   63.28
 -11   3 -20  306.73  222.75
  11  -3  20    5.15  108.86
  11  -3  20  -33.40   90.41
  -3 -11  20  174.55   65.30
 -11   4 -20    7.47   55.25
 -11   4 -20 -102.62  224.91
  11  -4  20   -4.64  103.28
  11  -4  20  -43.95   84.25
 -11   5 -20  -11.17  236.93
 -11   5 -20    3.64   55.88
  11  -5  20   68.29   92.28
  11  -5  20 -130.86   99.10
 -11   6 -20  438.52  260.70
 -11   6 -20   46.84   64.26
  11  -6  20  361.62  114.03
  11  -6  20  131.22   93.07
 -11   7 -20  209.73  275.11
 -11   7 -20 -104.22   58.12
  11  -7  20  177.90  106.19
  11  -7  20   51.27   79.74
 -11   8 -20 -106.23   55.38
 -11   8 -20  293.34  275.78
  11  -8  20    8.36  111.91
  11  -8  20   28.33   75.08
 -11   9 -20  -26.08  280.49
 -11   9 -20  -26.63   56.88
  11  -9  20   14.28   73.11
  11  -9  20  -88.30  118.84
 -11  10 -20   -7.83   58.18
 -11  10 -20 -776.29  297.55
  11 -10  20 -176.20  120.56
  11 -10  20   18.15   74.51
 -11  11 -20   20.64   58.38
 -11  11 -20  -93.05  291.63
  11 -11  20 -156.60  130.85
  11 -11  20  -30.00   76.07
 -11  12 -20  168.36  281.83
 -11  12 -20  -67.16   60.76
  11 -12  20 -145.43  133.12
 -10  12 -20   -4.31   59.40
 -10  12 -20 -363.69  275.14
  10 -12  20  -62.42  120.69
  -9  12 -20   -4.15   64.50
  -9  12 -20 -279.56  245.04
   9 -12  20 -355.01  123.78
  -8  12 -20 -214.11  233.93
  -8  12 -20    4.00   54.83
   8 -12  20    4.09  105.23
  -7  12 -20   20.80  210.16
  -7  12 -20   -3.86   51.92
   7 -12  20   72.12   95.57
  -6  12 -20    4.96  203.04
   6 -12  20   28.13   92.71
  -5  12 -20   -3.60   49.95
   5 -12  20 -115.15   81.28
  -4  12 -20    3.48   49.16
   4 -12  20 -257.47   80.62
   3 -12  20   26.78   78.97
  12   0 -20   68.71  180.87
  12  -1 -20   29.84  179.00
  12  -1  20  -94.07  141.37
 -12   2 -20    5.47  218.70
  12  -2  20   -3.46   85.28
  12  -2  20   22.70  129.02
 -12   3 -20 -603.47  233.08
  12  -3  20   83.94  115.66
  12  -3  20  -34.23   84.64
 -12   4 -20    5.68  243.35
 -12   4 -20   -3.91   59.69
  12  -4  20  -45.39   92.90
  12  -4  20   -4.73  106.87
 -12   5 -20  -87.42   56.48
 -12   5 -20   35.04  253.01
  12  -5  20  118.33   94.51
  12  -5  20   -3.65   93.03
 -12   6 -20   30.63  259.89
 -12   6 -20   22.63   56.79
  12  -6  20  -11.87   80.87
  12  -6  20    3.88   98.40
 -12   7 -20 -271.41  289.05
 -12   7 -20  -82.58   54.41
  12  -7  20  -53.76  111.96
  12  -7  20   52.56   81.68
 -12   8 -20 -190.24  295.42
 -12   8 -20   27.02   58.55
  12  -8  20   -4.37  112.26
  12  -8  20  -80.06   76.52
 -12   9 -20 -864.25  332.27
 -12   9 -20 -103.19   64.08
  12  -9  20 -319.84   85.33
  12  -9  20  -14.02  137.62
 -12  10 -20  234.32  313.19
 -12  10 -20  -12.24   56.55
  12 -10  20  -70.88   77.90
  12 -10  20  -89.04  137.06
 -12  11 -20   -4.31   61.75
 -12  11 -20 -151.42  312.22
  12 -11  20 -126.34  142.65
  12 -11  20  -23.14   79.80
 -12  12 -20 -608.74  327.02
  12 -12  20    5.58  144.37
  13   1 -20  -22.65  193.43
  13   0 -20   64.70  192.82
 -13   0  20  -38.69   89.64
  13  -1 -20   64.81  188.71
  13  -1  20 -142.33  141.62
 -13   2 -20   51.60  225.46
  13  -2  20  -97.90  120.18
 -13   3 -20 -173.04  237.67
  13  -3  20  123.49   87.34
  13  -3  20    5.08  108.02
 -13   4 -20  189.60  255.40
 -13   4 -20   -4.09   60.93
  13  -4  20 -186.13  104.14
  13  -4  20  125.68   92.48
 -13   5 -20 -189.74  269.20
 -13   5 -20    3.97   58.21
  13  -5  20  -29.83   92.05
  13  -5  20 -162.86   94.01
 -13   6 -20  326.89  275.06
 -13   6 -20   19.64   55.62
  13  -6  20   11.93  102.45
  13  -6  20   -3.94   89.22
 -13   7 -20  148.62  293.29
 -13   7 -20 -134.95   63.23
  13  -7  20    4.29  111.12
  13  -7  20   -3.73   80.10
 -13   8 -20 -186.05   67.41
 -13   8 -20 -100.38  325.37
  13  -8  20 -425.17  141.93
  13  -8  20 -145.54   91.02
 -13   9 -20   74.66  334.86
 -13   9 -20   -4.13   55.51
  13  -9  20   11.29   79.65
  13  -9  20  -92.92  133.60
 -13  10 -20 -110.67   58.77
 -13  10 -20  239.11  328.96
  13 -10  20   63.16  139.58
  13 -10  20  -53.60   77.23
 -13  11 -20    4.50   63.46
 -13  11 -20 -566.76  352.43
  13 -11  20    5.60  145.82
  13 -11  20   -3.96   79.72
  14   1 -20   53.97  209.90
  14   1 -20  -91.85   71.98
  14   0 -20 -202.88  208.45
 -14   0  20  -56.35   98.40
  14  -1 -20  214.35  214.50
 -14   2 -20 -203.91  233.35
  14  -2  20  112.67  135.62
 -14   3 -20   71.63  250.69
 -14   3 -20   60.93   67.80
  14  -3  20    3.60   87.81
  14  -3  20   25.47  108.29
 -14   4 -20   59.37   63.35
 -14   4 -20 -104.74  264.79
  14  -4  20   -4.69  108.90
  14  -4  20    3.68   89.49
 -14   5 -20 -129.33   58.90
 -14   5 -20 -281.45  276.80
  14  -5  20  -38.01   98.73
  14  -5  20  -15.17   97.14
 -14   6 -20   -4.13   64.08
 -14   6 -20 -488.22  297.79
  14  -6  20 -199.60   91.00
  14  -6  20    4.04  111.81
 -14   7 -20    4.15   61.49
 -14   7 -20  318.72  309.10
  14  -7  20  170.31  117.50
  14  -7  20   56.94   83.48
 -14   8 -20  330.94  331.00
 -14   8 -20   76.00   58.91
  14  -8  20   33.14  122.79
  14  -8  20  -76.11   81.56
 -14   9 -20   55.87  360.08
 -14   9 -20   12.84   57.04
  14  -9  20   20.32  135.79
  14  -9  20    3.80   79.01
 -14  10 -20   -8.25  370.57
 -14  10 -20  -84.31   61.69
  14 -10  20   11.02  146.11
  14 -10  20    3.87   78.92
  15   1 -20 1678.04  437.49
  15   0 -20 -342.96   96.73
 -15   0  20 -211.54  126.10
  15  -1 -20 1072.33  342.13
  16   1 -20  110.74   90.58
  16   1 -20  -68.43  248.29
 -16  -1  20  -35.94   42.91
 -16  -1  20  -82.48  118.63
  16   0 -20   17.16  246.82
  16   0 -20 -248.64   96.31
 -16   0  20  -13.87   49.74
 -16   0  20  -96.59  123.00
  16  -1 -20  153.96  233.92
  17   1 -20   33.77  101.49
  17   1 -20 -122.78  263.85
 -17  -1  20  171.38  135.32
 -17  -1  20   70.03   51.27
  17   0 -20  -30.64  255.32
  17   0 -20   61.04  100.43
 -17   0  20  -25.53   53.68
 -17   0  20  -63.05  131.55
  17  -1 -20 -134.52  265.09
   0   1 -21   67.54  125.72
   0  -1  21  125.15   95.12
  -1   1 -21 -434.00  147.74
   1  -1  21  -72.74  100.82
  -1  -1  21  -49.10   91.81
  -1   2 -21 -104.75  134.79
   1  -2  21   66.60   58.87
  -2  -1  21   -7.76   79.72
   1  -2  21   25.08   86.37
   0   2 -21 -207.93  134.80
   0  -2  21    3.98   85.49
   0  -2  21   27.83   55.16
   1   2 -21  -99.75  126.87
  -2   1 -21   11.29  132.79
   2  -1  21   43.11  102.58
  -1  -2  21   52.26   54.43
  -1  -2  21   41.56   79.48
   2   2 -21   -3.12  123.41
  -2   2 -21   36.47  140.88
   2  -2  21 -101.06   93.87
   2  -2  21  -31.86   59.56
  -2  -2  21   60.89   80.16
  -2  -2  21  -20.28   55.26
   3   2 -21    3.05  137.20
  -2   3 -21  466.13  169.04
   2  -3  21  337.91   89.16
  -3  -2  21  270.58   98.58
   2  -3  21  407.83  109.88
  -1   3 -21   10.41  140.85
   1  -3  21   39.80   58.32
  -3  -1  21  -29.35   81.86
   1  -3  21   87.63   82.04
   0   3 -21  294.55  146.22
   0  -3  21  177.52   85.82
   0  -3  21  124.38   69.96
  -3   1 -21  -85.85  147.93
   1   3 -21  129.91  126.28
   3  -1  21    5.04  102.24
  -1  -3  21   20.64   69.92
   3  -1  21    5.28   57.84
  -1  -3  21  -24.16   56.44
   2   3 -21  401.94  149.28
  -3   2 -21  213.53  164.28
  -2  -3  21  243.75   97.27
   3  -2  21  244.67  121.90
  -2  -3  21  197.58   85.95
   3  -2  21  396.92   90.16
   3   3 -21 -211.17  124.37
  -3   3 -21    3.82  155.99
   3  -3  21   12.59   87.29
  -3  -3  21   74.22   63.47
  -3  -3  21    8.46   54.12
   3  -3  21   27.84   64.51
  -3   4 -21  161.83  174.18
   3  -4  21    2.61   85.40
   3  -4  21  644.86  102.03
  -4  -3  21  212.72   82.33
  -4  -3  21  244.45   75.15
  -2   4 -21 -282.37  158.62
   2  -4  21  115.01   66.92
  -4  -2  21   92.90   69.59
   2  -4  21   22.50   80.18
  -1   4 -21  232.82  181.88
  -4  -1  21  314.86  119.31
   1  -4  21  435.87  118.95
   1  -4  21  426.51  104.84
   0   4 -21    3.40  139.21
   0  -4  21   11.50   60.63
   0  -4  21   -9.90   68.37
   1   4 -21  372.82  163.29
  -4   1 -21  227.26  175.07
   4  -1  21  100.99  101.66
  -1  -4  21  537.40   99.87
  -1  -4  21  324.18  104.77
   4  -1  21  646.25  138.04
  -4   2 -21  -55.90  153.11
   2   4 -21   45.47  127.52
  -2  -4  21  102.06   59.97
   4  -2  21  387.67  101.11
   4  -2  21    7.98   66.58
  -2  -4  21   -8.50   57.00
   3   4 -21  409.50  146.17
  -4   3 -21   76.09  170.98
  -3  -4  21  317.02   80.52
   4  -3  21   50.13   86.66
  -3  -4  21  289.92   77.94
  -4   4 -21   -4.13  166.62
   4  -4  21   -2.72   71.07
  -4  -4  21  -64.21   54.20
  -3   5 -21  256.32  184.40
   3  -5  21   54.11   75.01
  -2   5 -21  167.57   61.36
  -2   5 -21  193.72  178.66
   2  -5  21  331.94   85.62
  -1   5 -21   71.25   38.90
  -1   5 -21  -50.17  164.44
   1  -5  21  -82.07   66.34
   1  -5  21   88.42   70.68
   0   5 -21  261.50   64.11
   0   5 -21  121.10  168.21
   0  -5  21  346.05   83.51
   0  -5  21  118.84   86.16
  -5   1 -21  224.38  162.20
   1   5 -21   18.28   34.76
   1   5 -21   10.40  150.38
  -1  -5  21    8.20   61.43
   5  -1  21    2.83   67.58
  -1  -5  21    2.29   60.49
   2   5 -21  441.27  149.87
  -5   2 -21    4.18  169.96
   2   5 -21  160.78   48.40
   5  -2  21   13.74   79.28
  -2  -5  21  168.51   67.14
  -2  -5  21  149.25   69.46
   3   5 -21  120.98  132.23
   3   5 -21   90.63   36.47
  -3  -5  21  110.97   60.93
  -3  -5  21   80.26   56.24
  -5   5 -21   -4.55  157.49
  -5   5 -21   11.98   43.95
   5  -5  21   -2.95   69.35
   5  -5  21    3.82   80.44
  -5   6 -21    2.94   43.84
  -5   6 -21  -19.16  210.65
   5  -6  21  -37.84   75.00
   5  -6  21    3.02   81.94
  -4   6 -21   -4.62  180.12
  -4   6 -21    5.64   43.83
   4  -6  21   -2.90   72.91
   4  -6  21  154.82   78.58
  -2   6 -21  163.81  214.04
   2  -6  21  300.31   95.31
  -1   6 -21  120.64  179.78
  -1   6 -21   49.23   45.75
   1  -6  21  131.45   76.49
   1  -6  21  284.56   65.01
   0   6 -21  215.65  173.06
   0   6 -21  -16.31   33.87
   0  -6  21  -27.24   66.62
   0  -6  21   13.43   56.99
   1   6 -21  118.13  166.20
   1   6 -21    4.39   33.96
  -1  -6  21  146.91   65.55
  -1  -6  21   49.49   52.95
   2   6 -21  533.74  183.38
   2   6 -21  266.72   73.22
  -2  -6  21  319.55   93.93
  -2  -6  21  296.47   84.09
   3   6 -21  233.18  156.93
   3   6 -21   89.97   35.13
  -3  -6  21  131.79   64.33
  -3  -6  21   65.43   50.82
   6  -3  21   67.50  105.93
   6  -4  21   17.52  103.11
   6  -4  21  262.52   84.66
  -6   5 -21 -320.35  199.27
   6  -5  21   -3.98   89.76
   6  -5  21 -191.20   82.73
  -6   6 -21  278.89  226.11
   6  -6  21    9.46   87.49
  -6   7 -21  245.70  227.47
   6  -7  21   -9.80   94.74
  -5   7 -21   44.29  224.33
  -5   7 -21  -29.47   46.22
   5  -7  21  -56.22   89.98
   5  -7  21    3.26   73.96
  -4   7 -21  -98.95   43.98
  -4   7 -21 -113.85  231.68
   4  -7  21   96.76   78.65
   4  -7  21 -191.21   82.34
  -3   7 -21   10.81   43.45
   3  -7  21  226.30   76.14
   3  -7  21   -5.98   66.10
   2  -7  21   -2.79   57.32
   0   7 -21  148.53   36.19
   0   7 -21 -403.14  191.01
   0  -7  21   -2.57   68.04
   0  -7  21   -2.51   42.65
   1   7 -21   24.64  179.98
   1   7 -21   39.06   36.30
  -1  -7  21  101.32   68.04
   7  -1  21   -6.02  122.70
  -1  -7  21    4.73   49.18
   2   7 -21  -18.37   30.51
   2   7 -21 -192.00  178.81
  -2  -7  21   80.75   65.78
   7  -2  21   27.17  115.40
   7  -2  21   71.80   71.31
  -2  -7  21    4.34   48.24
   3   7 -21   22.32  162.84
  -7   3 -21  227.01  192.71
   3   7 -21   28.26   28.51
  -3  -7  21   16.40   46.45
   7  -3  21    3.00   75.06
  -3  -7  21  111.53   64.48
   7  -3  21   -5.04  112.09
  -7   4 -21 -103.64  196.95
   7  -4  21   -4.57   97.34
   7  -4  21   61.58   82.79
  -7   5 -21 -529.34  217.12
  -7   5 -21  -45.50   51.38
   7  -5  21    4.14   89.81
   7  -5  21  -80.13   91.32
  -7   6 -21  335.14  225.17
  -7   6 -21    3.19   50.08
   7  -6  21    3.73   85.26
   7  -6  21  -36.42   98.40
  -7   7 -21  -60.81   67.25
  -7   7 -21   90.23  222.05
   7  -7  21 -282.52   79.60
   7  -7  21    3.42   95.64
  -7   8 -21  309.71  234.89
  -7   8 -21   61.34   51.57
   7  -8  21    3.51   96.48
   7  -8  21   -3.30   68.30
  -6   8 -21  -10.24  224.33
   6  -8  21   10.00   93.35
  -5   8 -21  157.19  218.73
  -5   8 -21  -14.86   44.43
   5  -8  21 -149.43   66.48
   5  -8  21 -330.27   89.38
  -4   8 -21    2.88   41.81
  -4   8 -21 -251.24  205.57
   4  -8  21 -122.91   66.54
   4  -8  21   51.85   79.81
  -3   8 -21  263.94  207.04
  -3   8 -21    2.76   41.58
   3  -8  21  -11.71   81.89
   3  -8  21 -187.77   60.33
  -2   8 -21 -108.44  200.97
  -2   8 -21   -2.64   40.48
   2  -8  21  -36.65   76.95
   2  -8  21    2.68   55.91
  -1   8 -21   12.53   33.63
   1  -8  21    7.70   56.38
   1   8 -21 -242.30  198.96
  -8   1 -21 -208.89  188.49
  -1  -8  21  -89.32   69.92
   8  -1  21 -231.85  138.62
  -8   2 -21 -436.50  198.71
   2   8 -21 -600.73  200.13
   2   8 -21  -14.70   31.95
   8  -2  21    5.66  116.01
  -2  -8  21   22.20   66.25
   8  -2  21  -37.48   75.19
  -2  -8  21  106.48   47.07
  -8   3 -21  -34.00  197.71
   3   8 -21 -215.86  191.33
   3   8 -21   21.59   30.50
   8  -3  21   15.62   83.70
  -3  -8  21 -204.28   71.92
   8  -3  21  -15.77  119.81
  -3  -8  21  -61.36   44.96
  -8   4 -21   64.07  211.99
   8  -4  21  -42.76  104.91
   8  -4  21   35.33   83.72
  -8   5 -21    3.40   51.44
  -8   5 -21   61.40  212.65
   8  -5  21   79.26   97.11
   8  -5  21  -86.93   90.54
  -8   6 -21 -252.39  228.02
  -8   6 -21    3.33   50.99
   8  -6  21  104.50   86.54
   8  -6  21  -17.37   94.64
  -8   7 -21   36.67   55.64
  -8   7 -21   61.03  231.17
   8  -7  21    3.66   79.30
   8  -7  21   46.61   93.67
  -8   8 -21   54.51   54.36
  -8   8 -21   28.18  237.20
   8  -8  21    3.72   97.16
   8  -8  21 -116.32   74.44
  -8   9 -21  106.85  251.71
  -8   9 -21  119.69   61.40
   8  -9  21   95.36  111.08
   8  -9  21  127.84   79.88
  -7   9 -21  180.29  223.73
  -7   9 -21    6.75   48.58
   7  -9  21  -79.40   99.56
   7  -9  21   36.68   71.58
  -6   9 -21   71.06  213.67
   6  -9  21    3.41   92.31
  -5   9 -21   28.03   46.45
  -5   9 -21 -281.61  209.93
   5  -9  21   52.58   66.26
   5  -9  21  -12.93   82.54
  -4   9 -21   79.75  195.91
  -4   9 -21   23.92   42.98
   4  -9  21   14.89   64.36
   4  -9  21  -49.68   80.17
  -3   9 -21   -8.59   41.29
  -3   9 -21  179.56  202.09
   3  -9  21   42.93   60.60
   3  -9  21    2.97   79.88
  -2   9 -21    8.19   39.75
  -2   9 -21 -243.56  202.25
   2  -9  21  226.15   79.90
   2  -9  21   13.68   58.35
  -1   9 -21   -8.88  191.65
  -1   9 -21  -49.78   38.23
   1  -9  21  127.32   74.78
   1  -9  21   10.51   55.30
   0  -9  21   73.03   61.63
   0  -9  21  287.31   77.39
  -9   1 -21 -362.05  197.40
   1   9 -21   -2.34   32.10
  -1  -9  21   23.87   46.73
   9  -1  21  -31.77  129.90
  -9   2 -21  296.42  200.41
   9  -2  21  -19.50   77.43
   9  -2  21   35.23  125.98
   3   9 -21  125.36  191.98
  -9   3 -21   45.75  205.77
  -3  -9  21    2.45   69.79
   9  -3  21   37.22  115.65
   9  -3  21   16.32   81.14
  -9   4 -21  124.11  228.78
   9  -4  21   -3.34   82.61
   9  -4  21  127.77  109.12
  -9   5 -21 -208.58  234.63
  -9   5 -21    3.56   55.04
   9  -5  21   76.55   92.80
   9  -5  21   64.91   95.15
  -9   6 -21  -72.69  237.30
  -9   6 -21   97.33   55.21
   9  -6  21   -4.01   89.87
   9  -6  21  -51.05   97.40
  -9   7 -21    3.48   50.03
  -9   7 -21  449.34  256.88
   9  -7  21   33.43   82.07
   9  -7  21   -3.76   99.27
  -9   8 -21   -5.97  254.89
  -9   8 -21    3.56   52.68
   9  -8  21    3.55   77.59
   9  -8  21   23.58  111.21
  -9   9 -21    3.67   53.45
  -9   9 -21 -161.92  243.42
   9  -9  21   32.21   75.30
   9  -9  21  -56.82  106.87
  -9  10 -21   -5.95  249.74
  -9  10 -21    3.78   53.83
   9 -10  21    3.65   75.44
   9 -10  21    8.43  113.45
  -8  10 -21  -50.95   50.87
  -8  10 -21   67.26  231.78
   8 -10  21 -165.31   99.17
   8 -10  21    3.53   70.51
  -7  10 -21   -3.50   51.67
  -7  10 -21  -10.55  221.19
   7 -10  21   40.87   95.44
   7 -10  21   -3.41   70.85
  -6  10 -21 -187.24  220.08
   6 -10  21   27.94   96.63
  -5  10 -21 -189.08  205.02
  -5  10 -21   -3.23   47.25
   5 -10  21   25.37   66.36
   5 -10  21    3.31   87.25
  -4  10 -21    4.68  194.14
  -4  10 -21    9.28   45.25
   4 -10  21    3.14   82.07
   4 -10  21  -30.28   61.49
  -3  10 -21  104.91  191.50
  -3  10 -21   17.89   43.47
   3 -10  21   72.84   61.42
   3 -10  21    3.01   78.84
  -2  10 -21   71.40   42.64
  -2  10 -21  -94.67  194.59
   2 -10  21    2.81   55.07
   2 -10  21 -132.77   81.31
  -1  10 -21   75.65  197.74
  -1  10 -21   79.13   40.10
   1 -10  21  -35.26   56.31
   1 -10  21 -197.51   77.35
   0  10 -21  -41.76   36.18
   0  10 -21  -92.78  193.52
   0 -10  21  120.95   72.25
   0 -10  21   85.33   51.43
 -10   1 -21   10.71  192.35
   1  10 -21   -7.48   35.96
   1  10 -21  202.01  189.34
  10  -1  21  104.88  141.22
  -1 -10  21   15.03   50.48
  -1 -10  21  175.02   69.34
   2  10 -21    9.69   31.51
 -10   2 -21   41.87  203.48
  10  -2  21   -3.38   84.26
  10  -2  21    5.93  125.91
 -10   3 -21 -244.57  217.16
  10  -3  21  -99.20  115.78
  10  -3  21  -37.40   85.34
 -10   4 -21   86.78  222.49
  10  -4  21  -68.93   91.45
  10  -4  21 -267.90  107.69
 -10   5 -21    5.59  230.29
 -10   5 -21 -103.95   55.97
  10  -5  21 -210.35   97.03
  10  -5  21   28.78   94.84
 -10   6 -21   -5.83  252.62
 -10   6 -21   14.57   54.23
  10  -6  21   -4.14   86.39
  10  -6  21  -57.15  104.64
 -10   7 -21   14.67   52.12
 -10   7 -21  -48.88  255.45
  10  -7  21   53.67   80.21
  10  -7  21   27.75  105.43
 -10   8 -21 -106.65  267.65
 -10   8 -21   74.37   59.68
  10  -8  21   91.18  107.27
  10  -8  21  -29.29   78.11
 -10   9 -21  242.20  276.98
 -10   9 -21   -3.83   52.18
  10  -9  21    4.33  115.11
  10  -9  21    3.70   79.23
 -10  10 -21   38.46  270.67
 -10  10 -21 -165.15   59.71
  10 -10  21    4.50  117.39
  10 -10  21   26.10   78.99
 -10  11 -21 -199.94  299.69
 -10  11 -21 -132.56   63.69
  10 -11  21   -4.71  135.55
  10 -11  21   -3.82   85.47
  -9  11 -21  -29.92  250.50
  -9  11 -21   63.44   56.95
   9 -11  21    3.70   72.81
   9 -11  21   -4.37  115.32
  -8  11 -21 -214.78  246.88
  -8  11 -21   -3.81   51.53
   8 -11  21   -4.09  106.55
   8 -11  21  -35.83   72.03
  -7  11 -21 -410.38  231.55
  -7  11 -21    3.67   49.43
   7 -11  21   -3.47   67.72
   7 -11  21 -130.03  103.37
  -6  11 -21   21.20   50.41
  -6  11 -21   40.51  210.76
   6 -11  21   -3.59   94.73
  -5  11 -21   -4.89  205.00
  -5  11 -21  -23.91   47.74
   5 -11  21   29.17   67.31
   5 -11  21  -50.66   90.79
  -4  11 -21 -241.41  202.38
  -4  11 -21    6.58   47.38
   4 -11  21   -3.18   80.28
   4 -11  21   37.62   64.15
  -3  11 -21   -9.51   44.52
  -3  11 -21 -189.72  192.35
   3 -11  21    3.02   78.58
   3 -11  21   30.35   58.64
  -2  11 -21 -100.79   43.71
  -2  11 -21  214.02  187.33
   2 -11  21   84.36   77.79
   2 -11  21   91.19   60.80
  -1  11 -21    2.94   41.81
  -1  11 -21   -4.50  186.85
   1 -11  21    2.79   71.96
   1 -11  21  -62.30   57.93
   0  11 -21  232.85  201.10
   0  11 -21  111.70   64.35
   0 -11  21  399.80   89.37
  11  -1 -21  178.29  169.39
  11  -1  21  -46.00  140.56
  -1 -11  21 -146.57   69.81
 -11   2 -21   32.90  222.28
  -2 -11  21  254.31   76.60
  11  -2  21  152.53  143.19
  11  -2  21    3.52   92.25
 -11   3 -21   33.40  227.16
  11  -3  21    3.52   86.82
  11  -3  21  126.98  123.37
 -11   4 -21  -63.25   60.92
 -11   4 -21 -479.19  240.29
  11  -4  21 -194.78  111.76
  11  -4  21    3.57   91.72
 -11   5 -21    3.88   61.25
 -11   5 -21 -714.06  267.70
  11  -5  21   18.42   99.31
  11  -5  21  -74.67   97.83
 -11   6 -21   -3.83   57.73
 -11   6 -21   18.31  261.96
  11  -6  21   90.74  101.57
  11  -6  21    4.16   92.41
 -11   7 -21    3.82   54.62
 -11   7 -21 -288.24  283.00
  11  -7  21    4.17  108.00
  11  -7  21    3.95   85.72
 -11   8 -21   -3.89   57.26
 -11   8 -21 -273.23  292.74
  11  -8  21  -18.92   79.36
  11  -8  21    4.36  110.52
 -11   9 -21   99.96   59.61
 -11   9 -21 -164.18  290.30
  11  -9  21 -105.92  120.87
  11  -9  21    3.82   80.60
 -11  10 -21 -160.77   68.20
  11 -10  21 -334.28   88.02
  11 -10  21 -418.90  140.42
 -11  11 -21 -159.96  297.98
 -11  11 -21   -4.32   62.00
  11 -11  21    5.07  136.70
  11 -11  21 -110.32   85.08
 -11  12 -21   -7.06  308.17
 -11  12 -21    4.68   63.26
  11 -12  21    5.34  134.80
 -10  12 -21   71.86   63.88
 -10  12 -21  124.10  286.56
  10 -12  21   -4.97  131.51
  -9  12 -21  232.80  277.71
  -9  12 -21   60.50   61.91
   9 -12  21  156.34  122.95
  -8  12 -21 -114.72  244.52
  -8  12 -21  -45.77   62.32
  -7  12 -21  -43.68  235.76
  -7  12 -21   -4.01   54.36
   7 -12  21    7.94  106.54
  -6  12 -21    3.87   50.34
  -6  12 -21   67.70  218.45
   6 -12  21    7.39   94.99
  -5  12 -21  -90.30  208.27
  -5  12 -21   63.46   53.20
   5 -12  21    3.48   92.22
  -4  12 -21   19.46  197.02
  -4  12 -21   14.40   47.73
   4 -12  21 -140.71   89.12
  -3  12 -21    6.94   49.10
   3 -12  21  -93.20   82.09
   2 -12  21  -74.24   78.44
   1 -12  21  254.08   97.13
   0 -12  21  -66.86   81.67
  12  -1 -21 -101.55  187.32
  12  -1  21    6.69  145.24
 -12   2 -21 -650.17  244.01
  12  -2  21   69.35   90.84
  12  -2  21  -12.15  139.69
 -12   3 -21  243.87  246.37
  12  -3  21    3.62   90.58
  12  -3  21   45.14  125.06
 -12   4 -21   49.66   67.59
 -12   4 -21 -196.96  254.24
  12  -4  21    3.69   93.32
  12  -4  21   30.58  113.19
 -12   5 -21  -72.78   60.45
 -12   5 -21  -98.27  265.34
  12  -5  21  -11.55   98.84
  12  -5  21   31.97  104.51
 -12   6 -21    4.01   58.44
 -12   6 -21   31.99  273.07
  12  -6  21 -136.51   95.79
  12  -6  21    4.07  106.23
 -12   7 -21    4.00   57.79
 -12   7 -21   -6.69  287.34
  12  -7  21 -113.15   86.07
  12  -7  21   52.26  116.71
 -12   8 -21 -745.98  328.25
 -12   8 -21 -256.30   64.65
  12  -8  21   -4.59  125.41
 -12   9 -21    4.21   61.14
 -12   9 -21 -559.00  323.43
  12  -9  21  150.54  129.40
  12  -9  21   46.97   79.00
 -12  10 -21   12.91   62.83
 -12  10 -21 -201.01  317.21
  12 -10  21  129.00  133.64
  12 -10  21 -249.06   82.02
 -12  11 -21   22.66  324.35
 -12  11 -21  -31.58   58.44
  12 -11  21   12.18   87.05
  12 -11  21  -32.60  146.13
  13  -1 -21  397.35  210.29
  13  -1  21  -66.05  150.74
 -13   2 -21 -216.85  241.84
  13  -2  21   24.69  142.55
 -13   3 -21  -60.25  262.53
  13  -3  21    5.70  128.10
  13  -3  21  -44.60   93.53
 -13   4 -21 -205.05  260.96
 -13   4 -21 -125.76   65.67
  13  -4  21   -3.80   92.61
  13  -4  21   35.19  111.49
 -13   5 -21    4.22   61.72
 -13   5 -21  -96.50  274.73
  13  -5  21  -98.16  100.75
  13  -5  21 -115.94  105.54
 -13   6 -21   25.13   62.77
 -13   6 -21    6.70  287.75
  13  -6  21   -8.70   94.92
  13  -6  21   12.52  111.76
 -13   7 -21    8.35   61.48
 -13   7 -21 -168.80  330.71
  13  -7  21  264.54  132.24
  13  -7  21 -172.82   92.70
 -13   8 -21  171.49   67.41
 -13   8 -21    7.41  334.58
  13  -8  21    4.00   86.42
  13  -8  21 -139.37  126.35
 -13   9 -21   -4.38   62.79
 -13   9 -21  279.68  339.66
  13  -9  21   92.34   85.70
  13  -9  21   10.20  132.75
 -13  10 -21    4.49   67.74
 -13  10 -21   23.94  340.16
  13 -10  21   38.25  145.99
  13 -10  21    4.06   82.02
 -13  11 -21 -849.87  369.64
  13 -11  21  -17.46  158.46
  14   0 -21  275.79  235.33
  14  -1 -21 -185.34  209.59
  14  -1  21   72.96  144.11
  14  -2  21   72.58  138.62
 -14   3 -21 -306.99  259.89
 -14   3 -21 -289.13   77.24
  14  -3  21  -54.94  121.07
  14  -3  21   41.94   96.02
 -14   4 -21 -477.82  284.94
 -14   4 -21   -4.50   72.12
  14  -4  21  -60.85  121.43
  14  -4  21 -134.74  107.77
 -14   5 -21    4.41   66.17
 -14   5 -21 -835.20  302.02
  14  -5  21 -188.61  110.50
  14  -5  21   -9.14  101.17
 -14   6 -21    7.01  306.93
 -14   6 -21    4.40   66.65
  14  -6  21    4.31   94.20
  14  -6  21   34.12  109.09
 -14   7 -21  -44.27  312.73
 -14   7 -21  -57.43   68.17
  14  -7  21  -22.91  118.42
  14  -7  21  -69.51   91.03
 -14   8 -21   23.33  350.86
 -14   8 -21 -143.72   68.93
  14  -8  21 -195.74   90.78
  14  -8  21   -4.98  129.37
 -14   9 -21  279.33  371.81
 -14   9 -21   18.24   71.20
  14  -9  21   73.87   87.13
  14  -9  21   74.72  144.40
  14 -10  21    5.73  153.04
  14 -10  21    4.15   73.59
  15   0 -21 -317.70  238.17
  15  -1 -21 -302.81  248.20
 -15   8 -21  -93.60   69.46
  16   0 -21 -241.60  250.64
  16  -1 -21  264.69  262.01
  17   0 -21  -94.60  274.70
 -17   0  21   25.57  135.39
 -17   0  21   67.52   51.88
  17  -1 -21 -232.93  269.28
   0  -1  22  -13.69   94.51
  -1   1 -22  258.94  137.22
   1  -1  22  153.79  103.99
  -1  -1  22    4.33   96.04
  -1   2 -22   22.18  138.41
   1  -2  22  -15.18   62.09
  -2  -1  22   86.27   84.62
   1  -2  22    4.43   89.31
   0   2 -22  162.59  141.65
   0  -2  22  -37.00   61.26
   0  -2  22   67.51   90.51
  -2   1 -22  251.10  147.32
   1   2 -22 -266.01  133.07
  -1  -2  22   -4.02   84.10
   2  -1  22    5.06  105.46
  -1  -2  22  182.25   60.17
   2   2 -22  229.09  134.22
  -2   2 -22  111.78  155.48
  -2  -2  22   96.46   68.55
   2  -2  22  246.82  101.54
  -2  -2  22  144.87   94.00
   2  -2  22  169.51   71.16
  -2   3 -22 -240.28  153.60
   3   2 -22   35.79  124.39
   2  -3  22    4.26   87.59
  -3  -2  22  -79.38   79.07
   2  -3  22   56.89   65.81
  -1   3 -22   29.56  150.48
   1  -3  22  263.81   72.50
  -3  -1  22  147.83   97.80
   1  -3  22   77.11   93.95
   0   3 -22 -148.01  147.62
   0  -3  22  -88.88   81.46
   0  -3  22  -33.77   59.14
  -3   1 -22   66.03  160.50
   1   3 -22  251.67  144.87
  -1  -3  22  202.18   69.47
   3  -1  22  138.44  123.46
  -1  -3  22   66.14   85.96
   2   3 -22  182.90  131.89
  -3   2 -22    4.02  161.20
   3  -2  22   -4.89   86.50
  -2  -3  22  -68.97   59.81
   3  -2  22   35.07   66.90
  -2  -3  22  -62.67   80.82
   3   3 -22   39.94  127.97
  -3   3 -22    8.12  161.18
  -3  -3  22   22.33   72.12
   3  -3  22   -2.69   69.66
  -3  -3  22   72.09   58.85
  -2   4 -22  317.33  179.60
   2  -4  22  356.28   90.77
  -4  -2  22  125.95   95.66
  -1   4 -22    3.78  158.44
   1  -4  22    5.07   61.64
  -4  -1  22  -58.17   84.93
   1  -4  22   84.07   79.83
   0   4 -22  408.70  169.69
   0  -4  22  307.01   90.53
   0  -4  22  176.87  101.43
  -4   1 -22  214.44  163.45
   1   4 -22   84.98  143.26
  -1  -4  22 -138.48   61.33
  -1  -4  22  -70.37   69.86
   2   4 -22   -3.22  142.39
  -2  -4  22  210.82   79.20
  -2  -4  22  173.50   69.40
   3   4 -22  -39.61  132.47
  -3  -4  22   76.50   58.56
  -3  -4  22   22.50   61.95
   4  -4  22   26.37   97.97
  -4   5 -22    3.06   47.39
   4  -5  22  190.78   79.18
   4  -5  22    3.92   88.03
   3  -5  22   -3.74   80.46
  -1   5 -22  345.85  177.20
   1  -5  22   55.56   70.25
   1  -5  22   -3.39   67.61
   0   5 -22  -45.89  167.02
   0   5 -22  -13.02   39.35
   0  -5  22   12.63   65.82
   0  -5  22    6.43   67.86
   1   5 -22  209.65  159.29
   1   5 -22  155.23   43.86
  -1  -5  22  -60.55   69.72
  -1  -5  22   58.83   66.31
   2   5 -22  121.86   41.69
   2   5 -22    6.79  150.57
  -2  -5  22   52.40   63.84
  -2  -5  22  120.72   64.84
   3   5 -22   60.84   35.34
   3   5 -22   85.70  139.86
   5  -3  22   63.70  104.65
  -3  -5  22   67.00   56.90
  -3  -5  22   93.34   63.00
  -5   4 -22   -4.55  179.30
   5  -4  22   59.84   73.28
   5  -4  22   -4.60  102.60
  -5   5 -22   38.01  203.61
  -5   5 -22    3.18   44.00
   5  -5  22   28.67   89.39
   5  -5  22    3.11   82.00
  -5   6 -22    3.14   49.70
  -5   6 -22 -461.93  243.22
   5  -6  22    3.69   85.19
  -4   6 -22   27.13   47.60
  -4   6 -22 -363.90  247.99
   4  -6  22 -128.63   85.06
   4  -6  22  -53.00   88.74
  -3   6 -22 1172.98  226.65
   3  -6  22  464.33  110.58
   3  -6  22   67.63  109.93
   2  -6  22  -32.22   73.02
   0   6 -22  207.88   48.95
   0   6 -22  163.95  185.38
   0  -6  22    2.61   75.81
   1   6 -22  212.13  175.64
  -1  -6  22   -2.51   67.87
   6  -1  22 -200.94  128.29
  -1  -6  22   31.88   57.14
   2   6 -22 -127.81  171.07
  -6   2 -22  580.37  178.97
   2   6 -22   46.14   35.56
  -2  -6  22    9.97   54.18
  -2  -6  22    7.21   64.23
   6  -2  22    3.03   71.19
   6  -2  22   84.62  119.03
  -6   3 -22  -14.00  186.07
   3   6 -22   80.22   34.87
   3   6 -22   -3.50  152.85
  -3  -6  22   47.59   50.45
   6  -3  22    3.04   78.09
  -3  -6  22   69.06   65.03
   6  -3  22  112.88  113.63
   6  -4  22 -265.24   84.39
  -6   5 -22   24.70  209.23
  -6   6 -22  249.53  222.38
   6  -6  22   -6.69   89.35
  -6   7 -22 -150.14  236.44
   6  -7  22   47.99   90.38
  -5   7 -22  -10.37  231.84
  -5   7 -22   37.65   50.90
   5  -7  22   -3.29   89.85
   5  -7  22    3.49   76.97
  -4   7 -22  -69.27   55.49
  -3   7 -22    2.89   40.03
  -3   7 -22 -127.56  240.52
   3  -7  22 -159.71   76.53
   3  -7  22    3.04   82.93
  -2   7 -22   52.44   42.85
  -2   7 -22  -95.37  205.81
   2  -7  22 -120.01   81.09
   2  -7  22   39.63   68.47
  -1   7 -22   15.72   38.23
   1  -7  22   11.35   62.86
  -7   1 -22   63.51  185.65
   1   7 -22 -286.05  197.56
   7  -1  22   19.10  138.43
  -1  -7  22 -102.23   72.02
   2   7 -22    6.47   34.38
  -7   2 -22 -298.84  189.21
   2   7 -22 -555.19  197.71
   7  -2  22  -28.45   75.52
  -2  -7  22   20.12   70.82
   7  -2  22    5.77  119.41
  -2  -7  22   -4.63   51.21
   3   7 -22   32.10   32.31
  -7   3 -22 -180.64  194.26
   3   7 -22  485.13  188.31
   7  -3  22  212.60   85.46
  -3  -7  22   -9.61   65.73
   7  -3  22 -187.77  115.37
  -3  -7  22    4.35   50.97
  -7   4 -22   39.76  214.14
   7  -4  22    3.25   77.35
   7  -4  22  127.01  105.66
  -7   5 -22 -130.93   53.56
  -7   5 -22 -231.79  218.24
   7  -5  22    4.44   94.48
   7  -5  22   57.47   91.75
  -7   6 -22 -206.96   55.97
  -7   6 -22 -328.23  229.16
   7  -6  22    4.01   90.05
   7  -6  22    3.51   95.78
  -7   7 -22   -3.40   53.27
  -7   7 -22    5.58  231.87
   7  -7  22    3.59   96.90
   7  -7  22    3.78   83.92
  -7   8 -22   -5.68  237.35
  -7   8 -22   23.98   53.52
   7  -8  22   -3.70  101.61
   7  -8  22    3.62   77.68
  -6   8 -22 -412.46  230.26
   6  -8  22 -210.89   96.87
  -5   8 -22  -41.08   47.52
  -5   8 -22 -219.25  235.87
   5  -8  22 -163.77   71.63
   5  -8  22    3.35   92.55
  -4   8 -22   12.12   42.63
  -4   8 -22 -132.19  220.28
   4  -8  22    3.21   86.97
   4  -8  22    3.12   71.29
  -3   8 -22 -405.90  221.69
  -3   8 -22    5.80   42.65
   3  -8  22   -3.08   81.65
   3  -8  22 -263.40   64.81
  -2   8 -22  -77.39  221.10
  -2   8 -22  -28.02   41.60
   2  -8  22   11.43   60.04
   2  -8  22    2.98   76.32
  -1   8 -22   13.32   45.08
  -1   8 -22  -66.34  208.70
   1  -8  22   54.67   75.76
   1  -8  22  -68.16   54.91
   0   8 -22  -35.26   38.77
   0  -8  22   -2.78   56.80
   0  -8  22    2.60   53.88
  -8   1 -22   81.86  191.60
   8  -1  22   39.80  134.15
  -8   2 -22  -45.28  198.46
  -2  -8  22   -2.60   70.96
   8  -2  22   24.03  131.23
   8  -2  22   75.69   78.00
  -8   3 -22   30.65  206.80
  -3  -8  22    2.50   68.69
   8  -3  22 -205.61   86.87
   8  -3  22   67.20  118.52
  -3  -8  22  177.76   49.23
  -8   4 -22 -322.61  210.84
   8  -4  22   37.08   84.88
   8  -4  22   15.26  105.57
  -8   5 -22   43.13   54.93
  -8   5 -22 -295.26  222.93
   8  -5  22   21.08   94.14
   8  -5  22   18.48  100.56
  -8   6 -22    5.58  231.26
  -8   6 -22   17.70   57.26
   8  -6  22    3.67   97.05
   8  -6  22   79.06   91.78
  -8   7 -22    5.83  240.42
  -8   7 -22    3.55   55.44
   8  -7  22   26.35  104.31
   8  -7  22    3.93   83.85
  -8   8 -22  327.61  255.64
  -8   8 -22  142.90   60.05
   8  -8  22    7.79  111.74
   8  -8  22    3.66   82.78
  -8   9 -22   83.00  251.65
  -8   9 -22  -26.02   56.30
   8  -9  22    7.98  105.37
   8  -9  22    3.68   77.88
  -7   9 -22  214.97  256.38
  -7   9 -22  124.75   59.73
   7  -9  22  116.82  105.32
   7  -9  22   99.20   81.98
  -6   9 -22    3.42   46.99
  -6   9 -22   32.38  221.48
   6  -9  22    3.57   95.79
  -5   9 -22   -9.86   47.64
  -5   9 -22   98.43  220.28
   5  -9  22    3.28   70.65
   5  -9  22   61.38   89.14
  -4   9 -22    3.16   47.21
  -4   9 -22    5.05  208.48
   4  -9  22    3.15   64.42
   4  -9  22   39.10   89.03
  -3   9 -22    3.03   44.47
  -3   9 -22  176.86  211.88
   3  -9  22    9.38   79.89
   3  -9  22  -27.25   64.40
  -2   9 -22  182.98  208.77
  -2   9 -22  -78.13   40.93
   2  -9  22   57.31   79.57
  -1   9 -22  -19.22   38.77
  -1   9 -22  -14.23  199.59
   1  -9  22 -280.31   77.94
   1  -9  22   -2.77   56.46
   0   9 -22   -5.23   38.57
   0   9 -22    4.69  202.82
   0  -9  22 -106.06   55.60
   0  -9  22    2.83   76.26
  -9   1 -22   85.83  188.64
   1   9 -22  180.44  201.75
   1   9 -22  -41.68   35.28
   9  -1  22   33.68  144.76
  -1  -9  22 -120.97   74.80
  -1  -9  22    7.61   53.21
   2   9 -22   -9.20   32.98
  -9   2 -22  -15.76  204.05
   9  -2  22   -3.42   84.84
  -2  -9  22   28.79   47.64
   9  -2  22   18.73  138.07
  -9   3 -22 -325.69  217.58
   9  -3  22   11.35  120.76
   9  -3  22   10.36   85.88
  -9   4 -22  114.52  222.36
   9  -4  22 -115.82  111.44
   9  -4  22  -91.05   91.57
  -9   5 -22  -84.10  225.62
  -9   5 -22    3.76   52.13
   9  -5  22    3.65   93.10
   9  -5  22   92.97  105.36
  -9   6 -22  -11.07   55.14
  -9   6 -22 -262.07  255.62
   9  -6  22  -65.03  100.74
   9  -6  22   -4.32   92.48
  -9   7 -22   85.17   60.54
  -9   7 -22  200.57  272.63
   9  -7  22   67.46  106.80
   9  -7  22  -16.29   90.24
  -9   8 -22   18.64  273.92
  -9   8 -22  119.29   58.63
   9  -8  22    8.20  107.48
   9  -8  22   11.38   81.55
  -9   9 -22    3.88   57.97
  -9   9 -22   18.88  255.09
   9  -9  22    3.81   81.88
   9  -9  22  -63.81  106.29
  -9  10 -22    4.01   56.99
  -9  10 -22 -163.90  267.63
   9 -10  22   96.68   77.39
   9 -10  22  109.43  115.57
  -8  10 -22 -201.21  253.49
  -8  10 -22    3.85   55.80
   8 -10  22    3.73   73.61
   8 -10  22 -394.93  113.17
  -7  10 -22   -3.70   56.23
  -7  10 -22   95.61  232.72
   7 -10  22   -3.86  104.29
   7 -10  22   14.41   70.79
  -6  10 -22  -60.39   53.23
  -6  10 -22 -224.73  229.14
   6 -10  22 -184.12   71.33
   6 -10  22    3.64   94.16
  -5  10 -22 -109.11   53.40
  -5  10 -22 -591.28  229.13
   5 -10  22   -3.48   94.30
   5 -10  22    3.35   66.23
  -4  10 -22    5.02  210.26
  -4  10 -22    3.27   46.56
   4 -10  22   29.00   69.23
   4 -10  22   16.57   87.90
  -3  10 -22    4.90  201.46
  -3  10 -22   21.89   49.46
   3 -10  22  -49.63   64.15
   3 -10  22 -247.90   84.65
  -2  10 -22   81.87  206.63
  -2  10 -22    3.00   45.51
   2 -10  22   79.68   63.00
   2 -10  22   12.25   80.38
  -1  10 -22  -45.71   42.25
  -1  10 -22  123.83  202.91
   1 -10  22    2.84   57.70
   1 -10  22 -225.14   80.35
   0  10 -22  -35.28   40.31
   0  10 -22  557.05  213.45
   0 -10  22   68.94   72.82
   0 -10  22   76.52   55.65
   1  10 -22   43.89   37.66
   1  10 -22   75.02  204.48
  -1 -10  22    7.80   52.26
  -1 -10  22  -55.86   73.81
  10  -1  22  -97.38  154.33
 -10   2 -22  -99.03  222.98
   2  10 -22    9.81   34.36
   2  10 -22 -264.60  205.65
  -2 -10  22   21.71   74.42
  10  -2  22    3.57   85.33
  10  -2  22    6.31  129.64
  -2 -10  22   37.76   50.08
 -10   3 -22   55.92  231.57
  10  -3  22 -153.00  126.51
  10  -3  22   32.28   88.26
 -10   4 -22  171.93  242.19
  10  -4  22   -3.64   88.42
  10  -4  22 -135.84  116.77
 -10   5 -22    3.94   60.70
 -10   5 -22    5.87  244.76
  10  -5  22   33.65  106.97
  10  -5  22  -79.68   97.24
 -10   6 -22   34.74   57.62
 -10   6 -22   42.64  269.11
  10  -6  22   17.83   94.99
  10  -6  22   39.90  108.44
 -10   7 -22  818.13  281.60
 -10   7 -22  -61.77   57.76
  10  -7  22    4.18  106.96
  10  -7  22   -4.13   90.21
 -10   8 -22   98.59  283.63
 -10   8 -22   98.53   59.79
  10  -8  22    8.66  114.02
  10  -8  22 -200.20   84.28
 -10   9 -22 -146.01   59.35
 -10   9 -22   20.12  284.11
  10  -9  22  103.99  115.04
  10  -9  22    3.94   83.15
 -10  10 -22   16.67   77.04
 -10  10 -22  933.22  317.17
  10 -10  22  339.80  103.26
  10 -10  22  131.09  140.01
 -10  11 -22    6.77  294.40
 -10  11 -22    4.34   61.67
  10 -11  22  -49.03   83.74
  10 -11  22    4.87  131.65
  -9  11 -22  141.60   94.07
  -9  11 -22 1058.71  307.96
   9 -11  22  169.84  112.78
   9 -11  22  605.06  162.61
  -8  11 -22   24.00   57.62
  -8  11 -22   23.71  249.67
   8 -11  22   11.45   76.06
   8 -11  22  -55.10  111.74
  -7  11 -22   22.41  240.02
   7 -11  22  -43.94  101.61
   7 -11  22   59.02   75.22
  -6  11 -22   -3.70   53.07
  -6  11 -22   64.64  228.65
   6 -11  22    3.56   72.49
   6 -11  22   30.04   97.67
  -5  11 -22   72.46  219.42
  -5  11 -22  -24.93   51.80
   5 -11  22   -3.44   71.46
   5 -11  22 -103.01   93.17
  -4  11 -22 -245.75  207.77
  -4  11 -22   -3.42   48.08
   4 -11  22   88.50   67.12
   4 -11  22   91.53   87.18
  -3  11 -22   13.21   45.77
  -3  11 -22  246.43  213.66
   3 -11  22  -22.17   64.47
   3 -11  22   -3.23   86.13
  -2  11 -22  -19.03   47.25
  -2  11 -22 -135.84  207.60
   2 -11  22    3.10   80.29
   2 -11  22  -45.92   63.90
  -1  11 -22    6.08   44.78
  -1  11 -22   76.84  212.36
   1 -11  22  168.84   62.74
   1 -11  22  101.64   85.57
   0  11 -22   -4.78  201.92
   0  11 -22   50.33   39.46
   0 -11  22  -37.52   78.45
   1  11 -22   -8.47   38.90
   1  11 -22    4.76  203.31
  11  -1  22   69.79  156.28
  -1 -11  22  -72.91   75.45
 -11   2 -22 -161.58  246.36
   2  11 -22 -445.21  215.72
  11  -2  22  -96.44   94.86
  11  -2  22 -507.18  152.95
  -2 -11  22   13.62   74.78
 -11   3 -22  204.33  251.06
  11  -3  22  -33.22   90.49
  11  -3  22  -82.71  135.85
 -11   4 -22  281.80  250.71
 -11   4 -22  -16.68   63.48
  11  -4  22   15.08   95.06
  11  -4  22   53.75  118.58
 -11   5 -22 -196.95  260.98
 -11   5 -22  -20.52   63.99
  11  -5  22   54.48  105.80
  11  -5  22 -180.89   99.60
 -11   6 -22 -169.91   58.91
 -11   6 -22  268.26  260.54
  11  -6  22 -103.04   94.43
  11  -6  22   -8.28  109.04
 -11   7 -22   92.93  282.46
 -11   7 -22   -4.07   56.56
  11  -7  22   89.34   91.80
  11  -7  22  -92.14  111.73
 -11   8 -22   16.50   65.92
 -11   8 -22  629.55  315.71
  11  -8  22 -100.67  121.83
  11  -8  22    8.10   87.76
 -11   9 -22 2621.94  508.93
  11  -9  22 1459.69  382.63
 -11  10 -22    4.34   69.46
 -11  10 -22  -86.72  294.11
  11 -10  22  -45.39   87.55
  11 -10  22 -266.45  135.05
 -11  11 -22  168.02  322.76
 -11  11 -22   -4.52   65.67
  11 -11  22   16.64   85.55
  11 -11  22   99.68  140.45
 -10  12 -22  302.48  302.94
 -10  12 -22    4.62   65.54
  10 -12  22   33.63   87.09
  10 -12  22  -71.60  129.17
  -9  12 -22   25.59  275.40
  -9  12 -22  115.46   64.43
   9 -12  22   -4.77  124.43
   9 -12  22   16.28   88.21
  -8  12 -22    4.27   64.13
  -8  12 -22 -557.38  284.02
   8 -12  22  -62.09  125.74
   8 -12  22 -115.12   83.18
  -7  12 -22  183.36  248.56
   7 -12  22  -24.86  114.72
  -6  12 -22    5.46  229.73
  -6  12 -22  -91.22   60.07
   6 -12  22    3.69   75.27
   6 -12  22   -3.90  100.23
  -5  12 -22  132.25  219.71
  -5  12 -22    3.82   52.44
   5 -12  22   53.51   71.95
   5 -12  22   14.66   96.02
  -4  12 -22  154.07  221.55
  -4  12 -22  112.26   54.19
   4 -12  22   34.58   90.48
  -3  12 -22   60.36  201.55
  -3  12 -22   14.40   50.94
   3 -12  22  -36.05   84.76
  -2  12 -22 -133.84  206.70
  -2  12 -22   38.08   47.21
   2 -12  22    3.16   84.93
  -1  12 -22    9.81  200.62
   1 -12  22   75.87   80.26
   0  12 -22  380.73  214.93
   0 -12  22   -2.93   86.15
  -1 -12  22  -65.25   77.66
  12  -1  22  -78.19  160.68
 -12   2 -22   84.61  274.28
  -2 -12  22  -49.54   74.72
 -12   3 -22 -292.45  242.80
  12  -3  22  -11.43   95.16
  12  -3  22 -217.89  130.25
 -12   4 -22  157.32   67.62
 -12   4 -22   37.53  266.10
  12  -4  22   16.48  118.57
  12  -4  22  -27.36   97.59
 -12   5 -22 -187.16  280.55
 -12   5 -22   42.84   61.85
  12  -5  22   14.78  105.30
  12  -5  22    4.03   98.40
 -12   6 -22 -102.20   63.82
 -12   6 -22  -33.44  273.64
  12  -6  22   59.76  104.23
  12  -6  22  -25.62  113.93
 -12   7 -22 -564.88  309.33
 -12   7 -22   12.75   61.62
  12  -7  22 -241.20  120.04
  12  -7  22  -82.88   98.35
 -12   8 -22 -882.21  354.56
 -12   8 -22 -190.02   69.07
  12  -8  22 -154.49   92.41
 -12   9 -22   83.29  317.00
 -12   9 -22 -141.68   64.79
  12  -9  22    4.20   89.55
  12  -9  22  -35.43  137.20
 -12  10 -22   30.89  328.69
 -12  10 -22   27.12   63.66
  12 -10  22   12.63   92.36
  12 -10  22   10.71  141.03
 -12  11 -22  118.04  336.38
  12 -11  22    5.64  148.86
  13  -1  22   28.14  152.66
 -13   2 -22  -56.93  241.89
  13  -2  22  237.59  144.90
 -13   3 -22  119.99  260.89
  13  -3  22 -110.26  136.69
  13  -3  22   50.94   99.36
 -13   4 -22   64.10   73.16
 -13   4 -22  -91.43  271.99
  13  -4  22  -10.82  119.67
  13  -4  22  148.41  101.44
 -13   5 -22 -372.80  312.32
 -13   5 -22 -156.55   73.96
  13  -5  22 -468.74  114.48
  13  -5  22 -275.70  123.94
 -13   6 -22   -4.46   69.02
 -13   6 -22 -526.42  335.08
  13  -6  22 -228.97  128.15
 -13   7 -22    4.44   67.46
 -13   7 -22  132.15  312.16
  13  -7  22    4.70  122.29
  13  -7  22    4.45   98.56
 -13   8 -22   -7.66  335.39
 -13   8 -22    4.52   67.16
  13  -8  22   77.19   92.96
  13  -8  22  181.90  138.49
 -13   9 -22 -737.76  370.71
 -13   9 -22   32.63   66.52
  13  -9  22    5.35  140.82
  13  -9  22   21.46   90.17
 -13  10 -22  -82.84  362.56
  13 -10  22  -17.27   89.18
  13 -10  22  -39.69  142.01
  14  -2  22  401.64  185.10
 -14   3 -22    4.83   71.14
 -14   3 -22 -335.93  283.57
  14  -3  22  -76.80  133.64
  14  -3  22 -168.92  105.75
 -14   4 -22 -101.58  283.67
 -14   4 -22   -4.76   70.53
  14  -4  22   65.18  104.24
  14  -4  22   32.79  119.88
 -14   5 -22   98.88  291.37
 -14   5 -22  -46.74   70.04
  14  -5  22  -65.70  105.73
  14  -5  22    8.49  107.47
 -14   6 -22  235.43  321.90
 -14   6 -22  -41.79   74.91
  14  -6  22    4.47  116.17
  14  -6  22  340.83  104.69
 -14   7 -22  430.85  331.79
 -14   7 -22    4.69   67.89
  14  -7  22 -127.81   97.36
  14  -7  22    9.61  124.08
 -14   8 -22    4.77   66.05
  14  -8  22    5.20  133.05
  14  -8  22 -232.21   97.57
 -14   9 -22    4.86   75.57
 -14   9 -22 -237.63  375.37
  14  -9  22 -218.77  147.67
  14  -9  22    8.78   90.00
  15  -1 -22  455.01  272.93
 -15   6 -22   48.62   74.86
 -15   7 -22   19.61   70.17
 -15   8 -22 -263.21  373.15
 -15   8 -22 -189.27   67.69
  16  -1 -22   42.44  257.56
   0  -1  23  255.17  121.97
  -1  -1  23    9.14   97.91
   1  -1  23 -202.80  104.97
  -1   2 -23   -7.76  146.27
   1  -2  23  -89.12  100.50
   1  -2  23 -142.24   66.59
  -2  -1  23    8.68   92.52
   0   2 -23 -100.95  147.01
   0  -2  23   40.19   99.62
   0  -2  23    2.63   59.41
   1   2 -23 -325.92  144.57
  -1  -2  23  -25.51   93.41
  -1  -2  23  134.64   62.40
  -2   2 -23 -150.00  156.04
   2   2 -23  -74.05  132.18
   2  -2  23   33.15   67.06
  -2  -2  23   -4.04   91.55
  -3  -2  23    3.83   86.28
  -1   3 -23  117.06  164.62
  -3  -1  23    8.23   89.29
   1  -3  23  405.11   88.48
   1  -3  23   13.28   71.30
   0   3 -23  200.80  151.45
   0  -3  23    5.15   65.16
   0  -3  23   49.31   87.27
   1   3 -23   67.57  145.67
  -1  -3  23   31.31   81.33
  -1  -3  23  -90.13   61.29
   2   3 -23  268.11  146.46
  -2  -3  23  148.59   89.68
  -2  -3  23  163.28   72.42
   3   3 -23 -171.77  139.19
  -3  -3  23   40.95   74.86
  -3  -3  23    2.40   59.07
   3  -4  23   71.50   96.54
  -1   4 -23  135.73  175.40
   1  -4  23  228.39   82.18
   0   4 -23  277.05  166.69
   0  -4  23  -37.76   86.40
   0  -4  23   95.14   65.74
   1   4 -23   -3.60  154.91
   4  -1  23   11.81  120.96
  -1  -4  23   64.55   80.01
  -1  -4  23  143.57   67.44
   2   4 -23  -27.30  145.88
  -2  -4  23  -23.65   72.90
  -2  -4  23  -45.55   62.48
   4  -2  23   16.29  113.54
   3   4 -23  106.96  142.36
   4  -3  23  119.10  110.21
  -3  -4  23   32.66   70.96
   4  -3  23  272.92   80.02
  -3  -4  23   96.85   75.77
  -4   4 -23   22.96  189.74
   4  -4  23 -212.37   79.22
   4  -4  23    4.68   93.14
  -4   5 -23  321.69  212.33
  -4   5 -23   32.49   51.61
   4  -5  23  125.91   92.11
   4  -5  23   16.74   95.43
  -3   5 -23  124.46  200.30
  -3   5 -23   69.01   49.58
   3  -5  23   -4.00   84.46
   3  -5  23    9.07   74.58
  -2   5 -23   15.14   45.16
   2  -5  23 -229.11   85.98
   0   5 -23 -184.53  177.59
   0  -5  23   77.48   71.54
   1   5 -23   34.51   43.20
  -5   1 -23   18.87  173.25
   1   5 -23  333.68  169.19
  -1  -5  23   41.07   69.91
   5  -1  23  -98.12  129.88
  -1  -5  23   43.51   68.88
   2   5 -23  -42.33   40.63
  -5   2 -23    4.62  169.80
   2   5 -23  106.93  156.11
  -2  -5  23  127.17   66.22
   5  -2  23  -12.31   74.28
   5  -2  23    5.70  123.53
  -2  -5  23  -14.84   65.42
  -5   3 -23  112.78  190.53
   3   5 -23  109.92  146.84
   3   5 -23  104.89   40.45
  -3  -5  23   56.45   64.42
   5  -3  23    3.09   78.05
   5  -3  23   77.99  109.62
  -3  -5  23   60.66   62.46
  -5   4 -23  513.67  207.05
   5  -4  23    6.32   87.23
   5  -4  23   97.97  108.64
  -5   5 -23  129.89  211.58
  -5   5 -23    3.37   50.23
   5  -5  23    3.28   84.99
   5  -5  23   87.54   97.79
  -5   6 -23  194.18  235.88
  -5   6 -23   23.37   49.88
   5  -6  23 -203.73   91.53
   5  -6  23   30.55   91.93
  -4   6 -23  274.38  251.78
  -4   6 -23    3.21   45.82
   4  -6  23   -3.25   86.30
   4  -6  23  -97.53   94.67
  -3   6 -23 -167.04  229.38
  -3   6 -23  -77.29   45.09
   3  -6  23 -181.18   88.29
   3  -6  23  -96.90   86.43
  -2   6 -23  161.45  205.40
  -2   6 -23   23.75   47.35
   2  -6  23   60.09   81.75
   2  -6  23    3.45   80.04
  -1   6 -23  -22.69   43.35
   1  -6  23 -108.44   76.26
   1   6 -23 -596.06  201.60
  -6   1 -23  -59.05  175.63
   6  -1  23 -269.91  149.02
  -1  -6  23 -213.35   78.74
   2   6 -23  272.53  185.63
   2   6 -23    2.37   37.44
  -6   2 -23  -72.42  187.78
  -2  -6  23   64.16   61.26
   6  -2  23    3.20   75.67
   3   6 -23    2.17   36.69
  -6   3 -23    4.91  195.50
  -3  -6  23   -2.49   56.50
   6  -3  23    3.23   79.62
  -3  -6  23  -66.11   69.18
  -6   4 -23  -10.04  208.84
   6  -4  23    9.83   85.20
  -6   5 -23  140.30  219.33
   6  -5  23   -3.41   85.63
  -6   6 -23  249.70  235.73
   6  -6  23  -35.45   95.01
  -6   7 -23 -107.50   53.18
  -6   7 -23   56.59  247.50
   6  -7  23   -3.60   94.10
  -5   7 -23    3.34   49.45
  -5   7 -23  -98.40  262.50
   5  -7  23    3.73   90.93
   5  -7  23 -193.57   92.65
  -4   7 -23  248.92  358.44
  -3   7 -23   12.31   46.10
  -3   7 -23   56.64  247.26
   3  -7  23   57.52   86.74
   3  -7  23   13.66   78.34
  -2   7 -23   10.02  223.20
  -2   7 -23   -2.95   42.49
   2  -7  23   -3.08   79.68
   2  -7  23    3.26   68.93
  -1   7 -23 -292.11  212.60
  -1   7 -23    8.42   47.45
   1  -7  23 -285.69   80.57
   1  -7  23  -96.28   65.89
   0   7 -23   39.73   41.59
   0  -7  23   20.15   60.27
  -7   1 -23  -30.88  182.48
   7  -1  23   60.50  143.57
   2   7 -23 -124.67  196.30
  -7   2 -23 -101.00  195.68
   7  -2  23    3.33   79.16
  -2  -7  23  -29.06   75.71
   7  -2  23   18.32  129.36
  -7   3 -23   87.28  210.51
   7  -3  23   34.20  129.37
  -3  -7  23  145.69   53.38
   7  -3  23   -3.36   87.28
  -7   4 -23  -15.75  216.24
   7  -4  23 -150.93  112.80
   7  -4  23    3.41   87.86
  -7   5 -23 -454.49  220.43
  -7   5 -23   32.80   51.55
   7  -5  23   56.65   91.23
   7  -5  23   14.27  102.15
  -7   6 -23   10.80   62.22
  -7   6 -23  151.64  242.06
   7  -6  23   -3.70   93.62
   7  -6  23  128.88   95.91
  -7   7 -23  -64.32  246.76
  -7   7 -23  -28.89   59.28
   7  -7  23 -149.80   86.88
   7  -7  23    3.79   98.73
  -7   8 -23   -3.64   57.66
  -7   8 -23  279.45  258.32
   7  -8  23   11.64  107.91
   7  -8  23  100.67   88.71
  -6   8 -23    3.49   52.97
  -6   8 -23   28.83  250.90
   6  -8  23  147.98  100.48
  -5   8 -23 -105.81  237.78
  -5   8 -23  -73.87   50.01
   5  -8  23   28.31   97.41
   5  -8  23  -85.85   78.26
  -4   8 -23   75.63  228.53
  -4   8 -23  -74.12   51.51
   4  -8  23    3.43   76.78
   4  -8  23  -74.68   87.99
  -3   8 -23  -98.86   47.47
  -3   8 -23    5.26  238.78
   3  -8  23    9.82   68.95
   3  -8  23   71.81   90.21
  -2   8 -23  -15.44  219.15
  -2   8 -23   53.11   45.03
   2  -8  23    3.05   67.97
   2  -8  23   -3.15   81.00
  -1   8 -23    2.84   43.19
  -1   8 -23   10.09  220.70
   1  -8  23    2.90   61.97
   1  -8  23    3.04   81.79
   0   8 -23   -2.68   39.55
   0   8 -23   19.72  217.07
   0  -8  23    2.95   74.45
   0  -8  23    2.76   58.71
   8  -1  23  -27.44  177.76
  -1  -8  23  649.28  125.45
  -8   2 -23 -121.36  195.37
  -2  -8  23   -2.49   55.25
   8  -2  23   72.87   85.22
   8  -2  23   57.32  133.96
  -8   3 -23   91.44  207.35
   8  -3  23   23.81  131.13
   8  -3  23 -175.08   86.95
  -8   4 -23   10.98  223.24
   8  -4  23  -76.06  114.54
   8  -4  23   -3.55   93.32
  -8   5 -23  -64.61   64.07
  -8   5 -23   45.11  223.55
   8  -5  23 -298.83   96.02
   8  -5  23    4.94  108.45
  -8   6 -23   33.75   60.77
  -8   6 -23  227.76  250.39
   8  -6  23    3.85  100.05
   8  -6  23    8.93   94.45
  -8   7 -23   60.26   60.09
  -8   7 -23  249.18  270.23
   8  -7  23  113.61   95.21
   8  -7  23   59.69  109.27
  -8   8 -23  124.16  270.23
  -8   8 -23    3.79   56.92
   8  -8  23 -241.30   88.16
   8  -8  23  -28.51  104.82
  -8   9 -23    7.81   58.32
  -8   9 -23  125.64  257.28
   8  -9  23   74.40   85.77
   8  -9  23   29.36  108.98
  -7   9 -23  215.06  251.83
   7  -9  23 -290.05   85.31
   7  -9  23  -23.76  107.21
  -6   9 -23 -207.34  251.47
  -6   9 -23   -3.60   50.25
   6  -9  23  -57.96   80.85
   6  -9  23 -217.47   98.91
  -5   9 -23   62.21   53.42
  -5   9 -23 -388.53  231.23
   5  -9  23    3.58   95.63
   5  -9  23 -174.16   74.53
  -4   9 -23    5.39  226.82
  -4   9 -23   20.03   49.95
   4  -9  23 -284.28   92.81
   4  -9  23    6.69   73.17
  -3   9 -23  199.75  235.02
  -3   9 -23    3.20   48.02
   3  -9  23    6.42   68.78
  -2   9 -23  -98.12  219.27
  -2   9 -23   36.76   45.70
   2  -9  23   73.81   67.65
   2  -9  23  -41.55   86.49
  -1   9 -23  -35.56  222.24
  -1   9 -23   14.56   41.98
   1  -9  23    2.94   61.59
   1  -9  23   71.25   86.30
   0   9 -23   85.25  217.50
   0   9 -23  -24.70   39.81
   0  -9  23  -96.20   80.82
   0  -9  23   33.59   57.14
   1   9 -23  -49.24   40.00
   1   9 -23    4.93  212.24
  -1  -9  23  -46.66   77.85
  -1  -9  23    2.67   52.44
   9  -1  23   57.01  155.17
  -9   2 -23    5.53  210.74
   2   9 -23  -33.63   34.29
   2   9 -23   -4.83  213.38
   9  -2  23    6.62  143.94
  -2  -9  23    8.46   77.21
  -2  -9  23  -37.75   51.99
   9  -2  23   36.19   85.64
  -9   3 -23   -5.62  215.65
   9  -3  23    6.04  126.54
   9  -3  23  -25.29   84.43
  -9   4 -23 -288.11  235.62
   9  -4  23    3.70   91.60
   9  -4  23    5.63  125.21
  -9   5 -23   55.61   58.78
  -9   5 -23 -117.84  250.24
   9  -5  23   57.68   94.95
   9  -5  23 -134.38  112.62
  -9   6 -23   24.39  261.19
  -9   6 -23   27.39   61.07
   9  -6  23   32.47  105.41
   9  -6  23  -92.56  105.13
  -9   7 -23  -55.05   58.97
  -9   7 -23    6.32  274.14
   9  -7  23  108.93  111.11
   9  -7  23   39.33   93.99
  -9   8 -23 -104.38  270.08
  -9   8 -23   11.87   58.06
   9  -8  23    4.29  113.00
   9  -8  23  -66.81   86.73
  -9   9 -23  145.99  281.50
  -9   9 -23   24.60   62.12
   9  -9  23  -57.79  117.92
   9  -9  23   16.25   87.07
  -9  10 -23 -589.53  301.11
  -9  10 -23 -140.04   66.26
   9 -10  23 -152.00   94.91
   9 -10  23   -4.57  129.13
  -8  10 -23  295.17  268.77
  -8  10 -23    4.07   57.66
   8 -10  23  -21.42  109.47
   8 -10  23  -19.81   79.54
  -7  10 -23    5.96  250.79
   7 -10  23   20.16  107.17
  -6  10 -23   48.87   57.77
  -6  10 -23  153.40  243.42
   6 -10  23    3.83  100.48
   6 -10  23    3.68   77.87
  -5  10 -23   66.11  236.98
  -5  10 -23   -3.61   53.02
   5 -10  23   87.34  100.56
   5 -10  23    3.54   75.01
  -4  10 -23    3.46   51.30
  -4  10 -23  -69.44  225.74
   4 -10  23   -3.47   91.32
   4 -10  23  -68.04   70.73
  -3  10 -23    9.93   48.57
  -3  10 -23   67.83  223.29
   3 -10  23 -116.81   90.12
   3 -10  23  -42.51   63.39
  -2  10 -23  205.61  225.57
  -2  10 -23   15.74   46.44
   2 -10  23  -67.62   85.11
   2 -10  23  -94.23   67.51
  -1  10 -23   -3.00   42.75
  -1  10 -23 -208.52  225.20
   1 -10  23   62.55   62.75
   1 -10  23   47.12   85.70
   0  10 -23  110.96  227.33
   0  10 -23  -19.92   40.89
   0 -10  23   18.30   82.32
   0 -10  23   74.31   55.72
   1  10 -23   45.59   40.38
   1  10 -23 -195.03  227.24
  -1 -10  23   -2.96   81.35
  -1 -10  23 -111.19   56.57
 -10   2 -23 -173.84  234.07
   2  10 -23   22.85   34.84
   2  10 -23    4.93  217.26
  10  -2  23 -160.80  145.62
  10  -2  23   33.88   92.11
  -2 -10  23   10.44   54.40
  -2 -10  23 -152.60   79.44
 -10   3 -23  -93.91  235.86
  10  -3  23  225.79  140.35
  10  -3  23    3.76   96.90
 -10   4 -23  108.48  241.36
  10  -4  23  111.39  101.53
  10  -4  23  -40.74  130.93
 -10   5 -23 -257.95   62.99
 -10   5 -23  277.80  261.26
  10  -5  23   -5.16  109.50
  10  -5  23    4.00  100.77
 -10   6 -23  407.94  265.66
 -10   6 -23   28.62   64.77
  10  -6  23  163.01  110.39
  10  -6  23   66.94  112.12
 -10   7 -23  210.87  280.46
 -10   7 -23   65.64   64.03
  10  -7  23    4.53   96.69
  10  -7  23  -48.42  112.95
 -10   8 -23   54.63  288.22
 -10   8 -23    4.13   59.58
  10  -8  23  -68.28  118.82
  10  -8  23    4.21   90.73
  10  -9  23 -320.20  101.67
 -10  10 -23  -97.21   67.72
 -10  10 -23 -155.59  302.52
  10 -10  23    4.25   86.90
  10 -10  23    4.90  136.35
 -10  11 -23   42.83  307.59
 -10  11 -23  -36.56   68.04
  10 -11  23   -5.07  137.34
  10 -11  23  -38.88   87.90
  -9  11 -23   13.16   63.60
  -9  11 -23   26.67  288.72
   9 -11  23    4.17   87.10
   9 -11  23   -4.72  127.25
  -8  11 -23  450.85  309.60
  -8  11 -23  324.21  116.75
   8 -11  23  435.10  133.28
   8 -11  23  447.17  171.24
  -7  11 -23  274.19  249.68
   7 -11  23  -37.33  111.62
  -6  11 -23   23.35   54.47
  -6  11 -23  170.52  251.50
   6 -11  23   -3.91   99.95
   6 -11  23 -168.72   77.95
  -5  11 -23  -65.72  233.30
  -5  11 -23   14.97   47.57
   5 -11  23  -78.34   95.91
   5 -11  23 -137.39   72.71
  -4  11 -23 -150.83   53.44
  -4  11 -23   37.54  224.43
   4 -11  23   52.30   71.93
   4 -11  23   14.22   92.95
  -3  11 -23   20.66   48.20
  -3  11 -23   68.20  219.65
   3 -11  23  -46.43   65.37
   3 -11  23    3.41   84.93
  -2  11 -23    3.31   49.20
  -2  11 -23  118.86  223.19
   2 -11  23    3.20   62.85
   2 -11  23   52.54   87.11
  -1  11 -23 -179.11  225.56
  -1  11 -23   -6.33   41.17
   1 -11  23 -193.65   88.02
   1 -11  23  -30.86   63.09
   0  11 -23 -208.59  227.30
   0  11 -23   30.20   43.71
   0 -11  23   -3.08   81.95
   0 -11  23   50.68   62.30
   1  11 -23  -49.61   40.10
   1  11 -23 -430.50  225.61
  -1 -11  23  156.30   83.73
 -11   2 -23  424.83  265.72
   2  11 -23  236.23  226.21
  -2 -11  23    2.91   80.07
  11  -2  23  -34.56  163.38
 -11   3 -23  434.88  251.85
  11  -3  23    3.89   92.52
  11  -3  23    6.48  142.70
 -11   4 -23   88.11  263.87
 -11   4 -23   30.71   66.51
  11  -4  23  -67.93   98.13
  11  -4  23    5.76  123.57
 -11   5 -23  174.71  265.84
 -11   5 -23    4.35   60.59
  11  -5  23   -5.32  115.30
  11  -5  23   16.47  101.49
 -11   6 -23  -98.54   64.77
 -11   6 -23 -126.83  288.17
  11  -6  23  133.24  109.59
  11  -6  23 -299.20  115.24
 -11   7 -23  249.05  302.04
 -11   7 -23   21.40   63.90
  11  -7  23    4.58   99.97
  11  -7  23  229.22  123.26
 -11   8 -23  301.86  187.84
 -11   8 -23 1572.43  413.56
  11  -8  23 1621.71  233.04
  11  -8  23  878.40  207.64
 -11   9 -23    4.49   69.72
 -11   9 -23  192.60  320.87
  11  -9  23    4.35   93.05
  11  -9  23    4.99  137.38
 -11  10 -23  -52.59  332.90
 -11  10 -23   41.46   67.92
  11 -10  23    4.40   90.15
  11 -10  23   -5.23  138.10
 -11  11 -23  312.94  329.80
  11 -11  23 -289.27  145.55
  -9  12 -23   41.79   65.93
  -9  12 -23  -20.27  294.23
   9 -12  23  -86.24   89.53
   9 -12  23   -4.93  135.51
  -8  12 -23   25.37  283.01
  -8  12 -23 -120.52   62.76
   8 -12  23    4.59  123.09
   8 -12  23   29.16   82.52
   7 -12  23   -4.32  116.55
  -6  12 -23 -399.79  268.39
  -6  12 -23 -132.24   63.97
   6 -12  23 -167.13   87.20
   6 -12  23  -97.53  119.90
  -5  12 -23 -284.50  233.68
  -5  12 -23   35.85   59.48
   5 -12  23   19.22  102.11
   5 -12  23  191.59   80.94
  -4  12 -23  -10.83  229.00
  -4  12 -23    7.68   54.22
   4 -12  23    3.66   91.86
   4 -12  23   25.21   70.89
  -3  12 -23 -112.43   53.64
  -3  12 -23  -37.37  230.65
   3 -12  23    3.49   85.93
  -2  12 -23  105.20  227.53
  -2  12 -23 -186.93   54.92
   2 -12  23   -3.35   89.61
  -1  12 -23 -106.61   48.45
  -1  12 -23  338.77  225.40
   1 -12  23   58.07   89.48
   0  12 -23 -124.46  226.25
   0 -12  23    3.12   83.02
   1  12 -23  196.45  224.05
  -1 -12  23  -39.33   87.20
 -12   2 -23 -743.61  352.65
   2  12 -23  133.67  223.32
  12  -2  23 -752.09  186.68
  -2 -12  23 -117.40   83.20
 -12   3 -23 -127.24  261.08
  12  -3  23  116.37  145.31
  12  -3  23   12.04   95.22
 -12   4 -23  -59.17  274.20
 -12   4 -23 -124.17   68.01
  12  -4  23 -169.21  100.90
  12  -4  23   70.69  126.20
 -12   5 -23    4.53   66.56
 -12   5 -23   34.03  284.27
  12  -5  23   16.38  125.34
  12  -5  23   25.55  108.85
 -12   6 -23  -90.31   71.79
  12  -6  23 -435.81  121.55
  12  -6  23 -211.45  134.83
  12  -7  23 -140.92  102.96
 -12   8 -23   18.33   68.46
 -12   8 -23    7.54  323.64
  12  -8  23   -4.48   99.22
  12  -8  23    5.07  129.86
 -12   9 -23   -7.83  332.93
 -12   9 -23    4.70   71.25
  12  -9  23  223.07  142.78
  12  -9  23  -31.44   92.04
 -12  10 -23    4.80   70.55
 -12  10 -23  -64.26  340.89
  12 -10  23    5.56  145.60
  -8  13 -23   19.72  286.43
   8 -13  23   -4.85  130.38
  -7  13 -23  529.85  280.01
   7 -13  23   -4.53  125.72
  -6  13 -23    5.96  248.60
   6 -13  23  132.17  114.05
  13  -2  23   49.26  161.59
 -13   3 -23  371.70  279.03
  13  -3  23   16.56  102.89
  13  -3  23 -118.17  147.99
 -13   4 -23  977.55  327.91
  13  -4  23   79.95  141.84
  13  -4  23  598.35  164.56
 -13   5 -23 -853.16  316.57
 -13   5 -23   -4.73   72.04
  13  -5  23   52.58  114.94
  13  -5  23 -544.91  128.79
 -13   6 -23    7.36  312.61
 -13   6 -23   42.53   73.37
  13  -6  23    4.61  116.42
  13  -6  23  116.38  106.80
 -13   7 -23 -374.75  330.23
 -13   7 -23   61.34   69.44
  13  -7  23    9.83  133.29
  13  -7  23   -4.80  107.62
 -13   8 -23  163.12   71.52
 -13   8 -23 -214.95  356.08
  13  -8  23    9.21   99.14
  13  -8  23   -5.27  135.25
 -13   9 -23 -190.73  351.19
  13  -9  23    5.62  144.83
  13  -9  23   22.98   99.58
  14  -2  23  145.27  155.49
 -14   3 -23  373.90  276.78
 -14   3 -23   45.56   79.99
  14  -3  23 -133.15  138.93
 -14   4 -23    5.02   72.39
 -14   4 -23   21.24  286.03
  14  -4  23    5.89  128.14
  14  -4  23   -4.30  102.36
 -14   5 -23  -54.32   68.19
 -14   5 -23 -354.81  310.08
  14  -5  23  -76.40  119.09
  14  -5  23    8.99  111.49
 -14   6 -23   -4.93   72.96
 -14   6 -23 -416.77  340.17
  14  -6  23 -262.66  110.25
  14  -6  23    4.72  124.22
 -14   7 -23 -187.23   72.60
 -14   7 -23  265.13  346.13
  14  -7  23   75.94  130.85
  14  -7  23    4.75  100.25
 -14   8 -23  285.73  361.41
  14  -8  23  169.04  146.68
  14  -8  23    4.71  104.85
 -15   4 -23   36.35   82.04
 -15   5 -23  -15.55   69.70
 -15   5 -23    7.68  323.67
 -15   6 -23    8.07  347.15
 -15   6 -23    5.17   72.23
  15  -6  23    4.79  118.35
 -15   7 -23  -76.00  366.11
  15  -7  23   35.88  129.79
   0  -1  24   50.70  111.07
  -1  -1  24  182.95  114.76
  -2  -1  24   22.85   99.98
   0   2 -24 -186.22  160.03
   0  -2  24  111.71   76.33
   0  -2  24  594.30  105.96
   1   2 -24 -191.77  154.16
  -1  -2  24   31.44  100.81
  -2  -2  24    4.28   89.38
   2  -3  24   33.47   98.58
  -3  -2  24    7.94   91.64
  -3  -1  24   85.78   97.67
   0   3 -24  133.51  163.58
   0  -3  24   13.55   67.59
   1   3 -24   22.50  156.18
  -1  -3  24    2.64   66.37
   3  -1  24 -130.13  126.11
  -1  -3  24   70.56   91.36
   2   3 -24   67.91  150.89
  -2  -3  24  -19.75   93.60
   3  -2  24  302.26   73.86
  -2  -3  24  -44.03   70.04
   3  -2  24   65.48  116.70
   3   3 -24   34.25  141.73
  -3   3 -24   36.14  180.26
  -3  -3  24    2.57   64.91
  -3  -3  24  105.47   80.93
   3  -3  24   50.09  108.93
   3  -3  24  -18.16   77.81
  -3   4 -24   55.71  202.07
   3  -4  24   36.67   84.99
   3  -4  24  132.87  110.99
  -2   4 -24 1169.49  227.24
   2  -4  24  590.36  160.67
   1  -4  24   -4.33   92.22
   1   4 -24 -168.12  162.87
  -1  -4  24  267.76   86.08
  -1  -4  24  -44.73   67.17
  -4   2 -24 -395.28  176.74
   2   4 -24 -119.40  157.72
  -2  -4  24  -14.46   83.76
   4  -2  24 -154.75  126.45
  -2  -4  24  -74.01   70.00
   4  -2  24 -159.53   79.22
  -4   3 -24  -61.47  203.70
   4  -3  24  330.74  127.59
   4  -3  24   75.48  104.26
  -3  -4  24  546.62   93.72
  -3  -4  24  195.95   99.50
  -4   4 -24 -223.36  194.35
   4  -4  24   -4.97  110.92
   4  -4  24  -28.64   85.52
  -4   5 -24 -237.17  206.64
   4  -5  24    3.30   85.08
   4  -5  24   -4.46   93.53
  -3   5 -24  159.90  205.07
   3  -5  24    3.17   83.40
   3  -5  24 -115.24   93.24
  -2   5 -24   32.19   50.54
  -2   5 -24  -18.56  197.96
   2  -5  24 -182.69   87.40
   2  -5  24    4.08   84.64
  -1   5 -24   34.20   54.31
   1  -5  24  298.79   97.05
   1  -5  24   -2.92   81.23
   1   5 -24 1199.75  315.80
  -1  -5  24 1262.00  259.12
  -5   2 -24 -223.34  183.76
   2   5 -24 -104.68  176.16
   2   5 -24    2.69   41.98
  -2  -5  24  127.25   74.52
  -2  -5  24  -31.11   71.84
   5  -2  24 -282.61  133.12
   5  -2  24    9.74   82.03
  -5   3 -24   -4.95  197.49
  -3  -5  24  -72.01   66.58
   5  -3  24    3.27   79.36
   5  -3  24   11.01  118.62
  -3  -5  24  -11.86   69.64
  -5   4 -24   10.14  196.04
   5  -4  24  -39.78   85.89
   5  -4  24    5.20  112.21
  -5   5 -24 -131.26  221.76
  -5   5 -24   32.04   54.07
   5  -5  24  -23.30  100.26
   5  -5  24    3.44   88.96
  -5   6 -24  257.53  239.97
  -5   6 -24   -3.54   54.33
   5  -6  24   -4.35   98.81
   5  -6  24   -3.57   91.04
  -4   6 -24    3.42   50.78
  -4   6 -24  -63.58  233.41
   4  -6  24    3.45   87.72
   4  -6  24    4.16   96.86
  -3   6 -24    3.30   50.22
  -3   6 -24  235.61  232.10
   3  -6  24   91.67   87.70
   3  -6  24    3.31   87.37
  -2   6 -24   50.69   49.12
  -2   6 -24  -24.69  213.19
   2  -6  24  -72.22   84.53
   2  -6  24  -89.27   87.70
  -1   6 -24   78.90   46.20
  -1   6 -24 -241.99  212.80
   1  -6  24  -95.07   82.70
   1  -6  24  119.40   81.68
   0   6 -24    8.67   40.33
   0  -6  24  -96.55   75.21
   0  -6  24   -2.95   61.21
  -6   2 -24   -5.08  189.59
   2   6 -24   -4.03  178.15
  -2  -6  24  -59.24   76.14
   6  -2  24    3.38   76.17
  -6   3 -24 -336.44  210.94
   6  -3  24   20.45   84.44
  -6   4 -24   52.99  216.03
   6  -4  24    3.45   87.95
  -6   5 -24  -54.59  221.95
  -6   5 -24    3.70   58.99
   6  -5  24   -3.58   92.16
  -6   6 -24   14.69   56.58
  -6   6 -24  -56.67  237.33
   6  -6  24   -3.72   98.97
  -6   7 -24   53.17  249.04
  -6   7 -24  -73.64   52.73
   6  -7  24   -3.82   97.31
   6  -7  24 -295.35   97.65
  -5   7 -24   11.46  248.41
  -5   7 -24   -3.54   51.63
   5  -7  24   -3.66   93.41
   5  -7  24 -231.20   93.66
  -4   7 -24  -37.53   49.19
  -4   7 -24  284.05  249.98
   4  -7  24  -24.53   90.74
   4  -7  24   34.32   93.41
  -3   7 -24  -19.69   49.12
  -3   7 -24 -457.09  235.67
   3  -7  24   -3.65   78.79
   3  -7  24   -3.37   87.57
  -2   7 -24   15.73   47.53
  -2   7 -24   68.71  228.09
   2  -7  24   76.59   76.04
   2  -7  24  -87.69   87.73
  -1   7 -24 -123.10  229.38
  -1   7 -24  -63.11   45.81
   1  -7  24   -3.13   86.69
   1  -7  24    9.96   72.48
   0   7 -24   -4.95  218.04
   0   7 -24  -28.43   41.01
   0  -7  24   -3.14   63.70
   0  -7  24  126.82   83.79
  -1  -7  24  883.47  188.31
  -7   2 -24    5.31  208.41
   7  -2  24    6.45  133.77
  -2  -7  24   -2.72   58.97
   7  -2  24 -133.79   83.69
  -7   3 -24   32.46  217.63
   7  -3  24 -138.35   90.09
   7  -3  24 -169.10  133.27
  -7   4 -24    5.54  216.01
   7  -4  24   -5.54  119.33
   7  -4  24    3.60   90.45
  -7   5 -24 -341.06  242.13
  -7   5 -24   -3.84   59.22
   7  -5  24    3.73   95.19
   7  -5  24  121.68  114.93
  -7   6 -24    5.88  236.33
  -7   6 -24   -3.82   57.18
   7  -6  24    3.88  106.48
   7  -6  24    4.73  104.94
  -7   7 -24  750.84  281.29
   7  -7  24  104.06  119.01
   7  -7  24   13.00  104.23
  -7   8 -24  119.03  263.39
   7  -8  24    4.07  105.87
  -6   8 -24  356.16  267.77
  -6   8 -24  -63.11   54.91
   6  -8  24    3.98   85.59
   6  -8  24   89.26  101.50
  -5   8 -24    3.57   52.29
  -5   8 -24    5.86  266.85
   5  -8  24  -91.70   82.57
   5  -8  24    3.72   98.05
  -4   8 -24 -336.60  249.46
  -4   8 -24    3.43   45.81
   4  -8  24   58.53   80.42
   4  -8  24    3.58   94.33
  -3   8 -24  -61.74  249.51
  -3   8 -24    3.29   45.13
   3  -8  24    3.45   93.18
   3  -8  24   42.01   77.23
  -2   8 -24   25.15   46.06
  -2   8 -24  131.87  240.21
   2  -8  24   50.01   92.04
   2  -8  24   46.66   72.66
  -1   8 -24 -360.17  233.61
  -1   8 -24    2.99   43.23
   1  -8  24  -54.81   84.87
   1  -8  24  -64.94   68.43
   0   8 -24  582.30  235.57
   0   8 -24   17.15   44.15
   0  -8  24   82.19   66.48
   0  -8  24  155.95   85.03
   1   8 -24   40.19   38.60
   1   8 -24   71.23  220.43
  -1  -8  24    9.03   79.77
  -1  -8  24  -11.14   60.15
   2   8 -24   14.65  211.76
  -8   2 -24   61.16  218.25
   2   8 -24  -17.53   36.26
   8  -2  24    6.74  146.95
   8  -2  24  -73.29   85.34
  -2  -8  24 -312.44   80.24
  -2  -8  24   18.44   53.03
  -8   3 -24  -11.30  229.99
   8  -3  24  126.32  145.89
   8  -3  24   54.98   93.18
  -8   4 -24  150.95  236.59
   8  -4  24   -3.75   94.79
   8  -4  24   52.01  120.56
  -8   5 -24   65.28  256.94
  -8   5 -24    4.00   61.07
   8  -5  24   19.46   97.47
   8  -5  24   63.38  116.75
  -8   6 -24   -3.97   60.06
  -8   6 -24  324.84  263.48
   8  -6  24   -4.78  104.99
   8  -6  24  210.68  115.39
  -8   7 -24 -196.27  264.11
  -8   7 -24   -3.99   60.95
   8  -7  24 -135.17   96.80
   8  -7  24    4.20  113.33
  -8   8 -24 -233.99  268.92
  -8   8 -24   -4.02   60.65
   8  -8  24   -4.28  108.72
   8  -8  24   77.52   93.62
  -8   9 -24  -49.57   62.48
  -8   9 -24   13.15  278.43
   8  -9  24  -75.08   85.64
   8  -9  24    4.39  115.01
  -7   9 -24  190.24  272.40
   7  -9  24  -37.45  114.04
  -6   9 -24    6.09  242.45
  -6   9 -24   38.10   58.23
   6  -9  24    3.85   80.04
   6  -9  24   15.83  105.32
  -5   9 -24   21.97   55.60
  -5   9 -24 -141.31  262.74
   5  -9  24  -56.62  102.83
   5  -9  24   -3.70   81.83
  -4   9 -24  200.64  253.85
  -4   9 -24   35.15   54.67
   4  -9  24   67.51   79.60
   4  -9  24  101.17  101.54
  -3   9 -24   33.88  238.40
  -3   9 -24    3.37   48.35
   3  -9  24  -40.87   73.72
   3  -9  24   31.32   94.09
  -2   9 -24   77.62  246.07
  -2   9 -24   -3.24   46.96
   2  -9  24    3.26   71.06
   2  -9  24  -30.29   89.01
  -1   9 -24  -64.89   45.07
  -1   9 -24 -185.71  249.92
   1  -9  24  102.82   66.83
   1  -9  24   -3.26   88.92
   0   9 -24   -2.92   39.61
   0   9 -24 -333.65  245.02
   0  -9  24  161.44   86.91
   0  -9  24   53.55   62.04
   1   9 -24    5.28  227.03
   1   9 -24   24.76   39.71
  -1  -9  24 -205.67   61.33
  -1  -9  24   15.34   81.62
  -9   2 -24   17.47  219.35
   2   9 -24   10.17   37.23
   2   9 -24  236.57  240.37
  -2  -9  24  204.50   86.66
   9  -2  24 -118.27   92.36
  -2  -9  24   40.12   56.81
   9  -2  24    7.01  151.45
  -9   3 -24    5.90  234.96
   9  -3  24    6.41  132.99
   9  -3  24    3.82   92.77
  -9   4 -24  157.57  250.82
   9  -4  24  -15.62  101.99
   9  -4  24  186.18  134.28
  -9   5 -24    4.19   61.24
  -9   5 -24 -452.95  261.81
   9  -5  24 -290.86  119.80
   9  -5  24   -4.03   99.31
  -9   6 -24   41.38   65.34
  -9   6 -24  -83.06  263.65
   9  -6  24   39.72  106.25
   9  -6  24  -46.41  112.64
  -9   7 -24    6.58  290.55
  -9   7 -24   -4.16   71.45
   9  -7  24    4.68   98.05
   9  -7  24    4.41  115.25
  -9   8 -24  495.81  298.25
  -9   8 -24   12.58   61.16
   9  -8  24    4.48   94.70
   9  -8  24    4.52  117.78
  -9   9 -24   -6.90  301.22
  -9   9 -24    4.31   64.99
   9  -9  24   43.38   95.22
   9  -9  24    9.27  123.32
  -9  10 -24    7.00  289.93
  -9  10 -24    4.49   63.74
   9 -10  24   81.36  129.65
   9 -10  24   52.41   90.55
  -8  10 -24    4.27   69.12
  -8  10 -24 -396.83  310.80
   8 -10  24 -290.32   97.14
   8 -10  24 -543.44  134.40
  -7  10 -24    6.30  268.15
   7 -10  24  -38.02  116.39
  -6  10 -24   -3.94   56.66
  -6  10 -24    6.07  257.22
   6 -10  24  -58.41   80.50
   6 -10  24    4.00  106.22
  -5  10 -24   11.47   54.28
  -5  10 -24  193.56  250.76
   5 -10  24  -68.65  100.83
   5 -10  24   -3.75   75.36
  -4  10 -24    3.67   50.91
  -4  10 -24  330.81  245.88
   4 -10  24  -25.66   97.13
   4 -10  24   43.19   74.23
  -3  10 -24    7.01   49.47
  -3  10 -24  156.18  242.47
   3 -10  24    3.46   70.27
   3 -10  24    3.53   97.13
  -2  10 -24    3.34   44.40
  -2  10 -24  -83.07  235.89
   2 -10  24   -3.32   66.87
   2 -10  24  -95.46   94.64
  -1  10 -24  339.23  240.52
  -1  10 -24    3.15   45.16
   1 -10  24  -15.70   66.75
   1 -10  24    3.30   93.04
   0  10 -24  509.97  246.18
   0  10 -24   38.89   45.07
   0 -10  24   -3.00   63.10
   0 -10  24 -231.14   91.06
   1  10 -24  -45.01   41.83
   1  10 -24  -80.51  233.09
  -1 -10  24 -137.22   87.32
  -1 -10  24   63.23   60.76
   2  10 -24    5.28  229.19
 -10   2 -24 -195.07  240.71
   2  10 -24    5.28   37.26
  -2 -10  24   -8.15   54.29
  10  -2  24 -234.46  156.90
  -2 -10  24 -163.35   83.83
 -10   3 -24   67.77  244.08
  10  -3  24  -31.69   91.60
  10  -3  24 -220.07  146.90
 -10   4 -24 -322.45  260.22
  10  -4  24  -48.83  105.02
  10  -4  24 -459.90  139.69
 -10   5 -24   17.54   66.45
 -10   5 -24  155.94  272.74
  10  -5  24   49.70  117.65
  10  -5  24   -4.18  103.80
 -10   6 -24 -307.22  286.65
 -10   6 -24   -4.32   63.51
  10  -6  24    5.14  108.90
  10  -6  24    4.38  111.00
 -10   7 -24 -220.15  285.13
 -10   7 -24    4.35   64.53
  10  -7  24   -4.60  118.18
  10  -7  24   19.45  101.28
 -10   8 -24 -127.02   63.85
 -10   8 -24 -936.72  330.58
  10  -8  24 -261.65  109.10
  10  -8  24  -33.53  135.07
 -10   9 -24  -72.94  317.69
 -10   9 -24   -4.54   66.57
  10  -9  24   34.40  129.71
  10  -9  24  -22.50   99.75
 -10  10 -24    9.37   66.29
 -10  10 -24  184.19  309.91
  10 -10  24    5.10  132.30
  10 -10  24   13.60   95.32
 -10  11 -24 -485.80  318.94
  10 -11  24 -486.39  144.76
  -9  11 -24  105.67  302.19
  -9  11 -24  -23.12   64.84
   9 -11  24 -190.14   95.07
   9 -11  24  122.93  130.90
  -8  11 -24    4.44   64.68
  -8  11 -24 -358.81  296.41
   8 -11  24   51.15   88.06
   8 -11  24 -151.81  122.23
  -7  11 -24 1248.65  409.67
  -6  11 -24    4.10   57.40
  -6  11 -24  436.95  257.25
   6 -11  24   49.23  109.07
   6 -11  24    3.95   82.02
  -5  11 -24   15.75   57.27
  -5  11 -24 -175.64  249.52
   5 -11  24    3.89  102.76
   5 -11  24  -79.97   77.14
  -4  11 -24  -30.25   53.19
  -4  11 -24  193.30  246.69
   4 -11  24   14.67   72.67
   4 -11  24    7.44   95.66
  -3  11 -24   -3.62   50.58
  -3  11 -24 -111.49  238.17
   3 -11  24 -137.69   71.79
   3 -11  24    3.57   96.59
  -2  11 -24   32.99  236.17
  -2  11 -24   -3.46   45.81
   2 -11  24 -201.19   96.76
   2 -11  24  -20.11   69.04
  -1  11 -24   16.53   45.26
  -1  11 -24  125.40  236.26
   1 -11  24    3.36   88.18
   1 -11  24  -80.59   64.93
   0  11 -24 -164.00  239.88
   0  11 -24    3.14   50.68
   0 -11  24  114.90   64.23
   0 -11  24  -26.08   88.89
   1  11 -24   27.17  242.03
   1  11 -24   -8.95   41.13
  -1 -11  24   41.57   58.31
  -1 -11  24   44.37   87.23
 -11   2 -24 -542.69  261.48
  11  -2  24 -322.97  170.70
  -2 -11  24  -15.38   82.75
 -11   3 -24 -224.01  259.91
  11  -3  24    6.90  153.70
  11  -3  24    4.10  101.92
 -11   4 -24  244.62  274.54
  11  -4  24  -30.75  135.46
  11  -4  24 -172.88  104.79
 -11   5 -24  -82.48   66.09
 -11   5 -24  232.12  279.26
  11  -5  24   43.44  108.18
  11  -5  24   39.93  126.09
 -11   6 -24   -4.53   67.01
 -11   6 -24  -97.94  290.93
  11  -6  24 -310.53  115.52
  11  -6  24 -164.19  115.57
 -11   7 -24  445.39  171.19
  11  -7  24  844.34  194.27
  11  -7  24  841.30  217.30
 -11   8 -24  580.42  320.98
 -11   8 -24   27.80   65.18
  11  -8  24    5.06  133.76
  11  -8  24   84.00  100.71
 -11   9 -24    4.75   72.43
 -11   9 -24   -7.68  331.77
  11  -9  24   97.79  102.98
  11  -9  24  120.58  137.03
 -11  10 -24 -156.72  351.80
  11 -10  24   -5.43  146.09
  -8  12 -24 -228.79  292.68
  -8  12 -24    4.68   69.34
   8 -12  24   35.09   91.30
   8 -12  24  191.36  140.83
  -7  12 -24   38.28  288.90
   7 -12  24    4.48  120.70
  -6  12 -24 -311.24  265.85
  -6  12 -24   -4.33   62.83
   6 -12  24   12.24   85.59
   6 -12  24 -244.72  110.80
  -5  12 -24    4.16   73.39
  -5  12 -24  117.76  275.11
   5 -12  24    8.05  120.19
   5 -12  24  413.32   92.73
  -4  12 -24    4.00   55.33
  -4  12 -24 -184.82  256.84
   4 -12  24   -3.84   99.63
   4 -12  24  -18.99   76.07
  -3  12 -24 -107.80   56.02
  -3  12 -24   22.63  234.30
   3 -12  24   58.18   75.13
   3 -12  24    3.68   95.70
  -2  12 -24   -3.75   53.97
  -2  12 -24   39.05  236.30
   2 -12  24   -3.54   94.44
  -1  12 -24   64.36   50.35
  -1  12 -24   -5.53  235.64
   1 -12  24 -143.55   93.52
   0  12 -24   -3.40   46.10
   0  12 -24  363.27  238.96
   0 -12  24    3.33   91.91
   1  12 -24  262.86  237.45
  -1 -12  24 -129.15   87.38
  12  -2  24  -36.66  153.27
 -12   3 -24 -240.65  268.38
  12  -3  24   62.13  148.61
  12  -3  24    4.24  101.15
 -12   4 -24  406.37  289.76
 -12   4 -24  -43.50   72.43
  12  -4  24    4.32  110.85
  12  -4  24 -107.26  134.21
 -12   5 -24  301.52   90.87
 -12   5 -24  578.50  328.36
  12  -5  24  240.07  148.30
  12  -5  24   -4.49  133.32
 -12   6 -24 -588.67  323.88
 -12   6 -24  -75.93   68.09
  12  -6  24   -9.41  121.78
  12  -6  24    5.33  112.59
 -12   7 -24  -38.31   70.33
 -12   7 -24  -30.40  311.05
  12  -7  24    4.98  131.17
  12  -7  24  182.08  114.99
 -12   8 -24  446.95  332.79
 -12   8 -24    4.86   71.72
  12  -8  24   68.82  134.82
  12  -8  24 -409.00  107.64
 -12   9 -24    9.96   73.85
 -12   9 -24  -72.99  359.77
  12  -9  24    5.57  139.86
  12  -9  24    4.81  103.31
  -7  13 -24  378.62  297.92
   7 -13  24   -4.71  125.28
  -6  13 -24    4.70   66.45
  -6  13 -24 -252.14  284.31
   6 -13  24    4.43  115.75
  -5  13 -24    6.09  262.33
  -5  13 -24  -72.30   62.75
   5 -13  24   -4.19  111.89
  -4  13 -24  141.90  257.22
   4 -13  24    4.00  103.04
   3 -13  24 -106.76  101.52
  -2  13 -24  988.61  341.80
  13  -2  24  284.58  189.35
 -13   3 -24 -566.10  279.66
  13  -3  24   91.76  112.50
  13  -3  24  126.11  153.97
 -13   4 -24  -85.94   76.12
 -13   4 -24  107.65  288.18
  13  -4  24   13.33  106.81
  13  -4  24   -6.23  135.40
 -13   5 -24  677.80  321.65
 -13   5 -24    4.99   74.10
  13  -5  24    5.81  124.81
  13  -5  24   13.93  120.94
 -13   6 -24 -370.89  333.17
 -13   6 -24   14.99   74.42
  13  -6  24  217.96  125.06
  13  -6  24   -4.85  122.00
 -13   7 -24   -7.99  343.83
 -13   7 -24   10.00   70.17
  13  -7  24  113.83  126.22
  13  -7  24 -108.70  112.41
 -13   8 -24    5.09   69.75
 -13   8 -24   74.73  363.31
  13  -8  24  -27.64  144.17
  13  -8  24   74.18  104.19
  14  -2  24  -95.91  164.44
 -14   3 -24  233.16  288.00
  14  -3  24  115.41  155.42
 -14   4 -24  111.24  309.13
 -14   4 -24  -15.85   75.95
  14  -4  24   50.53  135.89
  14  -4  24    4.53  113.72
 -14   5 -24    5.20   78.67
 -14   5 -24 -178.55  325.99
  14  -5  24   93.95  129.69
  14  -5  24   18.99  118.11
 -14   6 -24  -52.19   75.43
 -14   6 -24 -259.83  350.18
  14  -6  24   94.27  118.58
  14  -6  24    9.97  126.38
 -14   7 -24    5.23   67.77
 -14   7 -24  505.32  378.72
  14  -7  24 -106.06  132.37
 -15   3 -24  132.31   93.46
 -15   4 -24   -5.47   78.77
 -15   4 -24    7.71  321.94
  15  -4  24    4.62  114.32
 -15   5 -24 -135.88   77.32
 -15   5 -24 -233.38  333.30
  15  -5  24  -38.33  118.78
  15  -5  24   23.10  130.34
 -15   6 -24 -151.99  361.29
  15  -6  24   91.58  130.59
   1  -2  25 -380.67  120.18
  -2  -1  25   14.26  104.04
  -2   2 -25 -293.47  169.87
   2  -2  25  -89.96   79.29
  -2  -2  25 -121.78  105.31
   2  -2  25   87.60  124.80
  -2   3 -25  190.88  191.37
  -3  -2  25 -104.75  101.66
   2  -3  25 -141.40  106.58
   1  -3  25   -2.96   88.56
   1  -3  25  399.99  123.09
   1   3 -25   -3.94  194.17
  -3   2 -25   23.51  193.50
   2   3 -25 -252.16  169.08
   3  -2  25 -239.98   83.56
   3  -2  25 -546.27  128.96
  -2  -3  25 -253.71   77.94
  -2  -3  25  188.28   92.67
  -3   3 -25 -147.54  189.38
   3  -3  25  -19.04   79.55
  -3  -3  25  -30.90   87.73
   3  -3  25   79.38  116.89
  -3  -3  25  -27.34   69.59
  -3   4 -25  -88.51  202.84
   3  -4  25    5.03  106.37
   3  -4  25   45.26   85.47
  -2   4 -25   23.47  190.36
   2  -4  25  167.91   80.08
   2  -4  25  -28.83  106.32
  -1   4 -25  178.89  186.80
   1  -4  25 -131.76   83.41
   1  -4  25 -206.70   99.32
   0  -4  25 -149.17  102.64
   2   4 -25  121.70  161.39
  -4   2 -25   68.69  184.34
  -2  -4  25  -92.40   68.76
   4  -2  25    3.31   77.33
   4  -2  25  -24.15  129.28
  -4   3 -25   64.84  194.92
   4  -3  25   -5.55  119.17
   4  -3  25   -3.29   81.39
  -3  -4  25  162.45   83.75
  -4   4 -25   -5.14  202.88
   4  -4  25    6.73   87.24
   4  -4  25   68.41  116.52
  -4   5 -25  -58.36  221.80
   4  -5  25   56.97  102.96
   4  -5  25    6.97   91.15
  -3   5 -25  -45.81  213.56
   3  -5  25    4.53   98.25
   3  -5  25   20.09   86.31
  -2   5 -25   -4.87  211.20
   2  -5  25   86.83   82.88
   2  -5  25 -273.23   96.22
  -1   5 -25  -13.22   51.41
  -1   5 -25   74.38  196.53
   1  -5  25  -83.44   79.04
   1  -5  25   28.93   92.65
   0   5 -25   38.27   54.34
   0  -5  25  246.55   76.79
   0  -5  25 -117.81   87.68
  -1  -5  25  -78.17   81.90
  -5   2 -25  117.85  194.02
   5  -2  25  103.05   81.93
   5  -2  25 -336.05  137.91
  -5   3 -25 -140.62  204.77
   5  -3  25   41.14   85.99
   5  -3  25   -5.82  117.28
  -5   4 -25  139.65  217.45
   5  -4  25    3.50   86.48
   5  -4  25 -363.69  119.36
  -5   5 -25  132.42  234.68
   5  -5  25    7.26   91.66
   5  -5  25    4.96  103.74
  -5   6 -25    5.75  244.65
  -5   6 -25   75.00   56.82
   5  -6  25    3.77  100.86
   5  -6  25    4.64   97.64
  -4   6 -25   54.33   55.96
  -4   6 -25   11.11  239.81
   4  -6  25   57.77   98.80
   4  -6  25  -65.14   95.85
  -3   6 -25 -198.50  235.31
  -3   6 -25   -3.50   54.32
   3  -6  25  195.39   97.19
   3  -6  25   52.22   91.94
  -2   6 -25  217.04  218.25
  -2   6 -25    3.37   51.00
   2  -6  25   73.68   87.18
   2  -6  25   16.24   87.09
  -1   6 -25  -29.16   49.91
  -1   6 -25 -257.96  215.14
   1  -6  25  154.63   90.21
   1  -6  25 -104.91   81.00
   0   6 -25  -24.75   47.18
   0   6 -25   -4.73  199.85
   0  -6  25   -3.09   83.16
   0  -6  25   -3.56   74.82
  -1  -6  25  569.22  135.10
  -6   2 -25    5.36  203.71
   6  -2  25   -3.57   81.68
  -2  -6  25   87.98   71.41
  -6   3 -25 -451.62  218.42
   6  -3  25    3.57   89.98
  -6   4 -25   -5.61  221.46
   6  -4  25    3.65   88.73
  -6   5 -25   74.80  237.93
  -6   5 -25   11.67   60.55
   6  -5  25    3.78   90.46
   6  -5  25 -139.83  111.88
  -6   6 -25 -280.14  252.85
  -6   6 -25    3.88   58.48
   6  -6  25    4.85  106.72
   6  -6  25   -3.91   97.41
  -6   7 -25 -215.90  269.09
  -6   7 -25  -15.51   56.11
   6  -7  25   -4.04  108.36
   6  -7  25   -4.44   98.94
  -5   7 -25 -251.64  262.41
  -5   7 -25 -127.02   54.10
   5  -7  25    3.87   97.04
   5  -7  25   -4.25   96.83
  -4   7 -25   -3.60   54.65
  -4   7 -25  -40.82  244.38
   4  -7  25 -375.76   99.08
   4  -7  25   -4.07   89.52
  -3   7 -25   17.02  238.70
  -3   7 -25    3.47   51.98
   3  -7  25    3.89   86.21
   3  -7  25   82.29   92.80
  -2   7 -25   11.04  241.53
  -2   7 -25   -3.36   48.89
   2  -7  25 -211.81   81.35
   2  -7  25   62.10   92.14
  -1   7 -25 -352.61  239.63
  -1   7 -25  -35.29   48.25
   1  -7  25   -3.54   77.47
   1  -7  25  -33.26   85.12
   0   7 -25   -6.09   45.10
   0   7 -25  195.21  224.38
   0  -7  25    3.21   85.98
   0  -7  25  225.09   76.77
   1   7 -25   45.69   44.49
   1   7 -25  -19.59  215.47
  -1  -7  25    3.08   80.98
  -1  -7  25    3.10   64.82
   2   7 -25  -37.29   39.03
   2   7 -25   13.83  198.93
  -7   2 -25  -11.20  213.82
  -2  -7  25    5.92   80.30
   7  -2  25   20.43  141.01
   7  -2  25    3.71   86.11
  -2  -7  25   -8.71   64.97
  -7   3 -25  125.03  228.60
   7  -3  25 -208.27   93.53
   7  -3  25    6.39  140.05
  -7   4 -25    5.85  232.70
   7  -4  25    3.80   93.07
   7  -4  25 -187.93  123.03
  -7   5 -25    5.99  246.11
   7  -5  25   39.34   96.41
   7  -5  25 -135.01  116.42
  -7   6 -25   -6.18  256.75
   7  -6  25   -4.08  107.93
  -7   7 -25  133.55  259.65
   7  -7  25    4.23  105.64
  -7   8 -25   52.45  271.45
   7  -8  25  -21.47  111.59
  -6   8 -25 -133.84   61.42
  -6   8 -25   38.23  268.35
   6  -8  25 -170.24   91.59
   6  -8  25    4.09  108.43
  -5   8 -25   11.37   58.80
  -5   8 -25 -315.44  266.06
   5  -8  25   27.37  105.50
   5  -8  25    4.08   90.22
  -4   8 -25   54.71   58.73
  -4   8 -25  -12.05  262.87
   4  -8  25    3.90   89.92
   4  -8  25    3.76  102.48
  -3   8 -25   45.50   55.48
  -3   8 -25   47.09  259.88
   3  -8  25  163.22   99.68
   3  -8  25   14.94   82.10
  -2   8 -25  -92.16  243.50
  -2   8 -25    3.35   47.02
   2  -8  25 -105.20   92.19
   2  -8  25   -3.56   78.64
  -1   8 -25   73.21  245.01
  -1   8 -25   -3.19   48.80
   1  -8  25   52.74   73.06
   1  -8  25  -40.69   91.98
   0   8 -25   93.14  243.11
   0   8 -25   18.30   46.08
   0  -8  25 -103.13   64.58
   0  -8  25   75.38   89.14
   1   8 -25   51.49   47.39
   1   8 -25  137.55  231.64
  -1  -8  25  104.26   87.55
  -1  -8  25   -2.96   63.30
   2   8 -25 -293.34  235.04
  -8   2 -25   -5.86  219.34
   2   8 -25  -29.18   38.92
  -2  -8  25    3.03   79.55
   8  -2  25  317.06   95.46
   8  -2  25    7.11  149.67
  -2  -8  25  -30.75   62.19
  -8   3 -25  225.63  230.00
   8  -3  25    3.87   91.79
   8  -3  25   -6.69  146.26
  -8   4 -25   12.19  240.59
   8  -4  25    6.14  131.39
   8  -4  25    3.97  102.07
  -8   5 -25    4.22   60.45
  -8   5 -25  -25.02  259.05
   8  -5  25    5.63  122.95
  -8   6 -25 -347.02  261.76
  -8   6 -25    8.38   62.89
   8  -6  25    4.24  110.50
   8  -6  25 -260.20  115.64
  -8   7 -25 -561.33  286.06
  -8   7 -25    4.22   62.30
   8  -7  25  -17.62  110.47
   8  -7  25   72.33  106.65
  -8   8 -25    4.26   63.02
  -8   8 -25 -421.35  301.63
   8  -8  25    4.52  117.22
   8  -8  25  129.08  103.36
  -8   9 -25  262.71  298.15
  -8   9 -25 -153.13   71.92
   8  -9  25   68.87  124.39
   8  -9  25    4.45   95.08
  -7   9 -25   46.43  294.34
   7  -9  25 -174.21  112.67
  -6   9 -25    4.04   57.94
  -6   9 -25    6.41  272.60
   6  -9  25   70.65  110.28
   6  -9  25   -4.10   84.99
  -5   9 -25  175.60  269.91
  -5   9 -25    3.88   58.57
   5  -9  25  -62.98   84.38
   5  -9  25    3.98   99.63
  -4   9 -25   11.19   51.35
  -4   9 -25    6.12  249.45
   4  -9  25   67.96   78.36
   4  -9  25    3.82   99.01
  -3   9 -25   -3.58   53.63
  -3   9 -25    6.00  247.53
   3  -9  25    3.62   74.68
   3  -9  25   33.18   95.87
  -2   9 -25  430.29  263.40
  -2   9 -25  -20.52   49.27
   2  -9  25   -3.57   93.81
   2  -9  25 -103.84   74.95
  -1   9 -25   23.20  254.73
  -1   9 -25   59.00   52.46
   1  -9  25    3.31   77.29
   1  -9  25  269.55   99.55
   0   9 -25  461.96  265.31
   0   9 -25   43.40   57.07
   0  -9  25  185.73   75.56
   0  -9  25  311.67  100.12
   1   9 -25   66.60   46.37
   1   9 -25   78.11  249.88
  -1  -9  25  -56.55   64.66
   2   9 -25  -16.21   39.05
  -9   2 -25  104.26  240.72
   2   9 -25  546.13  244.66
  -2  -9  25 -225.32   91.51
  -2  -9  25  -45.15   58.42
   9  -2  25    7.41  160.93
  -9   3 -25 -160.66  242.97
   9  -3  25 -468.92  144.63
   9  -3  25    4.02   97.78
  -9   4 -25  178.12  261.10
   9  -4  25   70.26  105.25
   9  -4  25    6.38  143.21
  -9   5 -25   -4.40   65.39
  -9   5 -25 -202.61  273.17
   9  -5  25    4.24  104.23
   9  -5  25   11.71  129.53
  -9   6 -25  -46.88  280.05
  -9   6 -25    8.73   76.29
   9  -6  25    4.42  109.35
   9  -6  25   21.24  116.98
  -9   7 -25 -158.29  285.22
  -9   7 -25    4.40   65.36
   9  -7  25 -207.63  122.49
   9  -7  25    5.02  108.21
  -9   8 -25   14.14  298.91
  -9   8 -25    4.44   66.84
   9  -8  25   95.41  122.30
   9  -8  25   52.65  103.14
  -9   9 -25  -91.29   68.69
   9  -9  25  -14.56  132.69
   9  -9  25    4.63   97.64
  -9  10 -25   51.08  315.51
  -9  10 -25   66.03   69.94
   9 -10  25   14.99  130.93
   9 -10  25   65.11  102.75
  -8  10 -25   55.98  311.39
  -8  10 -25   40.74   65.30
   8 -10  25    4.47   97.74
   8 -10  25   61.16  127.49
  -7  10 -25 -635.49  311.93
   7 -10  25  -44.48  130.26
  -6  10 -25  173.55  280.24
  -6  10 -25    4.18   59.54
   6 -10  25    8.32   89.85
   6 -10  25   59.02  108.79
  -5  10 -25    6.22  256.27
  -5  10 -25    8.03   60.77
   5 -10  25  162.79   84.99
   5 -10  25    4.01  103.41
  -4  10 -25    3.84   56.86
  -4  10 -25  -67.25  255.25
   4 -10  25   19.24  102.58
   4 -10  25   11.44   78.94
  -3  10 -25   -3.71   54.44
  -3  10 -25    5.99  256.62
   3 -10  25   11.12   98.23
   3 -10  25  -76.83   78.26
  -2  10 -25 -134.61   51.53
  -2  10 -25   65.06  256.37
   2 -10  25   91.12   74.58
   2 -10  25  -57.38   95.06
  -1  10 -25  731.37  263.55
  -1  10 -25   36.84   49.96
   1 -10  25  110.55   71.15
   1 -10  25   10.44   98.23
   0  10 -25   53.41   46.65
   0  10 -25   52.14  258.26
   0 -10  25    3.38   94.12
   0 -10  25    6.33   67.96
   1  10 -25  -26.65   45.31
   1  10 -25  400.08  255.43
  -1 -10  25  157.44   90.39
  -1 -10  25   15.07   63.63
 -10   2 -25   51.36  236.51
  -2 -10  25    2.84   59.99
  10  -2  25   -7.52  168.33
 -10   3 -25 -148.19  256.16
  10  -3  25    7.08  152.77
  10  -3  25  -79.21  101.00
 -10   4 -25   99.80  268.13
  10  -4  25    6.61  144.04
  10  -4  25   -4.29  105.11
 -10   5 -25   27.63   68.86
 -10   5 -25  192.10  288.85
  10  -5  25  -44.13  110.22
  10  -5  25   82.46  129.34
 -10   6 -25    4.56   69.26
 -10   6 -25  203.34  302.38
  10  -6  25   82.57  123.11
  10  -6  25  -36.94  116.09
 -10   7 -25  -55.20   76.06
  10  -7  25 -525.68  126.82
 -10   8 -25 -106.75   70.13
 -10   8 -25 -649.02  330.91
  10  -8  25    4.96  106.54
  10  -8  25   -5.04  138.94
 -10   9 -25    4.77   71.11
 -10   9 -25   90.97  331.88
  10  -9  25   -4.81  103.17
  10  -9  25    5.17  132.33
 -10  10 -25 -129.11   71.76
 -10  10 -25   -7.71  336.76
  10 -10  25    4.83  102.74
  10 -10  25  -21.26  141.59
  -9  11 -25   88.77  317.30
   9 -11  25  -82.41  141.16
  -8  11 -25    7.00  300.80
  -8  11 -25   -4.66   67.61
   8 -11  25  144.36  128.61
   8 -11  25    4.52   93.52
  -7  11 -25    6.71  290.40
  -7  11 -25   80.50   66.49
   7 -11  25    4.53  119.95
   6 -11  25   29.98  126.33
  -5  11 -25    4.15   59.44
  -5  11 -25 -354.99  264.03
   5 -11  25   24.45  107.07
   5 -11  25   92.53   83.37
  -4  11 -25   11.96   57.12
  -4  11 -25  363.79  265.91
   4 -11  25    3.92  103.58
   4 -11  25    3.87   83.54
  -3  11 -25 -167.79  245.27
  -3  11 -25    3.82   53.73
   3 -11  25  -37.68  102.44
   3 -11  25  -66.89   77.69
  -2  11 -25  -83.72   50.95
  -2  11 -25  254.20  252.69
   2 -11  25 -189.18   76.64
   2 -11  25   61.83   98.85
  -1  11 -25 -117.24  254.83
  -1  11 -25   -3.46   49.89
   1 -11  25   54.09   66.64
   1 -11  25   88.11   96.75
   0  11 -25    9.86   46.03
   0  11 -25  145.43  255.10
   0 -11  25  -48.67   68.89
   0 -11  25   78.74   93.34
   1  11 -25   98.15  254.09
   1  11 -25  -68.29   44.11
  -1 -11  25 -109.74   92.20
  -1 -11  25  -65.46   62.57
  11  -2  25  -54.44  174.64
 -11   3 -25 -168.22  278.69
  11  -3  25    7.33  154.09
  11  -3  25    4.33  102.88
 -11   4 -25 -430.17  271.96
  11  -4  25    4.41  110.37
  11  -4  25   26.25  136.23
 -11   5 -25 -101.29   69.73
 -11   5 -25 -294.01  294.52
  11  -5  25    4.58  115.52
  11  -5  25 -231.80  138.28
 -11   6 -25    4.77   74.39
 -11   6 -25 1147.37  335.24
  11  -6  25    4.78  144.61
  11  -6  25 -142.20  131.40
 -11   7 -25  -98.25  316.50
 -11   7 -25    4.81   72.00
  11  -7  25   26.93  116.10
  11  -7  25    5.02  126.94
 -11   8 -25    4.85   72.32
 -11   8 -25  224.83  332.14
  11  -8  25   -5.28  142.80
  11  -8  25  -55.12  111.52
 -11   9 -25 -205.98   78.22
 -11   9 -25 -430.46  348.49
  11  -9  25    5.50  148.11
  -7  12 -25   -4.72   65.82
  -7  12 -25   26.97  303.87
   7 -12  25    4.68  128.68
  -6  12 -25  -39.00  285.14
  -6  12 -25 -113.56   66.63
   6 -12  25   -4.42  114.96
   6 -12  25  -42.94   89.21
  -5  12 -25 -104.81   65.13
  -5  12 -25 -100.42  272.96
   5 -12  25   25.15  108.42
   5 -12  25  -28.95   84.54
  -4  12 -25 -100.74   70.16
  -4  12 -25 -317.63  286.48
   4 -12  25    3.99   84.94
   4 -12  25 -348.13  110.70
  -3  12 -25  324.01  295.07
   3 -12  25  472.11  118.46
   3 -12  25  328.68  139.48
  -2  12 -25 -237.05  265.00
  -2  12 -25   -3.85   54.51
   2 -12  25 -143.04   76.60
   2 -12  25    3.73   99.94
  -1  12 -25    3.73   48.59
  -1  12 -25   47.39  258.58
   1 -12  25    3.60   99.33
   0  12 -25 -165.15  258.44
   0  12 -25   42.45   51.50
   0 -12  25 -136.30   95.27
   1  12 -25 -146.47  262.95
  -1 -12  25  -98.33   94.39
  12  -2  25  -62.29  177.53
 -12   3 -25  274.57  302.26
  12  -3  25    4.48  126.53
  12  -3  25  683.03  187.44
 -12   4 -25  -81.03   81.24
 -12   4 -25 -846.14  328.64
  12  -4  25 -316.41  163.07
 -12   5 -25 -494.16  313.28
 -12   5 -25   10.08   76.23
  12  -5  25  225.85  137.62
  12  -5  25  104.63  121.53
 -12   6 -25 -478.76  336.13
 -12   6 -25   80.10   76.63
  12  -6  25   34.66  128.30
  12  -6  25    5.85  125.34
 -12   7 -25  100.46   78.05
 -12   7 -25 -309.75  341.92
  12  -7  25   54.29  119.45
  12  -7  25 -246.41  139.07
 -12   8 -25  226.22   81.87
 -12   8 -25   40.95  357.13
  12  -8  25 -314.88  114.07
  12  -8  25    5.54  140.41
  -6  13 -25 -139.14  289.70
   6 -13  25   32.15  124.00
  -5  13 -25   33.09   70.90
  -5  13 -25  128.01  280.80
   5 -13  25    4.38  112.27
  -4  13 -25 -326.75  267.17
  -4  13 -25  127.15   67.32
   4 -13  25   50.04  107.30
  -3  13 -25  129.49  262.99
   3 -13  25   -4.00  101.63
  -2  13 -25   -6.08  260.20
   2 -13  25    3.84   98.14
  -1  13 -25   12.04  249.25
   1 -13  25   51.86  100.40
   0  13 -25  179.48  253.48
   0 -13  25   53.71   96.26
   1  13 -25  107.06  250.30
  13  -2  25   23.88  173.60
 -13   3 -25    7.35  289.77
  13  -3  25    7.47  161.57
 -13   4 -25  172.43  307.19
 -13   4 -25  148.46   79.02
  13  -4  25 -618.31  159.79
  13  -4  25   60.95  117.93
 -13   5 -25 -367.44  328.50
 -13   5 -25    5.25   77.43
  13  -5  25  132.24  125.37
  13  -5  25   68.55  140.84
 -13   6 -25  219.56  347.70
 -13   6 -25 -290.15   82.75
  13  -6  25  -29.25  128.71
  13  -6  25   25.61  132.60
 -13   7 -25  -37.09   81.47
 -13   7 -25  -58.63  373.13
  13  -7  25   -5.44  135.06
 -14   3 -25 -176.35  293.42
  14  -3  25 -232.18  163.93
 -14   4 -25    5.55   82.84
 -14   4 -25  -85.78  319.64
  14  -4  25    4.80  114.24
  14  -4  25 -141.88  153.34
 -14   5 -25  -87.67   87.43
 -14   5 -25 -130.12  352.76
  14  -5  25   -4.98  123.90
  14  -5  25   31.61  134.09
 -14   6 -25 -246.23  370.64
  14  -6  25  -57.97  135.61
 -15   3 -25    5.76   86.30
  15  -3  25 -123.23  160.74
 -15   4 -25  170.39  321.42
  15  -4  25    9.79  121.59
  -1   2 -26    4.58  175.29
   1  -2  26   43.86  123.99
   0  -2  26  297.67  130.84
  -2   2 -26  -66.73  181.93
   2  -2  26  195.77  125.00
  -2   3 -26  -43.07  186.16
  -3  -2  26   -4.41   86.51
   2  -3  26  117.06  111.35
   2  -3  26  -84.17   77.07
  -1   3 -26   18.21  176.65
   1  -3  26  288.06   85.31
   1  -3  26    5.08  107.46
  -3  -1  26    4.73  111.76
   0   3 -26    4.33  167.51
   0  -3  26   45.56   75.17
   0  -3  26 -106.77  102.09
  -1  -3  26   32.44  104.65
  -3   2 -26 -203.51  192.94
   3  -2  26    6.05  129.81
  -3   3 -26   45.09  202.34
   3  -3  26    5.58  120.43
   3  -3  26  177.82   87.08
  -3   4 -26 -160.58  217.09
   3  -4  26  175.33  117.75
   3  -4  26  -23.93   89.16
  -2   4 -26  207.49  209.69
   2  -4  26 -223.90   84.24
   2  -4  26   60.95  102.89
  -1   4 -26  -84.54  199.08
   1  -4  26 -184.11   82.90
   1  -4  26    4.86  105.22
   0   4 -26  325.57  195.38
   0  -4  26    6.13   79.22
   0  -4  26  232.15  107.98
   1   4 -26  427.45  157.74
  -1  -4  26   -2.96   61.72
  -1  -4  26 -228.21  101.43
  -4   2 -26   46.60  193.99
   4  -2  26  -25.43  135.77
  -4   3 -26  -36.68  203.98
   4  -3  26  157.95  124.96
   4  -3  26 -170.63   85.41
  -4   4 -26  -97.50  218.59
   4  -4  26 -122.40  119.47
   4  -4  26   88.91   90.11
  -4   5 -26  475.84  239.56
   4  -5  26  -25.58   95.53
   4  -5  26   -5.03  104.97
  -3   5 -26   53.70  227.17
   3  -5  26   14.44  107.36
   3  -5  26  140.48   93.36
  -2   5 -26  -97.62  215.29
   2  -5  26 -286.94   91.03
   2  -5  26   -4.60  102.56
  -1   5 -26  -98.13   54.88
  -1   5 -26 -107.82  204.93
   1  -5  26  -94.04   82.86
   1  -5  26  -92.06   94.24
   0   5 -26   13.57   52.50
   0   5 -26  -18.63  199.02
   0  -5  26  118.22   81.96
   0  -5  26  -79.35   91.70
   1   5 -26   55.37   49.02
   1   5 -26 -264.07  191.45
  -1  -5  26    8.97   75.23
  -1  -5  26  -35.61   86.54
  -5   2 -26    5.41  200.71
   2   5 -26    3.09   46.63
  -2  -5  26  -10.88   83.47
   5  -2  26 -487.55  143.83
  -5   3 -26   -5.48  212.84
   5  -3  26    3.62   87.16
   5  -3  26   49.08  127.83
  -5   4 -26  107.39  229.57
   5  -4  26   14.82   95.54
   5  -4  26  180.68  130.51
  -5   5 -26  -34.97  246.62
   5  -5  26    3.80  100.86
   5  -5  26 -120.86  112.78
  -5   6 -26   31.71   54.64
  -5   6 -26   12.09  249.34
   5  -6  26    4.93  113.49
   5  -6  26    3.94  106.27
  -4   6 -26    3.83   57.71
  -4   6 -26  140.04  238.88
   4  -6  26    3.80   94.70
   4  -6  26    4.72  105.14
  -3   6 -26   -5.63  235.88
  -3   6 -26  111.39   62.05
   3  -6  26    9.04   98.63
   3  -6  26  190.24   95.31
  -2   6 -26   14.34   53.67
  -2   6 -26   -5.42  230.92
   2  -6  26   38.80   94.23
   2  -6  26   24.64   94.19
  -1   6 -26   -3.45   52.15
  -1   6 -26  155.76  222.93
   1  -6  26    3.39   89.84
   1  -6  26  115.10   91.53
   0   6 -26 -133.57  204.61
   0   6 -26  -13.21   48.72
   0  -6  26  109.90   79.43
   0  -6  26 -126.23   89.70
   1   6 -26   56.12  197.74
   1   6 -26  -53.33   49.57
  -1  -6  26   -3.59   76.42
  -1  -6  26   40.34   81.44
   2   6 -26   48.23  194.47
   2   6 -26   17.63   44.18
  -6   2 -26  -45.19  205.10
  -2  -6  26    2.97   77.91
  -2  -6  26   70.60   74.12
  -6   3 -26   22.90  218.63
   6  -3  26  -52.72   88.68
   6  -3  26   -6.44  144.97
  -6   4 -26 -123.81  238.82
   6  -4  26  -19.31   93.08
   6  -4  26   42.75  133.03
  -6   5 -26    4.09   62.90
  -6   5 -26  -42.49  248.93
   6  -5  26   10.99  116.83
   6  -5  26    3.95  105.07
  -6   6 -26 -143.93  266.95
  -6   6 -26 -180.46   64.95
   6  -6  26    5.16  111.39
   6  -6  26 -102.52  112.67
  -6   7 -26   -4.10   60.31
  -6   7 -26  -70.96  271.02
   6  -7  26    4.24  107.47
   6  -7  26   33.10  104.96
  -5   7 -26    3.95   59.60
  -5   7 -26  -81.32  273.07
   5  -7  26    4.09  109.66
   5  -7  26   78.87   98.95
  -4   7 -26  179.46   76.14
  -4   7 -26  717.81  287.77
   4  -7  26  358.16  123.71
   4  -7  26   47.69  110.02
  -3   7 -26 -272.14  266.17
  -3   7 -26    3.69   52.05
   3  -7  26 -149.25   95.67
   3  -7  26   34.13  102.71
  -2   7 -26  -86.04  246.58
  -2   7 -26   24.99   52.03
   2  -7  26   31.71   88.01
   2  -7  26  102.37   93.85
  -1   7 -26  -41.07   52.13
  -1   7 -26   55.44  246.69
   1  -7  26  -49.03   85.89
   1  -7  26   -3.52   94.69
   0   7 -26  170.17  231.02
   0   7 -26  -55.43   47.95
   0  -7  26  -17.92   74.52
   0  -7  26  108.51   88.69
   1   7 -26  192.12  228.21
   1   7 -26   21.43   44.43
  -1  -7  26  -82.71   71.09
  -1  -7  26   29.31   86.94
   2   7 -26   48.69   37.56
  -7   2 -26 -194.84  221.36
   2   7 -26  242.82  211.02
  -2  -7  26    3.10   64.34
  -2  -7  26 -192.31   85.59
   7  -2  26    7.18  154.54
  -7   3 -26    5.95  228.18
   7  -3  26    6.75  151.34
   7  -3  26 -101.91   97.42
  -7   4 -26  141.41  253.39
   7  -4  26   52.30  109.19
  -7   5 -26   25.28  252.03
   7  -5  26    4.12  102.61
  -7   6 -26 -129.69  267.63
   7  -6  26   29.93  112.72
  -7   7 -26 -406.69  290.20
   7  -7  26 -225.82  121.10
  -7   8 -26  718.78  306.44
   7  -8  26    4.53  119.17
  -6   8 -26   26.59  273.59
  -6   8 -26  -12.53   62.65
   6  -8  26    4.32  110.42
   6  -8  26  244.90  102.21
  -5   8 -26  148.90  275.91
  -5   8 -26   12.07   59.07
   5  -8  26  165.18   96.48
   5  -8  26   16.55  113.67
  -4   8 -26  100.68   61.79
  -4   8 -26 -221.29  264.52
   4  -8  26   -3.98  104.79
   4  -8  26   41.67   90.53
  -3   8 -26   18.58  264.47
  -3   8 -26  -26.07   57.20
   3  -8  26 -182.88   87.86
   3  -8  26  -72.82  102.91
  -2   8 -26  103.41  263.38
  -2   8 -26  -21.42   49.98
   2  -8  26    3.79   86.47
   2  -8  26 -362.69  101.72
  -1   8 -26  124.61  264.57
  -1   8 -26  -13.61   56.16
   1  -8  26  311.17  103.48
   1  -8  26  173.02   85.07
   0   8 -26   74.00   58.94
   0   8 -26  -34.38  258.61
   0  -8  26  119.97   80.89
   0  -8  26  501.35  109.80
   1   8 -26   70.27   53.62
   1   8 -26  104.72  244.22
  -1  -8  26   59.76   77.00
  -1  -8  26  373.43  100.49
  -8   2 -26  389.21  240.14
  -2  -8  26    6.40   88.96
  -2  -8  26   17.79   62.99
   8  -2  26   82.57  158.02
  -8   3 -26   24.85  240.93
   8  -3  26    4.08   98.41
   8  -3  26 -213.22  150.32
  -8   4 -26  718.53  269.27
   8  -4  26    8.38  110.04
   8  -4  26   19.51  141.76
  -8   5 -26  171.38  265.93
  -8   5 -26    4.43   67.39
   8  -5  26   41.87  132.98
   8  -5  26    8.58  110.25
  -8   6 -26 -155.17  287.74
  -8   6 -26   22.10   67.07
   8  -6  26  -67.27  125.54
   8  -6  26 -272.15  117.89
  -8   7 -26   -4.46   64.67
  -8   7 -26  256.35  298.15
   8  -7  26   30.88  112.64
   8  -7  26   27.75  116.69
  -8   8 -26 -546.35  309.57
  -8   8 -26 -108.24   67.05
   8  -8  26    4.93  106.41
   8  -8  26 -205.05  130.19
  -8   9 -26 -635.89  335.93
  -8   9 -26 -245.37   73.92
   8  -9  26    4.83  140.30
   8  -9  26 -241.87  105.24
  -7   9 -26 -168.92   69.30
  -7   9 -26  -13.99  310.74
   7  -9  26    4.57  127.24
  -6   9 -26 -166.74   66.52
  -6   9 -26   27.06  290.68
   6  -9  26   17.45   94.55
   6  -9  26    4.36  116.76
  -5   9 -26 -374.94  287.90
  -5   9 -26   61.70   60.90
   5  -9  26  125.46   90.84
   5  -9  26   25.05  106.11
  -4   9 -26    3.96   60.81
  -4   9 -26  186.57  279.97
   4  -9  26   36.08   86.57
   4  -9  26   12.07  105.17
  -3   9 -26   75.89  272.84
  -3   9 -26    3.80   58.39
   3  -9  26    3.88   99.94
   3  -9  26   65.32   85.63
  -2   9 -26    7.26   53.80
  -2   9 -26 -174.31  280.33
   2  -9  26  251.85  105.61
   2  -9  26   84.50   81.90
  -1   9 -26    3.48   50.45
  -1   9 -26  263.39  266.54
   1  -9  26    3.51   75.13
   1  -9  26   72.87  101.12
   0   9 -26   52.71   47.90
   0   9 -26  162.19  268.20
   0  -9  26   52.93   96.02
   0  -9  26   10.01   74.88
   1   9 -26   21.58   43.77
   1   9 -26   64.27  251.20
  -1  -9  26    3.17   67.91
  -1  -9  26  208.03   98.41
  -9   2 -26   25.84  235.65
   9  -2  26    7.65  161.42
  -9   3 -26   -6.48  251.43
   9  -3  26  -59.34  104.68
   9  -3  26    7.20  155.92
  -9   4 -26 -133.87  262.95
   9  -4  26    6.77  145.54
   9  -4  26    4.35  111.73
  -9   5 -26  158.76  291.29
  -9   5 -26    4.62   69.59
   9  -5  26  -22.35  116.63
   9  -5  26  136.93  140.29
  -9   6 -26   18.39   70.03
  -9   6 -26  -21.14  297.39
   9  -6  26  215.39  128.24
   9  -6  26    4.65  109.85
  -9   7 -26 -375.03  310.71
  -9   7 -26    4.65   70.71
   9  -7  26 -241.65  138.17
   9  -7  26    5.36  121.40
  -9   8 -26 -197.32   75.33
   9  -8  26   -5.13  115.17
   9  -8  26 -534.56  150.32
  -9   9 -26    7.53  315.17
  -9   9 -26   -4.83   69.91
   9  -9  26   -5.12  135.58
   9  -9  26    4.94  108.13
  -9  10 -26    7.66  334.20
   9 -10  26  -41.71  138.47
   9 -10  26    4.99   89.18
  -8  10 -26   -7.30  316.15
  -8  10 -26  -52.75   69.63
   8 -10  26 -335.32  107.67
   8 -10  26    4.91  130.90
  -7  10 -26 -238.62  319.02
  -7  10 -26    4.60   64.75
   7 -10  26   -4.66  121.53
  -6  10 -26    8.85   77.15
  -6  10 -26   41.02  318.75
   6 -10  26  203.93  134.67
   6 -10  26  309.16  110.04
  -5  10 -26    4.25   58.74
  -5  10 -26    6.64  268.16
   5 -10  26    4.24  111.26
   5 -10  26 -101.69   94.72
  -4  10 -26    4.08   62.47
  -4  10 -26  -84.33  276.69
   4 -10  26   81.39  103.03
   4 -10  26   -4.07   88.72
  -3  10 -26 -121.10  275.78
  -3  10 -26    7.81   57.12
   3 -10  26  112.36   83.94
   3 -10  26    3.92  102.45
  -2  10 -26  308.28  285.25
  -2  10 -26  -45.08   53.86
   2 -10  26 -401.96  103.98
   2 -10  26   -3.71   78.76
  -1  10 -26  703.10  281.95
  -1  10 -26    3.56   51.36
   1 -10  26   25.72   97.99
   1 -10  26   -7.09   70.99
   0  10 -26   60.02   49.98
   0  10 -26   12.30  268.14
   0 -10  26    3.37   68.95
   0 -10  26    3.57   96.27
   1  10 -26  -53.14   45.92
   1  10 -26 -756.35  274.68
  -1 -10  26 -107.31   98.68
  -1 -10  26   47.56   65.30
  10  -2  26  -23.87  163.85
 -10   3 -26  345.55  262.13
  10  -3  26    7.50  159.61
  10  -3  26    4.41  105.01
 -10   4 -26 -279.09  289.80
  10  -4  26   53.91  111.56
  10  -4  26    7.02  149.99
 -10   5 -26 -106.36   72.32
 -10   5 -26  -21.63  294.43
  10  -5  26   -6.28  142.37
  10  -5  26 -148.90  118.56
 -10   6 -26  442.42  348.85
 -10   6 -26  187.22   97.13
  10  -6  26  699.98  164.19
  10  -6  26  188.14  152.52
 -10   7 -26 -316.66  327.58
 -10   7 -26   24.29   72.16
  10  -7  26  -85.69  133.96
  10  -7  26    5.57  120.89
 -10   8 -26  122.68   74.29
 -10   8 -26 -315.73  336.20
  10  -8  26   78.89  142.77
  10  -8  26    5.33  116.29
 -10   9 -26    7.88  343.07
 -10   9 -26    5.05   72.27
  10  -9  26  -65.31  142.78
  -8  11 -26  -37.04  325.34
   8 -11  26    5.04  130.90
  -7  11 -26   -7.08  314.07
  -7  11 -26   14.21   68.96
   7 -11  26 -121.52  104.45
   7 -11  26    4.76  127.56
  -6  11 -26   36.43   64.91
  -6  11 -26 -102.21  294.09
   6 -11  26    4.49  119.53
   6 -11  26  124.29   95.61
  -5  11 -26 -209.54   66.72
  -5  11 -26 -419.05  307.37
   5 -11  26    4.26   89.73
   5 -11  26    4.28  110.87
  -4  11 -26  935.66  325.31
  -4  11 -26  292.82  109.27
   4 -11  26  380.43  131.74
   4 -11  26  336.67  154.89
  -3  11 -26    4.03   61.88
  -3  11 -26   -6.38  272.44
   3 -11  26   -3.95  104.57
   3 -11  26 -286.25   87.22
  -2  11 -26    6.31  268.12
  -2  11 -26    3.84   56.35
   2 -11  26   -7.52   78.90
   2 -11  26   -3.82  102.78
  -1  11 -26  -18.22   50.58
  -1  11 -26  118.92  286.12
   1 -11  26   39.62   76.35
   1 -11  26   44.48   96.14
   0  11 -26 -335.55  267.74
   0  11 -26   13.75   49.03
   0 -11  26 -119.06   70.62
   0 -11  26  -68.38   96.19
   1  11 -26  -32.46   47.01
   1  11 -26    6.15  269.88
  -1 -11  26   55.89   95.42
  -1 -11  26   48.83   69.85
  11  -2  26   32.95  180.73
 -11   3 -26 -319.04  287.88
  11  -3  26  -59.45  112.22
  11  -3  26   -7.78  180.88
 -11   4 -26  888.32  344.62
  11  -4  26  521.95  197.05
  11  -4  26  809.82  225.74
 -11   5 -26   97.69  302.96
 -11   5 -26   -5.07   73.97
  11  -5  26 -396.64  148.95
  11  -5  26 -130.88  131.05
 -11   6 -26  -15.07   71.40
 -11   6 -26  154.59  323.99
  11  -6  26   60.89  135.66
  11  -6  26  -15.07  125.96
 -11   7 -26  118.60  334.97
 -11   7 -26   -5.08   79.80
  11  -7  26    5.77  122.94
  11  -7  26 -179.43  138.22
 -11   8 -26   15.39   78.98
 -11   8 -26 -373.04  340.52
  11  -8  26 -148.69  125.57
  11  -8  26   33.21  141.37
  -6  12 -26  268.67  303.87
  -6  12 -26   19.05   66.71
   6 -12  26    4.61  122.84
   6 -12  26    4.53   82.15
  -5  12 -26 -179.00   67.01
  -5  12 -26 -139.90  277.39
   5 -12  26   26.39  112.48
   5 -12  26  -34.87   90.05
  -4  12 -26    4.41   62.20
  -4  12 -26   13.00  271.35
   4 -12  26  -75.43   89.21
   4 -12  26   -8.42  110.24
  -3  12 -26   83.56  271.02
  -3  12 -26   16.89   62.27
   3 -12  26    4.03   81.85
   3 -12  26   24.24  109.05
  -2  12 -26 -514.17  281.49
  -2  12 -26  -20.18   61.56
   2 -12  26  -89.10   77.13
   2 -12  26   -3.90   99.89
  -1  12 -26  -19.23   55.65
   1 -12  26    7.55  100.60
   1 -12  26 -181.02   83.58
   0  12 -26 -221.66   58.22
   0 -12  26 -336.65  107.18
   1  12 -26 -366.32  280.90
   1  12 -26  -10.43   47.33
  -1 -12  26   53.23   95.93
 -12   3 -26  125.97  289.30
  12  -3  26 -124.84  163.84
 -12   4 -26 -204.21  312.70
 -12   4 -26   -5.31   78.72
  12  -4  26  150.55  158.10
  12  -4  26   67.33  114.85
 -12   5 -26    5.29   81.60
 -12   5 -26  479.55  324.14
  12  -5  26 -254.86  146.39
  12  -5  26 -486.89  130.05
 -12   6 -26   94.86   76.78
 -12   6 -26   73.24  334.62
  12  -6  26 -334.12  130.82
  12  -6  26  -31.34  136.25
 -12   7 -26   24.99  362.40
 -12   7 -26   74.29   79.71
  12  -7  26 -374.43  137.97
  -4  13 -26   47.58   69.41
  -4  13 -26  145.84  284.05
   4 -13  26  117.16  116.38
  -3  13 -26   -4.55   63.26
  -3  13 -26   39.09  276.29
   3 -13  26    4.19  109.48
  -2  13 -26  450.14  287.70
   2 -13  26  -40.30  106.33
  -1  13 -26  127.54  280.29
   1 -13  26   -3.89  106.29
   0  13 -26   25.55  280.08
   0 -13  26 -301.04  106.40
  -1 -13  26 -196.61  102.07
 -13   3 -26 -332.72  302.83
  13  -3  26  143.20  169.51
 -13   4 -26   31.48  321.29
 -13   4 -26   22.21   83.55
  13  -4  26 -300.38  173.34
  13  -4  26    4.96  118.04
 -13   5 -26  114.67  334.24
 -13   5 -26    5.52   83.75
  13  -5  26  159.85  150.09
  13  -5  26   41.07  129.44
 -13   6 -26   17.03  362.09
  13  -6  26  -10.81  139.17
  14  -3  26   77.29  169.10
 -14   4 -26  369.53  337.40
  14  -4  26 -116.95  125.33
   1  -2  27  345.35  145.75
   0  -2  27    5.48  108.17
  -1  -2  27  141.07  126.83
  -2   2 -27  120.70  181.47
  -2  -2  27   63.24  102.58
   2  -2  27  -36.28  127.06
  -2   3 -27   55.03  194.35
   2  -3  27  116.11   86.35
   2  -3  27   89.60  124.21
  -1   3 -27 -138.53  187.25
   1  -3  27  -48.10  111.88
   1  -3  27  129.19   85.93
   0   3 -27  109.59  190.18
   0  -3  27  325.33   93.86
   0  -3  27   56.16  117.85
   1   3 -27  148.62  174.43
  -1  -3  27 -195.10  106.12
  -1  -3  27 -179.54   77.02
  -3   2 -27  240.82  193.72
   3  -2  27    6.36  135.93
  -2  -3  27  -65.18  102.64
  -3   3 -27 -502.80  201.23
   3  -3  27   14.16   90.39
   3  -3  27 -146.80  125.89
  -3   4 -27 -141.41  220.64
   3  -4  27 -498.98  123.19
   3  -4  27   39.79   93.60
  -2   4 -27 -119.48  214.27
   2  -4  27   16.07  111.04
   2  -4  27   -3.48   84.97
  -1   4 -27 -177.88  199.34
   1  -4  27   35.86  113.91
   1  -4  27   -3.35   86.97
   0   4 -27 -107.88  201.01
   0  -4  27  -42.87  106.18
   0  -4  27 -128.31   81.34
   1   4 -27  155.36  187.01
  -1  -4  27   18.67   79.98
  -1  -4  27   22.75  101.04
   2   4 -27  134.29  169.11
  -4   2 -27 -131.07  200.07
  -2  -4  27    9.06   72.26
   4  -2  27   -6.68  142.92
  -2  -4  27  -21.60   91.14
  -4   3 -27  115.21  214.40
   4  -3  27   47.73   90.33
   4  -3  27    6.16  133.52
  -4   4 -27 -193.38  231.27
   4  -4  27   18.81   99.93
   4  -4  27 -516.51  133.58
  -4   5 -27    5.91  245.63
   4  -5  27  -76.90  100.32
   4  -5  27 -186.26  119.16
  -3   5 -27  384.95  238.86
   3  -5  27 -107.20   96.17
   3  -5  27   86.52  109.63
  -2   5 -27   43.33  226.51
   2  -5  27  -53.29   92.77
   2  -5  27    9.73   98.87
  -1   5 -27   25.95   57.61
  -1   5 -27   98.10  219.25
   1  -5  27   41.75   97.27
   1  -5  27   20.49   85.92
   0   5 -27 -127.78  209.98
   0   5 -27  -43.18   52.57
   0  -5  27  101.72   93.66
   0  -5  27  -59.10   86.44
   1   5 -27  157.76  197.17
   1   5 -27  -27.75   52.16
  -1  -5  27   21.01   92.18
  -1  -5  27   63.08   81.57
   2   5 -27  -49.60   54.40
   2   5 -27   60.98  184.05
  -5   2 -27   79.85  205.66
  -2  -5  27   39.63   77.98
  -2  -5  27   73.23   87.47
   5  -2  27  157.91  150.09
  -5   3 -27  550.70  232.42
   5  -3  27    6.47  140.57
   5  -3  27    3.82   92.63
  -5   4 -27   53.50  229.03
   5  -4  27   -3.92  100.19
   5  -4  27   -6.15  134.25
  -5   5 -27  332.01  265.96
   5  -5  27   33.36  124.21
   5  -5  27 -428.39  106.57
  -5   6 -27   45.93   63.31
  -5   6 -27    6.35  264.04
   5  -6  27   24.91  109.65
   5  -6  27    5.24  119.68
  -4   6 -27   36.76  250.74
  -4   6 -27   32.40   63.58
   4  -6  27    3.99  105.48
   4  -6  27   70.13  115.63
  -3   6 -27 -102.00   57.24
  -3   6 -27 -141.80  248.69
   3  -6  27  -80.63  104.92
   3  -6  27   19.15  106.87
  -2   6 -27  -79.54  246.39
  -2   6 -27    3.80   55.59
   2  -6  27 -132.74  101.54
   2  -6  27 -251.15   98.30
  -1   6 -27 -114.17  231.65
  -1   6 -27   40.39   52.77
   1  -6  27   -4.37   93.34
   1  -6  27   60.36   94.24
   0   6 -27  -41.39  212.50
   0   6 -27  -17.61   53.96
   0  -6  27    6.82   85.60
   0  -6  27   20.15   88.54
   1   6 -27    4.89  217.10
   1   6 -27  -46.90   50.91
  -1  -6  27 -294.29   84.39
  -1  -6  27   64.90   85.59
  -6   2 -27    5.96  220.84
  -2  -6  27  -87.19   81.61
  -2  -6  27  -25.08   79.77
   6  -2  27    7.21  158.54
  -6   3 -27  -71.86  240.37
   6  -3  27  -19.83   96.33
   6  -3  27    6.79  146.50
  -6   4 -27 -167.47  254.21
   6  -4  27    4.08  105.05
   6  -4  27    6.45  133.13
  -6   5 -27  153.65  267.44
  -6   5 -27  -90.27   63.86
   6  -5  27   11.63  127.59
   6  -5  27   16.67  104.78
  -6   6 -27    4.32   65.88
  -6   6 -27    6.57  268.27
   6  -6  27 -177.23  107.62
   6  -6  27 -530.63  127.50
  -6   7 -27   56.26   67.77
  -6   7 -27  237.20  274.81
   6  -7  27   13.39  114.23
   6  -7  27 -144.17  111.69
  -5   7 -27  -71.03   60.88
  -5   7 -27  223.33  279.72
   5  -7  27   14.78  106.08
   5  -7  27    4.29  113.78
  -4   7 -27   44.64  261.54
  -4   7 -27   36.36   59.67
   4  -7  27    4.72   99.69
   4  -7  27   45.43  106.24
  -3   7 -27  185.84  262.13
  -3   7 -27    3.91   57.02
   3  -7  27  115.39  103.89
   3  -7  27    4.41  100.52
  -2   7 -27 -210.02  263.16
  -2   7 -27    3.77   54.61
   2  -7  27  -75.84   94.39
   2  -7  27    7.67  100.31
  -1   7 -27   98.45   58.77
   1  -7  27  -92.24   91.92
   1  -7  27  214.29  101.40
   0   7 -27  510.11  277.06
   0  -7  27  625.42  156.65
   1   7 -27   -3.28   49.92
   1   7 -27    5.27  226.96
  -1  -7  27   10.81   80.69
  -1  -7  27 -109.01   92.99
  -7   2 -27  230.27  233.26
  -2  -7  27    3.31   73.15
   7  -3  27   -4.13  101.86
  -7   4 -27  207.12  244.78
   7  -4  27   -4.24  107.88
  -7   5 -27    6.69  276.10
   7  -5  27   -4.34  110.54
  -7   6 -27 -525.95  289.61
   7  -6  27  -22.53  108.64
  -7   7 -27  -70.07  288.87
  -7   7 -27 -157.23   65.82
   7  -7  27    4.64  116.65
  -7   8 -27 -133.19   75.06
  -7   8 -27 -392.77  313.61
   7  -8  27 -124.35  132.85
  -6   8 -27  -34.66  296.57
  -6   8 -27    4.42   64.49
   6  -8  27    4.84  106.00
   6  -8  27   -4.57  121.38
  -5   8 -27    4.26   61.96
  -5   8 -27   27.11  274.79
   5  -8  27   -4.63  100.85
   5  -8  27   43.87  112.66
  -4   8 -27  205.06  283.74
  -4   8 -27    4.12   64.19
   4  -8  27    4.22  112.58
   4  -8  27   35.46   96.65
  -3   8 -27   51.43   64.86
  -3   8 -27   58.36  270.68
   3  -8  27   89.44  109.15
   3  -8  27  -80.52   92.51
  -2   8 -27 -208.95  275.10
  -2   8 -27   15.19   57.54
   2  -8  27    4.04   84.18
   2  -8  27    3.93  103.81
  -1   8 -27   61.70   56.62
  -1   8 -27 -511.67  274.19
   1  -8  27  269.41  107.41
   1  -8  27    3.84   81.27
   0   8 -27  -51.55   51.69
   0   8 -27    5.96  252.81
   0  -8  27 -190.36  101.46
   0  -8  27    3.54   78.47
   1   8 -27  724.36  259.60
   1   8 -27   94.64   55.52
  -1  -8  27   66.93   76.30
  -1  -8  27  112.83   98.51
  -8   2 -27 -227.89  221.32
   8  -2  27   63.31  169.37
  -8   3 -27    6.53  256.01
   8  -3  27   21.81  151.34
   8  -3  27   -8.61  103.52
  -8   4 -27    6.74  261.69
   8  -4  27 -240.95  146.68
   8  -4  27 -359.04  111.97
  -8   5 -27   51.13   70.02
  -8   5 -27 -257.59  280.76
   8  -5  27    6.34  131.46
   8  -5  27  149.13  111.61
  -8   6 -27 -177.72  293.39
  -8   6 -27   23.24   71.26
   8  -6  27    4.67  123.59
   8  -6  27    5.97  132.05
  -8   7 -27 -341.63  321.72
  -8   7 -27  -74.71   73.15
   8  -7  27 -260.97  138.25
   8  -7  27 -175.54  127.52
  -8   8 -27   42.90   72.98
  -8   8 -27 -539.99  342.60
   8  -8  27 -284.18  116.45
  -8   9 -27  294.50  339.90
   8  -9  27    5.05  108.69
   8  -9  27    5.10  134.56
  -7   9 -27  -18.81   75.24
  -7   9 -27  -29.21  308.91
   7  -9  27  232.51  103.19
   7  -9  27    4.83  133.48
  -6   9 -27 -140.25   71.67
   6  -9  27  120.67  108.96
   6  -9  27  -32.21  125.75
  -5   9 -27  113.30   67.55
  -5   9 -27  354.77  301.65
   5  -9  27    4.45   96.25
   5  -9  27    4.40  116.32
  -4   9 -27   54.55   65.51
  -4   9 -27  156.61  289.30
   4  -9  27   21.14  109.58
   4  -9  27   63.89   94.65
  -3   9 -27  367.63  289.21
  -3   9 -27    4.03   56.53
   3  -9  27    4.08   84.30
   3  -9  27    4.08  105.12
  -2   9 -27   52.58  294.20
  -2   9 -27 -227.88   57.21
   2  -9  27  138.44  111.18
   2  -9  27  -31.19   82.94
  -1   9 -27   -3.68   53.83
  -1   9 -27  335.69  284.80
   1  -9  27  -63.25   80.75
   1  -9  27   -3.83  102.12
   0   9 -27  -28.03   49.91
   0   9 -27  233.54  275.67
   0  -9  27  -10.61   75.18
   0  -9  27  -51.88   97.32
   1   9 -27   67.33  269.52
   1   9 -27  -22.98   48.75
  -1  -9  27   67.94   96.70
  -1  -9  27 -107.21   72.14
  -9   3 -27    6.83  270.04
   9  -3  27 -152.18  163.39
   9  -3  27   94.10  110.99
  -9   4 -27   -7.02  270.61
   9  -4  27  -95.83  111.04
   9  -4  27   14.35  157.02
  -9   5 -27   79.76  290.76
  -9   5 -27   48.49   72.63
   9  -5  27    6.62  146.70
   9  -5  27   18.87  114.79
  -9   6 -27 -511.95  336.78
  -9   6 -27 -135.52   74.01
   9  -6  27   12.08  141.48
   9  -6  27 -180.04  142.24
  -9   7 -27   -4.90   73.59
   9  -7  27   60.73  133.50
   9  -7  27   -5.72  121.67
  -9   8 -27  -49.69   74.06
  -9   8 -27    7.71  314.43
   9  -8  27 -157.36  139.11
   9  -8  27   -5.48  117.25
  -9   9 -27  125.66  339.84
   9  -9  27   59.35  147.30
   9  -9  27    5.27  114.74
  -8  10 -27 -276.95  355.45
   8 -10  27 -509.57  141.14
  -7  10 -27    7.40  326.28
  -7  10 -27 -150.99   70.00
   7 -10  27  -19.58  109.53
   7 -10  27    4.88  130.37
  -6  10 -27    4.68   69.73
  -6  10 -27   14.33  299.33
   6 -10  27  -65.72  103.41
   6 -10  27 -255.44  123.36
  -5  10 -27 -198.26   72.47
  -5  10 -27 -761.47  330.36
   5 -10  27    4.50  100.17
  -4  10 -27 -493.60  298.85
  -4  10 -27  -56.29   70.39
   4 -10  27    4.28  118.24
   4 -10  27   68.98   99.19
  -3  10 -27    4.15   60.28
  -3  10 -27 -408.01  300.53
   3 -10  27    4.13  107.83
   3 -10  27   37.17   91.36
  -2  10 -27    3.95   54.52
  -2  10 -27  429.92  289.08
   2 -10  27  -92.15  105.97
   2 -10  27   78.51   82.04
  -1  10 -27 -511.11  294.13
  -1  10 -27   -3.78   54.73
   1 -10  27  248.65  106.23
   1 -10  27    3.75   81.35
   0  10 -27  -49.69   53.21
   0  10 -27 -104.71  289.68
   0 -10  27  195.98  103.89
   0 -10  27   28.53   73.79
   1  10 -27   -6.59   46.11
   1  10 -27 -147.47  284.30
  -1 -10  27    6.70   72.86
  -1 -10  27   29.18   97.83
 -10   3 -27 -150.05  285.66
  10  -3  27    7.94  168.29
  10  -3  27    4.66  109.96
 -10   4 -27 -454.48  315.55
  10  -4  27   37.25  163.18
  10  -4  27 -175.39  129.40
 -10   5 -27 -263.74   80.68
  10  -5  27 -226.86  152.16
 -10   6 -27  126.33   79.43
 -10   6 -27   77.58  326.73
  10  -6  27    5.08  128.98
  10  -6  27 -182.07  135.96
 -10   7 -27  513.54  340.37
 -10   7 -27    5.12   79.95
  10  -7  27  -63.63  133.83
  10  -7  27 -101.09  130.05
 -10   8 -27    8.06  326.84
  10  -8  27   22.02  147.44
  -7  11 -27  -37.53  329.58
   7 -11  27  234.28  140.20
  -6  11 -27    4.83   67.88
  -6  11 -27 -492.96  319.96
   6 -11  27   -4.73  121.83
   6 -11  27    4.76   98.07
  -5  11 -27    7.05  293.71
  -5  11 -27  -46.29   66.01
   5 -11  27  -40.67  119.84
   5 -11  27 -150.63   96.81
  -4  11 -27 -503.37  303.60
  -4  11 -27    4.44   66.83
   4 -11  27    4.33   92.61
   4 -11  27  -95.26  115.23
  -3  11 -27    6.79  288.78
  -3  11 -27  -38.11   63.68
   3 -11  27  -29.02   87.89
   3 -11  27 -125.00  113.79
  -2  11 -27   44.67   61.91
  -2  11 -27 -423.07  321.12
   2 -11  27    3.96   88.36
   2 -11  27 -310.12  126.84
  -1  11 -27  323.31   71.66
   1 -11  27 -214.79  122.64
   0 -11  27  757.97  195.11
 -11   3 -27 -104.56  300.44
  11  -3  27   82.50  176.42
 -11   4 -27  571.40  308.99
  11  -4  27  -37.08  152.85
  11  -4  27 -108.02  122.68
 -11   5 -27   95.65   78.95
 -11   5 -27 -363.51  320.35
  11  -5  27  -69.34  149.81
  11  -5  27   35.77  128.10
 -11   6 -27    8.15  337.92
 -11   6 -27   63.37   78.45
  11  -6  27   31.77  135.40
  11  -6  27    6.49  139.35
 -11   7 -27   58.16  370.40
 -11   7 -27   -5.36   72.31
  11  -7  27    6.17  117.59
  11  -7  27  116.51  139.18
  -5  12 -27 -113.82  332.70
  -5  12 -27    4.82   67.89
   5 -12  27    4.60  116.63
  -4  12 -27   46.42   74.37
  -4  12 -27  159.87  305.36
   4 -12  27    4.40  112.37
   4 -12  27   79.54   95.38
  -3  12 -27  -62.22   63.61
  -3  12 -27   95.73  296.06
   3 -12  27   -4.23  109.27
   3 -12  27  224.60   90.54
  -2  12 -27   -4.24   56.95
  -2  12 -27  -33.82  302.96
   2 -12  27   73.57  107.93
   2 -12  27  -16.27   83.17
  -1  12 -27  181.23  303.31
  -1  12 -27    4.03   56.74
   1 -12  27    3.90   80.21
   1 -12  27 -269.11  108.39
   0  12 -27 -360.24  295.70
   0  12 -27    3.87   51.73
   0 -12  27 -104.04  103.68
 -12   3 -27  109.35  299.83
  12  -3  27   33.13  177.64
 -12   4 -27    7.93  313.74
 -12   4 -27   11.10   81.58
  12  -4  27   -5.08  120.76
  12  -4  27  252.02  171.90
 -12   5 -27    8.23  326.25
 -12   5 -27 -105.43   78.98
  12  -5  27  -21.01  135.27
  12  -5  27 -136.06  159.70
 -12   6 -27 -478.02  359.68
  12  -6  27  -71.59  140.12
  -3  13 -27 -361.39  299.83
  -3  13 -27    4.78   67.44
   3 -13  27   13.09  122.83
  -2  13 -27 -391.39  301.23
  -2  13 -27   -4.55   59.40
   2 -13  27    4.20  109.27
  -1  13 -27   40.84  308.39
   1 -13  27  361.20  128.66
   0  13 -27 -405.18  294.20
   0 -13  27    3.93  104.83
  13  -3  27 -337.48  190.15
 -13   4 -27   -8.29  330.73
  13  -4  27 -413.97  152.90
  13  -4  27   36.70  130.55
   1  -2  28   66.39  129.10
   0  -2  28  465.54  163.30
  -1  -2  28 -272.85  119.48
  -2  -2  28   40.78  109.09
   2  -2  28  114.17  132.11
  -2   3 -28  126.56  206.54
   2  -3  28 -364.95   96.42
   2  -3  28   23.52  129.21
  -1   3 -28 -428.37  202.90
   1  -3  28   24.51   83.41
   1  -3  28  -44.91  127.25
   0   3 -28   33.70  187.41
   0  -3  28   91.17  119.87
   1   3 -28  281.16  184.52
  -1  -3  28  -97.33  113.56
  -2  -3  28   39.13  109.12
   3  -2  28  -40.04  144.63
  -3   3 -28  -82.77  218.82
   3  -3  28   44.88   89.01
   3  -3  28  -24.68  134.89
  -3   4 -28 -360.24  245.79
   3  -4  28    5.90  121.75
   3  -4  28 -287.55   97.14
  -2   4 -28   92.64  229.83
   2  -4  28   28.20  121.00
   2  -4  28   -3.64   93.77
  -1   4 -28    5.18  210.10
   1  -4  28 -129.46  113.43
   1  -4  28   73.74   92.55
   0   4 -28 -481.91  205.49
   0  -4  28    3.39   86.14
   0  -4  28 -200.68  112.36
   1   4 -28 -217.75  193.33
  -1  -4  28   78.66   82.69
  -1  -4  28  129.37  112.15
   4  -2  28  -68.64  139.56
  -2  -4  28 -118.27  105.53
  -2  -4  28  -83.01   82.17
  -4   3 -28 -253.97  240.46
   4  -3  28    6.48  139.14
   4  -3  28  -27.17   95.73
  -4   4 -28  239.24  242.62
   4  -4  28 -154.68  129.52
   4  -4  28 -176.99   99.21
  -4   5 -28  343.34  254.76
   4  -5  28    4.05   97.50
   4  -5  28  -56.20  120.84
  -3   5 -28 -227.34  257.52
   3  -5  28   -5.37  116.95
   3  -5  28 -182.94  109.29
  -2   5 -28  337.51  258.94
   2  -5  28  123.18  142.62
   2  -5  28  587.52  130.71
  -1   5 -28 -109.55   65.16
  -1   5 -28 -522.22  234.88
   1  -5  28    4.90  105.25
   1  -5  28  -46.81   94.91
   0   5 -28   10.30  213.30
   0   5 -28  -53.31   56.71
   0  -5  28    3.47   90.49
   0  -5  28    4.67  107.27
   1   5 -28    7.36   54.52
  -1  -5  28  -60.13   93.01
  -1  -5  28   62.20  104.13
  -2  -5  28   85.68  102.85
  -5   3 -28 -162.90  244.56
   5  -3  28 -266.22  101.37
   5  -3  28  -68.04  145.72
  -5   4 -28   31.25  252.90
   5  -4  28   24.57  102.70
   5  -4  28 -356.78  141.91
  -5   5 -28    6.50  256.09
   5  -5  28    5.88  128.32
   5  -5  28    4.22  105.57
  -5   6 -28   39.61   66.52
  -5   6 -28  -66.96  281.41
   5  -6  28  -13.05  108.80
   5  -6  28    5.54  124.86
  -4   6 -28    8.53   62.42
  -4   6 -28 -226.02  263.91
   4  -6  28   -5.30  117.71
   4  -6  28    8.41  102.25
  -3   6 -28   20.69   62.15
  -3   6 -28    6.22  259.12
   3  -6  28    5.07  116.66
   3  -6  28   64.73  102.58
  -2   6 -28   17.92  258.49
  -2   6 -28    4.02   62.20
   2  -6  28 -179.17  107.86
   2  -6  28   46.68   96.24
  -1   6 -28   54.44   60.90
  -1   6 -28   11.43  243.79
   1  -6  28  -22.42  103.42
   1  -6  28  125.03  100.59
   0   6 -28  -59.72  237.24
   0   6 -28  -52.46   58.24
   0  -6  28  106.98   92.14
   0  -6  28   42.75   95.89
   1   6 -28   60.80   54.29
   1   6 -28  117.90  215.46
  -1  -6  28   28.33   85.77
  -1  -6  28    3.41   88.96
  -6   3 -28  -75.69  243.95
   6  -3  28   78.68  156.86
   6  -3  28  -54.52  101.83
  -6   4 -28  -71.70  262.51
   6  -4  28   25.58  104.50
   6  -4  28   46.33  149.90
  -6   5 -28   -4.51   67.28
  -6   5 -28   27.04  278.51
   6  -5  28   39.54  107.18
   6  -5  28    6.15  130.15
  -6   6 -28 -154.51   68.14
  -6   6 -28  215.18  296.79
   6  -6  28    4.52  116.57
   6  -6  28   -5.79  127.57
  -6   7 -28  150.45   68.39
  -6   7 -28  177.98  302.96
   6  -7  28 -361.19  118.80
   6  -7  28   -4.67  118.25
  -5   7 -28    6.91  285.53
  -5   7 -28   83.71   66.99
   5  -7  28    5.23  109.17
   5  -7  28  -98.68  118.12
  -4   7 -28    4.27   61.07
  -4   7 -28 -140.70  281.44
   4  -7  28  -40.07  109.17
   4  -7  28  -56.37  110.14
  -3   7 -28   41.34   62.16
  -3   7 -28 -338.17  284.36
   3  -7  28    4.18  109.79
   3  -7  28   47.87  108.63
  -2   7 -28 -308.29  268.22
  -2   7 -28    4.00   54.77
   2  -7  28 -350.03  106.93
   2  -7  28   49.11   98.92
  -1   7 -28  211.81  255.94
  -1   7 -28    3.88   54.78
   1  -7  28 -116.24  106.84
   1  -7  28    4.26   89.93
   0   7 -28    7.42   56.42
   0   7 -28  271.88  246.05
   0  -7  28  200.17  103.40
   0  -7  28    4.05   86.82
   1   7 -28   76.69  229.11
   1   7 -28   63.21   55.30
  -1  -7  28  233.70   88.93
  -1  -7  28   71.03   96.85
  -7   3 -28  -26.37  260.01
   7  -3  28    4.37  106.06
  -7   4 -28    6.79  269.53
   7  -4  28    4.44  112.66
  -7   5 -28    7.03  278.11
  -7   5 -28   -4.68   69.39
   7  -5  28   -4.58  115.65
  -7   6 -28  -94.17   68.73
  -7   6 -28 -454.08  303.65
   7  -6  28    4.71  126.23
  -7   7 -28    4.73   75.55
   7  -7  28    5.72  131.02
  -7   8 -28 -547.28  339.19
  -7   8 -28 -139.24   77.78
   7  -8  28    5.01  131.12
   7  -8  28 -166.52  115.37
  -6   8 -28  138.22  334.30
  -6   8 -28    9.25   76.35
   6  -8  28  115.09  133.70
   6  -8  28  174.98  119.48
  -5   8 -28  170.07  304.39
  -5   8 -28   -4.46   61.20
   5  -8  28   14.78  106.48
   5  -8  28   27.65  118.66
  -4   8 -28   89.90  290.64
  -4   8 -28   21.57   66.51
   4  -8  28   93.57  119.38
   4  -8  28    9.42  101.86
  -3   8 -28 -310.79  286.57
  -3   8 -28   12.61   61.48
   3  -8  28  -47.30  115.11
   3  -8  28   72.04   93.73
  -2   8 -28  -28.28   60.52
  -2   8 -28 -151.69  284.95
   2  -8  28    4.29   96.14
   2  -8  28  -99.66  110.06
  -1   8 -28 -166.11   56.50
  -1   8 -28  262.82  284.45
   1  -8  28   56.12  107.83
   1  -8  28    4.08   88.71
   0   8 -28  -14.68   55.10
   0   8 -28    6.18  268.65
   0  -8  28    3.87   79.92
   0  -8  28   38.62  101.94
   1   8 -28   17.69  256.95
   1   8 -28   59.24   53.43
  -1  -8  28   11.08   96.30
  -1  -8  28  -42.64   77.64
  -8   3 -28   20.67  274.92
   8  -3  28   -7.67  164.80
   8  -3  28   36.37  111.36
  -8   4 -28   14.16  269.30
   8  -4  28    7.27  149.15
   8  -4  28   83.26  117.74
  -8   5 -28    4.87   72.06
  -8   5 -28 -233.96  310.22
   8  -5  28 -315.80  146.93
   8  -5  28    4.78  120.22
  -8   6 -28  269.84  340.68
  -8   6 -28   14.66   77.95
   8  -6  28   93.25  141.63
   8  -6  28  373.57  158.43
  -8   7 -28  -83.94  328.72
   8  -7  28   -5.09  139.59
   8  -7  28   93.26  131.62
  -8   8 -28 -194.31  354.23
   8  -8  28    5.24  137.53
  -8   9 -28  212.70  350.96
   8  -9  28 -537.29  150.99
  -7   9 -28  106.98  342.09
  -7   9 -28   -4.97   72.36
   7  -9  28   10.31  111.85
   7  -9  28  102.16  136.52
  -6   9 -28 -162.65   69.89
  -6   9 -28 -252.79  316.45
   6  -9  28   34.61  110.70
   6  -9  28   38.96  127.86
  -5   9 -28    4.61   70.18
  -5   9 -28   65.42  328.23
   5  -9  28 -118.19  107.11
  -4   9 -28   -4.44   72.05
  -4   9 -28    7.14  311.17
   4  -9  28 -126.62  103.21
   4  -9  28   -4.48  124.78
  -3   9 -28   42.78   63.96
  -3   9 -28    7.01  295.15
   3  -9  28   25.95  114.52
   3  -9  28  112.51   95.17
  -2   9 -28   34.47  292.41
  -2   9 -28   -4.10   60.66
   2  -9  28    4.19  107.94
   2  -9  28 -103.42   89.02
  -1   9 -28    3.91   56.26
  -1   9 -28 -229.75  288.78
   1  -9  28  -81.05  112.52
   1  -9  28   98.65   86.18
   0   9 -28   46.05  285.55
   0   9 -28   -3.73   53.98
   0  -9  28  -52.52   81.84
   0  -9  28  -23.49  104.35
   1   9 -28  184.11  277.54
   1   9 -28   41.97   52.10
  -1  -9  28   98.19  103.69
  -1  -9  28    3.55   76.04
  -9   3 -28  108.05  277.33
   9  -3  28  -40.19  179.71
   9  -3  28  184.46  122.82
  -9   4 -28 -812.44  304.52
   9  -4  28 -667.25  175.93
  -9   5 -28 -928.61  352.62
  -9   5 -28    5.08   75.06
   9  -5  28 -428.29  160.36
  -9   6 -28    5.08   76.15
  -9   6 -28   23.45  313.29
   9  -6  28   12.83  145.17
   9  -6  28 -122.99  133.14
  -9   7 -28   -7.95  343.48
  -9   7 -28   10.31   73.97
   9  -7  28  152.06  135.89
   9  -7  28  -15.98  136.52
  -9   8 -28    5.25   76.95
  -9   8 -28 -865.17  334.47
   9  -8  28 -312.98  152.12
   9  -8  28    5.85  107.26
  -7  10 -28  163.01  345.74
   7 -10  28 -308.53  140.10
  -6  10 -28  -24.77   77.47
  -6  10 -28  423.95  327.92
   6 -10  28 -144.59  105.46
   6 -10  28 -131.88  133.40
  -5  10 -28    4.77   72.44
  -5  10 -28   81.26  318.25
   5 -10  28 -133.75  103.32
   5 -10  28  154.31  122.32
  -4  10 -28    4.59   66.01
  -4  10 -28   -7.25  317.87
   4 -10  28 -126.05  119.36
   4 -10  28  150.87   97.16
  -3  10 -28 -149.58   72.06
  -3  10 -28 -749.92  324.68
   3 -10  28 -118.16  101.58
   3 -10  28  -60.83  127.10
  -2  10 -28  193.18   70.08
   2 -10  28    4.16   97.78
   2 -10  28   -4.21  125.39
  -1  10 -28  -48.73  352.05
   1 -10  28  559.31  137.05
   0 -10  28  520.41  126.04
   0 -10  28  335.92  144.01
  -1 -10  28  917.77  226.08
  -1 -10  28 1229.46  242.30
 -10   3 -28 -655.35  325.32
  10  -3  28 -209.92  187.04
 -10   4 -28 -690.32  307.30
  10  -4  28 -289.69  127.82
  10  -4  28   -7.90  170.91
 -10   5 -28   -5.32   76.81
 -10   5 -28  254.45  316.92
  10  -5  28   21.25  157.75
  10  -5  28  -77.77  132.75
 -10   6 -28  -21.24   94.03
 -10   6 -28  278.37  343.64
  10  -6  28    6.68  147.95
  10  -6  28    5.35  135.70
 -10   7 -28   16.64  353.75
  10  -7  28 -138.65  143.43
  -5  11 -28  -44.22   69.61
  -5  11 -28   29.74  315.59
   5 -11  28  -94.93  120.27
  -4  11 -28    4.71   67.63
  -4  11 -28 -352.77  312.63
   4 -11  28    4.64   99.75
   4 -11  28   -4.56  116.30
  -3  11 -28    4.50   65.10
  -3  11 -28 -282.62  318.86
   3 -11  28    4.40  116.82
   3 -11  28  105.38   92.14
  -2  11 -28  107.59  305.16
  -2  11 -28  -42.99   56.81
   2 -11  28 -117.28   93.84
   2 -11  28   85.19  115.62
  -1  11 -28 -177.64  309.58
  -1  11 -28    4.08   61.46
   1 -11  28 -128.01  111.69
   1 -11  28  -35.99   84.58
   0  11 -28 -274.16  316.99
   0  11 -28    3.83   55.35
   0 -11  28  120.13  108.28
   0 -11  28  -38.10   79.32
  -1 -11  28 -189.58   73.15
 -11   3 -28  141.78  290.38
  11  -3  28 -365.20  186.01
 -11   4 -28  143.91  322.97
  11  -4  28   -7.86  172.16
  11  -4  28 -150.51  125.78
 -11   5 -28  265.15  355.20
 -11   5 -28  144.73   91.99
  11  -5  28  184.21  167.86
  11  -5  28  187.33  136.73
 -11   6 -28   51.30  371.04
  11  -6  28   50.26  145.35
  -4  12 -28   -7.38  315.08
   4 -12  28 -430.20  126.88
  -3  12 -28 -232.50  320.61
  -3  12 -28   74.96   67.00
   3 -12  28    4.45  117.52
   3 -12  28  -58.07   91.51
  -2  12 -28    4.47   65.71
   2 -12  28  163.32  115.86
   2 -12  28   17.11   87.88
  -1  12 -28  143.59  316.84
  -1  12 -28   21.19   58.50
   1 -12  28 -224.68  111.99
   1 -12  28   24.56   80.07
   0  12 -28  -40.01   58.84
   0  12 -28  142.50  320.18
   0 -12  28    3.88   77.58
   0 -12  28 -306.43  112.55
  12  -3  28  166.52  197.72
 -12   4 -28 -200.62  350.01
  12  -4  28  -26.88  133.52
  -2  13 -28 -409.06  325.76
   2 -13  28   79.07  116.60
  -1  13 -28    4.53   64.01
  -1  13 -28   14.48  314.79
   1 -13  28    4.24  110.15
   0  13 -28    7.17  311.02
   0 -13  28 -160.69  110.43
   1  -2  29   -6.18  126.79
   0  -2  29  105.78  129.65
  -1  -2  29 -167.87  124.10
  -2  -2  29   58.56  123.38
  -2   3 -29  227.90  221.85
   2  -3  29    6.17  141.57
  -1   3 -29  456.68  226.66
   1  -3  29  158.90  146.34
   0   3 -29    5.07  194.29
   0  -3  29  292.23  130.81
  -1  -3  29  257.74  138.07
  -2  -3  29   84.78  116.95
  -3   3 -29 -104.78  230.40
   3  -3  29   -3.95   95.28
   3  -3  29 -110.14  148.53
  -3   4 -29   90.13  229.14
   3  -4  29   49.66  132.62
   3  -4  29   27.95   96.68
  -2   4 -29  142.96  222.08
   2  -4  29   80.67   96.47
   2  -4  29   71.15  130.49
  -1   4 -29 -422.87  226.88
   1  -4  29 -147.38  125.04
   1  -4  29  -22.20   96.73
   0   4 -29  -71.80  212.24
   0  -4  29 -178.36   88.00
   0  -4  29    5.27  113.25
   1   4 -29 -335.16  209.63
  -1  -4  29 -232.09   93.52
  -1  -4  29 -110.74  112.43
  -4   3 -29 -146.23  233.45
   4  -3  29 -136.12  144.88
   4  -3  29   16.39   99.03
  -4   4 -29 -213.79  247.78
   4  -4  29   45.67  101.35
   4  -4  29   -6.51  140.09
  -4   5 -29   13.11  267.10
   4  -5  29   60.05  111.06
   4  -5  29    5.91  124.34
  -3   5 -29  345.37  257.91
   3  -5  29    4.12  108.11
   3  -5  29   11.30  124.77
  -2   5 -29 -443.93  256.28
   2  -5  29    5.41  119.16
   2  -5  29 -253.53  109.27
  -1   5 -29   -4.12   58.87
  -1   5 -29 -182.32  241.34
   1  -5  29   30.95  108.28
   1  -5  29  152.29   99.14
   0   5 -29  -28.14   63.47
   0   5 -29  312.98  229.61
   0  -5  29   34.47  107.08
   0  -5  29  -98.76   93.29
   1   5 -29  -25.41  207.47
   1   5 -29  -35.08   59.62
  -1  -5  29   31.40   87.67
  -1  -5  29 -112.46  106.90
  -5   3 -29  248.51  248.19
   5  -3  29    7.16  155.72
   5  -3  29    4.26  106.68
  -5   4 -29  -26.29  257.95
   5  -4  29   60.48  107.44
   5  -4  29    6.83  147.04
  -5   5 -29 -163.93  278.11
   5  -5  29    4.46  110.92
   5  -5  29   30.99  133.78
  -5   6 -29    9.25   67.28
  -5   6 -29    7.06  285.98
   5  -6  29    5.86  130.57
   5  -6  29    9.14  110.27
  -4   6 -29   88.56  287.34
  -4   6 -29    4.49   66.53
   4  -6  29   78.37  129.53
   4  -6  29  193.36  116.32
  -3   6 -29   21.82   67.59
  -3   6 -29  104.90  271.73
   3  -6  29   50.71  111.73
   3  -6  29    5.36  122.96
  -2   6 -29   37.74  263.64
  -2   6 -29   42.37   68.93
   2  -6  29 -239.72  109.85
   2  -6  29   -5.12  112.00
  -1   6 -29    4.12   64.28
  -1   6 -29    6.01  252.79
   1  -6  29    3.90   98.63
   1  -6  29   -9.78  103.99
   0   6 -29  131.05  242.30
   0   6 -29  -23.82   57.97
   0  -6  29  164.75   99.68
   0  -6  29 -352.23   98.78
   1   6 -29  -80.77  224.45
   1   6 -29    7.61   57.61
  -1  -6  29  -32.31   91.47
  -1  -6  29  -47.18   91.27
  -6   3 -29 -226.32  244.79
   6  -3  29    8.86  106.69
   6  -3  29    7.53  162.26
  -6   4 -29   89.13  266.22
   6  -4  29   -6.97  154.97
   6  -4  29   -4.49  105.16
  -6   5 -29   -4.73   71.32
  -6   5 -29   -7.11  284.56
   6  -5  29   -9.30  117.11
   6  -5  29 -369.96  141.91
  -6   6 -29  -58.59  295.65
  -6   6 -29    4.77   69.47
   6  -6  29 -110.30  142.46
   6  -6  29  -85.68  122.87
   6  -7  29  216.36  152.08
  -5   7 -29    7.26  302.61
  -5   7 -29   -4.64   68.59
   5  -7  29  -42.53  126.91
   5  -7  29 -288.63  124.81
  -4   7 -29   22.48   67.83
  -4   7 -29 -112.66  296.05
   4  -7  29   26.49  112.14
   4  -7  29  -22.73  116.41
  -3   7 -29   61.10   65.91
  -3   7 -29    6.82  280.93
   3  -7  29    4.38  111.54
   3  -7  29    5.07  108.61
  -2   7 -29   26.36  281.19
  -2   7 -29   -4.23   61.56
   2  -7  29    4.22  111.85
   2  -7  29   52.03  107.78
  -1   7 -29 -143.04   63.15
  -1   7 -29   -6.33  257.98
   1  -7  29 -243.66   97.45
   1  -7  29 -186.66  111.53
   0   7 -29  -12.08  253.97
   0   7 -29  -59.16   58.60
   0  -7  29  194.74  105.83
   0  -7  29   12.88   93.63
   1   7 -29   37.48   55.14
   1   7 -29  -57.06  246.67
  -1  -7  29  130.55   96.55
  -1  -7  29  -52.84   89.66
  -7   3 -29  236.49  273.05
   7  -3  29    9.22  115.45
  -7   4 -29    7.12  273.40
   7  -4  29    4.68  113.33
  -7   5 -29 -369.27  314.96
  -7   5 -29   -4.90   72.77
   7  -5  29 -726.64  157.60
   7  -5  29    4.84  118.82
   7  -6  29  917.49  237.37
  -7   7 -29 -472.89  342.81
  -7   7 -29  -99.50   72.34
   7  -7  29   30.31  131.21
   7  -7  29   51.26  131.22
  -7   8 -29    5.06   74.78
  -7   8 -29 -252.21  343.48
   7  -8  29   68.31  136.75
   7  -8  29    5.71  125.71
  -6   8 -29    7.65  317.84
  -6   8 -29   -4.88   70.35
   6  -8  29   38.21  119.02
   6  -8  29 -131.05  130.60
  -5   8 -29 -998.25  345.79
   5  -8  29 -358.94  141.87
   5  -8  29  -46.99  124.33
  -4   8 -29   -9.13   77.87
   4  -8  29  169.89  112.78
   4  -8  29 -392.54  131.93
  -3   8 -29    4.45   67.57
  -3   8 -29  333.10  301.22
   3  -8  29  175.84  123.06
   3  -8  29   76.42  107.83
  -2   8 -29 -690.46  300.61
  -2   8 -29    4.29   65.34
   2  -8  29 -127.59   99.59
   2  -8  29  -82.68  113.14
  -1   8 -29    6.69  286.27
  -1   8 -29    4.11   59.37
   1  -8  29 -194.88   93.52
   1  -8  29  167.85  113.84
   0   8 -29   35.19   60.39
   0   8 -29  167.34  282.43
   0  -8  29  156.08   91.56
   0  -8  29   60.56  107.88
   1   8 -29  275.72  267.83
   1   8 -29   22.08   52.86
  -1  -8  29   57.98  109.14
  -1  -8  29   -3.78   80.81
  -8   3 -29    7.27  278.41
   8  -3  29   48.55  168.20
  -8   4 -29 -807.89  316.99
   8  -4  29    7.67  168.54
   8  -4  29    4.87  131.07
   8  -5  29 -589.99  159.31
   8  -5  29    7.11  160.68
  -8   6 -29  261.47  343.00
   8  -6  29    5.17  136.71
  -8   7 -29  595.27  369.91
   8  -7  29    5.35  141.22
  -8   8 -29   -8.16  356.34
   8  -8  29   54.77  148.58
  -7   9 -29  151.62  348.25
   7  -9  29  -85.71  141.60
  -6   9 -29    5.05   73.33
  -6   9 -29   85.44  343.16
   6  -9  29    5.26  114.75
   6  -9  29   -5.14  137.57
  -5   9 -29   60.75  325.71
  -5   9 -29    4.87   72.06
   5  -9  29  -55.24  106.67
   5  -9  29   14.80  130.57
  -4   9 -29    9.40   74.41
  -4   9 -29 -156.91  307.20
   4  -9  29 -100.96  102.77
   4  -9  29   -4.75  125.18
  -3   9 -29 -814.51  330.31
  -3   9 -29   13.60   69.07
   3  -9  29    4.59   99.74
   3  -9  29 -357.80  128.89
  -1   9 -29 -401.16  386.66
   1  -9  29  806.68  167.00
   0  -9  29  766.69  202.22
   0  -9  29 1092.99  222.95
  -1  -9  29 1033.90  236.00
   9  -3  29  -93.33  183.72
  -9   4 -29   -7.73  298.94
   9  -4  29   48.10  165.47
   9  -4  29    5.07  127.69
  -9   5 -29    5.32   79.36
  -9   5 -29  280.42  334.94
   9  -5  29   -5.21  127.98
   9  -5  29   51.97  160.83
  -9   6 -29    5.34   82.92
  -9   6 -29 -247.31  345.03
   9  -6  29  204.21  154.34
   9  -6  29 -134.92  145.66
  -9   7 -29    8.38  360.80
   9  -7  29  -89.04  144.63
  -6  10 -29 -221.76  352.65
  -5  10 -29   55.45   81.54
  -5  10 -29  658.90  345.44
   5 -10  29    5.07  107.38
   5 -10  29   -4.95  130.47
  -4  10 -29  114.42  333.35
  -4  10 -29  155.38   76.03
   4 -10  29 -252.24  109.69
   4 -10  29   90.35  122.55
  -3  10 -29   30.08  330.08
  -3  10 -29 -107.31   69.68
   3 -10  29  -74.18   99.08
   3 -10  29  -32.08  122.44
  -2  10 -29  -98.19   63.83
  -2  10 -29 -328.01  331.46
   2 -10  29   57.67  118.75
   2 -10  29    4.43   95.37
  -1  10 -29  102.79  323.91
  -1  10 -29    4.23   59.73
   1 -10  29   51.56  116.42
   1 -10  29  -41.95   90.21
   0  10 -29   -7.20  313.19
   0  10 -29 -156.82   59.95
   0 -10  29   23.93   82.64
   0 -10  29 -149.68  111.44
 -10   3 -29  135.03  297.58
  10  -3  29   88.77  193.89
 -10   4 -29 -145.15  323.41
  10  -4  29    8.36  182.74
  10  -4  29    5.28  125.80
 -10   5 -29  141.81  356.42
 -10   5 -29   44.52   81.64
  10  -5  29   -7.51  167.62
  10  -5  29   -5.43  133.10
 -10   6 -29  137.42  364.04
  10  -6  29  -50.86  141.63
  -4  11 -29 -594.26  333.64
   4 -11  29    9.57  123.00
  -3  11 -29  -30.49  330.18
  -3  11 -29   -4.77   65.78
   3 -11  29   46.92   98.64
   3 -11  29    4.62  116.35
  -2  11 -29  -86.14   69.37
  -2  11 -29  203.79  332.26
   2 -11  29 -110.87   96.31
   2 -11  29    4.48  114.77
  -1  11 -29   -7.47  330.71
  -1  11 -29    4.32   60.39
   1 -11  29  112.78  111.42
   1 -11  29 -156.09   89.86
   0  11 -29 -162.34   60.15
   0  11 -29  420.24  329.22
   0 -11  29  -71.43  110.86
   0 -11  29   20.07   81.67
  11  -3  29    8.98  195.86
 -11   4 -29  -92.75  343.04
  11  -4  29   16.46  134.35
  -2  12 -29    7.67  332.45
  -2  12 -29 -146.19   70.79
   2 -12  29 -428.06  100.16
   2 -12  29 -294.96  124.03
  -1  12 -29    4.47   58.98
  -1  12 -29 -395.75  328.38
   1 -12  29 -101.04  119.93
   1 -12  29  146.34   89.73
   0  12 -29  233.61  325.98
   0  12 -29 -147.33   64.84
   0 -12  29  -38.28  114.47
   0 -12  29   20.53   83.42
   0  13 -29  160.83  337.15
   0 -13  29 -185.01  114.21
  -2   3 -30   70.31  221.93
   2  -3  30   -6.47  142.55
   1  -3  30   18.50  135.14
   0  -3  30  -58.85  132.42
  -1  -3  30  -84.25  121.11
  -3   3 -30   42.97  239.67
   3  -3  30  -20.39  151.54
  -3   4 -30  -62.74  251.49
   3  -4  30    6.52  140.05
   3  -4  30    4.20  106.45
  -2   4 -30    5.98  243.87
   2  -4  30   12.44  133.71
   2  -4  30  109.18  103.75
  -1   4 -30 -170.28  226.18
   1  -4  30    5.78  127.28
   1  -4  30   66.34  104.13
   0   4 -30  253.12  216.85
   0  -4  30 -154.71  126.29
   0  -4  30   30.16   97.75
   1   4 -30  127.68  205.68
  -1  -4  30  109.62   95.37
  -1  -4  30 -126.51  114.15
  -4   3 -30 -469.10  260.38
   4  -3  30  143.00  159.43
  -4   4 -30  -78.96  250.67
   4  -4  30  -78.69  106.63
   4  -4  30    6.84  149.74
  -4   5 -30   20.70  274.97
   4  -5  30  -45.18  114.51
   4  -5  30 -124.53  137.33
  -3   5 -30   59.39  263.98
   3  -5  30  142.71  131.85
   3  -5  30  -86.81  104.54
  -2   5 -30  -62.03   65.09
  -2   5 -30    6.30  258.32
   2  -5  30    5.68  121.65
   2  -5  30  141.68  107.48
  -1   5 -30  179.25  253.25
  -1   5 -30   -4.33   68.91
   1  -5  30  162.80  105.11
   1  -5  30   16.27  118.70
   0   5 -30 -265.19  233.03
   0   5 -30   38.12   64.25
   0  -5  30   -5.17  115.07
   0  -5  30   95.50   95.97
   1   5 -30   21.23  217.67
   1   5 -30   -4.11   62.23
  -1  -5  30  -69.84   95.75
  -1  -5  30  177.13  109.85
  -5   3 -30 -188.15  265.86
   5  -3  30  218.29  166.34
  -5   4 -30   20.60  272.79
   5  -4  30   -4.55  114.74
   5  -4  30 -461.05  157.27
  -5   5 -30  136.53  298.75
  -5   5 -30    9.58   69.69
   5  -5  30    6.52  143.07
   5  -5  30    4.70  113.53
  -5   6 -30 -433.31  334.68
  -5   6 -30    4.85   71.52
   5  -6  30   86.56  154.21
   5  -6  30  -86.79  123.56
  -4   6 -30   56.54   68.34
  -4   6 -30   -7.20  300.55
   4  -6  30   64.85  113.67
   4  -6  30 -283.36  137.46
  -3   6 -30  290.90  288.33
  -3   6 -30    4.58   68.55
   3  -6  30  -11.29  129.76
   3  -6  30    4.45  109.06
  -2   6 -30    4.46   65.59
  -2   6 -30   39.81  269.71
   2  -6  30  -97.16  117.96
   2  -6  30  102.69  108.07
  -1   6 -30    4.34   63.24
  -1   6 -30  233.91  266.56
   1  -6  30   20.62  115.27
   1  -6  30    8.20  108.23
   0   6 -30  257.29  247.03
   0   6 -30  -37.80   61.61
   0  -6  30  173.26  104.88
   0  -6  30    9.53  101.47
   1   6 -30  163.08  241.77
   1   6 -30  -12.11   61.91
  -1  -6  30 -109.60   99.12
  -1  -6  30 -275.99  100.58
  -6   3 -30  126.47  272.93
   6  -3  30    7.92  175.38
  -6   4 -30    7.17  281.85
   6  -4  30  -33.12  115.50
   6  -4  30    7.35  159.22
  -6   5 -30  -94.07   74.97
  -6   5 -30 -904.79  333.06
   6  -5  30  293.79  161.88
   6  -5  30   53.42  131.85
  -6   6 -30   15.01   74.41
  -6   6 -30 -371.81  338.09
   6  -6  30    5.01  129.94
   6  -6  30 -187.72  154.98
  -6   7 -30   -5.04   76.01
  -6   7 -30  -23.72  343.35
   6  -7  30    5.15  132.90
   6  -7  30   12.29  132.40
  -5   7 -30  -84.24  321.62
  -5   7 -30    4.88   72.32
   5  -7  30  -41.07  128.70
   5  -7  30   -4.97  126.76
  -4   7 -30  364.51  116.70
   4  -7  30  181.91  162.20
  -3   7 -30 -266.83   81.36
  -2   7 -30  134.04   66.80
  -2   7 -30 -249.31  288.60
   2  -7  30   -5.00  105.45
   2  -7  30 -128.65  113.50
  -1   7 -30 -166.13  286.14
  -1   7 -30   30.27   60.68
   1  -7  30  127.82  110.63
   1  -7  30    4.77  103.07
   0   7 -30  335.25  279.20
   0   7 -30   25.10   62.30
   0  -7  30  134.11  107.95
   0  -7  30  108.80   99.83
  -1  -7  30    3.88  102.72
  -1  -7  30  -47.26   89.04
   7  -3  30 -527.15  188.82
   7  -4  30  138.97  224.98
   7  -4  30 1031.26  208.15
  -7   5 -30   15.56  323.46
  -7   5 -30 -184.88   79.13
   7  -5  30    7.17  154.62
   7  -5  30 -136.58  132.74
  -7   6 -30   16.06  336.52
  -7   6 -30   -5.18   79.70
   7  -6  30  135.71  146.58
   7  -6  30   -5.23  134.10
  -7   7 -30   16.36  359.83
  -7   7 -30  -88.83   77.92
   7  -7  30 -112.45  143.57
   7  -7  30   77.18  145.12
  -7   8 -30 -430.89  359.39
   7  -8  30  -11.01  143.72
  -6   8 -30  160.87  358.73
  -6   8 -30 -195.78   79.96
   6  -8  30 -336.05  126.71
   6  -8  30    5.28  138.42
  -5   8 -30   29.88   77.47
  -5   8 -30    7.84  325.25
   5  -8  30  105.19  116.15
   5  -8  30   50.69  134.16
  -4   8 -30    4.82   70.09
  -4   8 -30   84.05  316.35
   4  -8  30   14.65  126.76
   4  -8  30   37.01  112.84
  -3   8 -30   -9.32   72.65
  -3   8 -30 -134.09  315.33
   3  -8  30  106.09  114.99
   3  -8  30    4.73  125.50
  -2   8 -30   18.16   70.42
   2  -8  30  -62.62  108.16
   1  -8  30 1689.61  377.46
   0   8 -30 2691.70  655.69
  -8   3 -30 -544.64  305.04
   8  -3  30 -324.36  185.05
  -8   4 -30  195.03  310.63
   8  -4  30   -8.09  173.17
   8  -4  30  -20.59  129.93
  -8   5 -30 -621.88  330.15
   8  -5  30    5.28  140.18
  -8   6 -30  -75.02  364.48
   8  -6  30    5.46  145.09
  -8   7 -30 -279.96  369.30
   8  -7  30    5.59  147.58
  -5   9 -30 -781.04  338.73
  -5   9 -30    5.15   74.76
   5  -9  30    5.17  134.26
   5  -9  30 -127.88  117.27
  -4   9 -30 -265.77  342.75
  -4   9 -30   14.92   77.56
   4  -9  30   -4.99  130.23
   4  -9  30    5.10  113.32
  -3   9 -30 -176.43  336.50
  -3   9 -30    4.80   68.88
   3  -9  30    4.86  105.27
   3  -9  30   -4.82  126.04
  -2   9 -30  -97.66  328.41
  -2   9 -30    4.62   68.04
   2  -9  30   64.97  103.54
   2  -9  30    4.65  124.90
  -1   9 -30 -109.95  315.48
  -1   9 -30   83.98   64.13
   1  -9  30 -310.27  125.66
   1  -9  30  -97.36   94.25
   0   9 -30 -368.75  320.08
   0   9 -30  -88.04   60.72
   0  -9  30   46.30   92.60
   0  -9  30  233.94  116.06
   9  -3  30    8.96  195.42
  -9   4 -30   81.45  325.30
   9  -4  30   -5.36  132.04
   9  -4  30 -414.50  183.12
  -9   5 -30  319.74  345.37
   9  -5  30    7.86  146.00
   9  -5  30  -16.50  139.37
  -4  10 -30    8.00  342.50
  -4  10 -30    5.14   75.35
   4 -10  30  -80.62  132.71
   4 -10  30 -133.64  102.42
  -3  10 -30  354.99  343.76
  -3  10 -30   -4.94   71.32
   3 -10  30   29.45  109.11
   3 -10  30    4.86  128.61
  -2  10 -30   61.58   70.11
  -2  10 -30  -54.51  342.67
   2 -10  30    4.70  120.42
   2 -10  30    4.69  103.96
  -1  10 -30    4.50   61.25
  -1  10 -30 -428.54  334.05
   1 -10  30   48.83   95.25
   1 -10  30   -4.55  118.86
   0  10 -30  -76.97   64.37
   0  10 -30  126.86  331.11
   0 -10  30 -109.60   91.12
   0 -10  30    8.80  115.68
 -10   4 -30  -34.06  325.60
  10  -4  30   -5.58  133.69
  -3  11 -30  -72.64  349.75
   3 -11  30   -4.86  129.95
  -2  11 -30 -478.79  354.77
  -2  11 -30    4.81   71.40
   2 -11  30    4.70  123.55
   2 -11  30   79.70   99.81
  -1  11 -30   41.21   61.61
  -1  11 -30 -638.60  344.30
   1 -11  30   27.32  120.26
   1 -11  30  -66.84   95.05
   0  11 -30    4.30   60.03
   0  11 -30   54.28  342.79
   0 -11  30 -114.26   93.01
   0 -11  30 -132.05  116.82
  -1  12 -30  496.32  360.35
   1 -12  30    9.22  124.44
   0  12 -30  347.95  351.99
   0  12 -30   -4.44   60.92
   0 -12  30  -30.18   85.58
   0 -12  30    4.46  116.67
   2  -3  31    6.78  151.42
   1  -3  31    6.45  143.51
   0  -3  31   30.76  141.94
  -1  -3  31  148.41  130.18
   3  -3  31    7.13  160.65
  -3   4 -31  350.00  264.85
   3  -4  31    6.65  140.43
   3  -4  31 -124.23  108.87
  -2   4 -31   -6.29  246.09
   2  -4  31    4.27  105.09
   2  -4  31  -50.74  140.80
  -1   4 -31    5.98  232.67
   1  -4  31  127.12  131.65
   1  -4  31   -8.23  108.18
   0   4 -31  101.95  225.37
   0  -4  31    5.78  131.31
   1   4 -31  235.99  215.24
  -1  -4  31  -49.59  124.89
   4  -3  31    7.50  160.45
  -4   4 -31   27.67  275.81
   4  -4  31  143.06  113.08
   4  -4  31 -216.52  153.64
  -4   5 -31 -426.85  307.60
  -4   5 -31   48.74   76.06
   4  -5  31   23.62  126.83
   4  -5  31  254.94  150.52
  -3   5 -31    4.75   69.87
  -3   5 -31   13.84  278.72
   3  -5  31    4.54  117.16
   3  -5  31 -249.50  139.72
  -2   5 -31    6.59  263.85
  -2   5 -31   13.94   68.88
   2  -5  31 -235.29  115.75
   2  -5  31   77.35  128.34
  -1   5 -31 -400.05  251.89
  -1   5 -31  -54.60   70.71
   1  -5  31 -121.27  106.19
   1  -5  31  233.04  121.01
   0   5 -31    4.45   67.35
   0   5 -31   82.60  238.79
   0  -5  31 -211.57  120.81
   0  -5  31  -84.31   99.84
  -1  -5  31   41.32  120.48
  -1  -5  31   61.65   94.04
  -5   3 -31   42.57  244.21
   5  -3  31 -221.35  179.74
  -5   4 -31 -839.27  312.20
   5  -4  31    9.61  121.93
   5  -4  31  719.62  183.95
  -5   5 -31 -155.51   85.82
   5  -5  31 -164.72  154.76
  -5   6 -31   25.44   75.20
  -5   6 -31  306.15  337.81
   5  -6  31   30.53  128.89
   5  -6  31 -632.24  162.85
  -4   6 -31  -60.57  325.54
  -4   6 -31   -4.94   71.26
   4  -6  31    4.89  128.22
   4  -6  31    6.22  145.98
  -3   6 -31  120.27   87.91
   3  -6  31  478.93  149.18
   3  -6  31 -142.40  147.17
  -2   6 -31 -290.82   80.62
   2  -6  31  226.76  135.82
   2  -6  31 -469.31  134.71
  -1   6 -31  -86.78   75.41
  -1   6 -31 -628.28  294.54
   1  -6  31 -554.32  133.20
   1  -6  31 -140.70  131.25
   0   6 -31 -206.05  272.82
   0   6 -31   17.73   67.64
   0  -6  31 -310.63  115.19
   0  -6  31 -427.47  114.19
   6  -3  31   56.74  194.00
  -6   4 -31 -355.29  317.70
   6  -4  31  -46.36  171.07
   6  -4  31    5.01  126.71
  -6   5 -31  267.19  323.81
  -6   5 -31 -155.53   78.06
   6  -5  31    7.20  152.47
   6  -5  31 -261.40  133.91
  -6   6 -31  244.18  341.32
  -6   6 -31   31.48   80.86
   6  -6  31  -42.43  132.91
   6  -6  31   47.82  155.72
  -6   7 -31 -434.03  366.68
  -6   7 -31 -111.17   81.58
   6  -7  31   21.64  143.60
  -5   7 -31   25.63   77.77
  -5   7 -31   88.88  337.86
   5  -7  31    6.19  127.70
   5  -7  31  -31.20  126.44
  -4   7 -31    4.98   73.08
  -4   7 -31  -86.10  327.09
   4  -7  31  142.04  132.19
   4  -7  31    5.00  122.17
  -3   7 -31  279.92  318.65
  -3   7 -31  116.21   74.82
   3  -7  31   -4.81  123.50
   3  -7  31    5.65  120.79
  -2   7 -31    4.71   70.64
  -2   7 -31 -225.86  325.97
   2  -7  31   52.66  118.54
   2  -7  31 -180.41  119.65
  -1   7 -31 -296.87   74.87
   1  -7  31 -368.64  126.03
   1  -7  31 -100.47  117.00
   0   7 -31 -168.35   77.91
   0  -7  31 -167.28  110.23
  -7   4 -31 -418.37  323.69
   7  -4  31  105.70  180.20
   7  -4  31    5.22  128.33
  -7   5 -31   16.13   78.91
  -7   5 -31    8.17  340.20
   7  -5  31  211.41  161.87
   7  -5  31    5.34  128.51
  -7   6 -31   -8.43  360.49
   7  -6  31    5.53  143.63
   7  -6  31 -616.34  146.71
  -5   8 -31  -47.18   79.22
  -5   8 -31    8.24  340.39
   5  -8  31    5.34  134.43
  -4   8 -31   66.08   76.44
  -4   8 -31    8.03  329.86
   4  -8  31  -46.29  134.26
   4  -8  31  -78.34  125.03
  -3   8 -31 -164.23  321.77
  -3   8 -31    4.92   71.13
   3  -8  31   -4.96  127.90
   3  -8  31   26.72  114.40
  -2   8 -31    9.62   68.75
  -2   8 -31 -129.00  323.63
   2  -8  31  -56.05  113.02
   2  -8  31 -143.34  123.68
  -1   8 -31    9.24   69.30
  -1   8 -31  175.62  319.25
   1  -8  31 -174.36  109.29
   1  -8  31  -45.95  121.57
   0   8 -31 -608.70  308.37
   0   8 -31  -30.92   64.61
   0  -8  31 -269.07  116.51
   0  -8  31   45.95   99.30
  -8   4 -31  263.72  336.85
   8  -4  31   -5.44  139.19
  -8   5 -31   -8.50  327.44
   8  -5  31   -5.56  137.32
  -4   9 -31 -152.27   78.35
  -4   9 -31  -24.68  359.55
   4  -9  31    5.39   94.08
   4  -9  31    5.25  137.86
  -3   9 -31 -274.20  357.85
  -3   9 -31    5.08   77.70
   3  -9  31   87.55  110.99
   3  -9  31    5.06  129.73
  -2   9 -31 -176.14   72.95
  -2   9 -31   86.72  344.72
   2  -9  31  108.03  109.39
   2  -9  31    4.89  128.08
  -1   9 -31    4.69   66.93
  -1   9 -31  122.71  340.70
   1  -9  31   47.17  127.58
   1  -9  31   65.48  103.23
   0   9 -31  347.70  323.50
   0   9 -31    8.92   68.34
   0  -9  31  195.00  125.46
   0  -9  31   71.14   96.43
  -3  10 -31  107.11  364.52
  -3  10 -31   -5.23   60.14
   3 -10  31 -174.73  136.70
  -2  10 -31 -194.51  354.25
  -2  10 -31   -5.02   70.69
   2 -10  31   -4.96  106.10
   2 -10  31  -49.70  134.58
  -1  10 -31   14.35   68.75
  -1  10 -31  262.24  349.54
   1 -10  31  288.16  133.98
   1 -10  31    4.72  107.13
   0  10 -31    7.73  346.94
   0  10 -31 -291.07   68.98
   0 -10  31 -148.24  126.52
   0 -10  31   75.70   94.71
  -1  11 -31   43.44   72.96
  -1  11 -31  444.91  373.65
   1 -11  31    4.81  125.27
   1 -11  31   -4.71   74.48
   0 -11  31 -227.68   99.37
   2  -3  32 -347.57  165.20
   1  -3  32  -20.24  145.41
   0  -3  32   56.22  135.34
  -1  -3  32    5.96  132.75
  -3   4 -32 2156.79  530.57
   2  -4  32  238.88  163.34
  -1   4 -32 -729.09  270.60
   1  -4  32 -424.03  152.42
   0   4 -32 -422.41  233.39
   0  -4  32 -271.42  141.20
  -1  -4  32 -229.92  145.11
  -4   4 -32 -591.19  300.69
   4  -4  32 -131.46  120.18
   4  -4  32  -29.29  156.67
  -4   5 -32   -5.10   73.92
  -4   5 -32  113.62  289.28
   4  -5  32    9.95  121.80
   4  -5  32 -157.66  150.68
  -3   5 -32   49.77   76.64
  -3   5 -32  -94.08  294.86
   3  -5  32    6.54  143.65
   3  -5  32    4.77  116.17
  -2   5 -32 -116.81   78.09
   2  -5  32   74.75  134.76
  -1   5 -32  290.97  104.79
   0   5 -32   98.09   77.93
   0  -5  32  -46.42  120.57
   0  -5  32 -164.50  137.38
  -5   4 -32 -152.75  289.02
   5  -4  32    7.71  169.68
   5  -4  32  126.80  122.29
  -5   5 -32    5.26   80.27
  -5   5 -32    7.91  322.81
   5  -5  32    7.21  157.29
   5  -5  32    5.18  123.85
  -5   6 -32  117.12   77.96
  -5   6 -32 -297.60  337.92
   5  -6  32    6.85  160.77
   5  -6  32    5.36  133.61
  -4   6 -32 -186.28   80.89
  -4   6 -32  -47.73  345.95
   4  -6  32   -5.15  129.73
   4  -6  32  -71.86  150.37
  -3   6 -32  -55.50   75.90
  -3   6 -32 -145.01  318.83
   3  -6  32  130.97  143.35
   3  -6  32   64.30  134.86
  -2   6 -32 -335.42  304.18
  -2   6 -32  -98.51   74.18
   2  -6  32   18.97  123.65
   2  -6  32  -77.41  133.44
  -1   6 -32    4.80   68.00
  -1   6 -32  -83.09  283.36
   1  -6  32 -140.89  116.79
   1  -6  32 -136.34  121.52
   0   6 -32 -319.82  267.79
   0   6 -32  -93.33   76.64
   0  -6  32  -69.05  112.21
   0  -6  32 -131.48  116.30
  -6   4 -32   -7.98  301.65
   6  -4  32  292.35  179.17
   6  -4  32    5.28  129.64
  -6   5 -32 -444.32  333.29
  -6   5 -32   -5.43   83.98
   6  -5  32   -7.57  169.01
   6  -5  32   -5.40  132.61
  -6   6 -32  162.96  355.04
   6  -6  32    5.59  139.00
  -5   7 -32 -213.86  351.69
  -5   7 -32    5.38   82.67
   5  -7  32    5.48  137.26
  -4   7 -32 -173.89  343.00
  -4   7 -32   -5.23   77.73
   4  -7  32   15.80  136.98
   4  -7  32  162.08  141.51
  -3   7 -32   10.18   74.73
  -3   7 -32  119.88  338.85
   3  -7  32   -5.06  127.62
   3  -7  32 -202.15  135.92
  -2   7 -32 -330.45  320.63
  -2   7 -32 -183.37   70.60
   2  -7  32    4.86  123.02
   2  -7  32   55.39  124.60
  -1   7 -32    4.82   68.93
  -1   7 -32 -542.69  301.19
   1  -7  32 -270.77  123.82
   1  -7  32   -5.29  116.32
   0   7 -32   56.18   73.46
   0   7 -32 -222.32  286.04
   0  -7  32   44.61  113.28
   0  -7  32   -5.03  109.01
  -7   4 -32   33.34  334.47
   7  -4  32   -8.55  141.06
  -4   8 -32  -76.31  362.38
   4  -8  32  -32.29  133.50
  -3   8 -32 -264.51   78.09
  -3   8 -32    8.24  357.25
   3  -8  32  -93.79  130.72
   3  -8  32  253.51  129.61
  -2   8 -32  367.04  355.21
  -2   8 -32    5.07   72.64
   2  -8  32 -263.18  118.89
   2  -8  32    9.98  124.91
  -1   8 -32 -151.68   70.47
  -1   8 -32  -15.36  345.26
   1  -8  32   30.69  114.75
   1  -8  32  158.28  128.28
   0   8 -32  -28.10   74.12
   0   8 -32   80.56  313.17
   0  -8  32 -286.36  105.57
   0  -8  32   -4.59  121.11
  -3   9 -32   -8.47  359.38
   3  -9  32    5.29  133.72
  -2   9 -32    8.26  344.40
  -2   9 -32   46.56   77.67
   2  -9  32    5.10  136.77
   2  -9  32   15.55  112.14
  -1   9 -32  216.44  344.68
  -1   9 -32 -104.39   79.58
   1  -9  32  153.09  103.53
   1  -9  32 -142.60  129.79
   0  -9  32   99.18  129.82
   0  -9  32   14.07  102.91
  -1  10 -32  431.97  371.88
  -1  10 -32  -71.07   73.43
   1 -10  32    4.98  110.02
   1 -10  32 -376.55  131.68
   0 -10  32  -79.90  101.62
  -3   4 -33   -7.34  273.78
   3  -4  33  218.84  168.69
  -2   4 -33  327.59  270.60
   2  -4  33   55.53  161.50
   1  -4  33   79.35  141.50
   0  -4  33   18.87  142.21
  -4   4 -33 -154.05  310.71
   4  -4  33  145.93  166.71
  -4   5 -33 -389.52  328.70
  -4   5 -33 -122.88   79.11
   4  -5  33  165.24  153.35
   4  -5  33   36.67  134.76
  -3   5 -33  166.81  299.66
  -3   5 -33 -223.93   74.83
   3  -5  33    5.03  117.01
   3  -5  33  -88.95  146.56
  -2   5 -33   45.86   73.70
  -2   5 -33  -72.07  293.34
   2  -5  33   -6.51  141.72
   2  -5  33   24.11  121.02
  -1   5 -33 -163.85  276.47
  -1   5 -33  -14.98   71.88
   1  -5  33   -4.62  114.05
   1  -5  33  118.02  141.49
   0   5 -33    6.44  253.83
   0   5 -33  -53.81   72.48
   0  -5  33  -76.96  125.54
   0  -5  33   75.44  112.22
  -5   4 -33 -241.99  321.26
   5  -4  33   72.86  173.15
  -5   5 -33  141.19  332.09
  -5   5 -33 -236.58   83.20
   5  -5  33   16.38  130.84
   5  -5  33    7.56  129.95
  -4   6 -33 -151.80   88.57
  -4   6 -33    8.35  345.31
   4  -6  33    5.38  134.63
  -3   6 -33    5.28   78.52
  -3   6 -33  104.01  331.10
   3  -6  33   32.69  140.81
   3  -6  33   15.49  137.58
  -2   6 -33 -175.38  323.24
  -2   6 -33   82.50   74.92
   2  -6  33    6.24  137.56
   2  -6  33   79.17  127.11
  -1   6 -33   -7.23  299.71
  -1   6 -33   25.15   75.87
   1  -6  33   41.61  133.60
   1  -6  33    9.48  121.99
   0   6 -33   19.59   70.71
   0   6 -33    6.80  278.73
   0  -6  33 -346.53  125.65
   0  -6  33 -181.10  114.50
  -6   4 -33 -219.37  328.67
  -4   7 -33 -313.43  367.76
   4  -7  33   -5.55  144.29
  -3   7 -33    5.34   80.93
  -3   7 -33 -276.93  347.98
   3  -7  33    6.24  135.41
   3  -7  33   74.67  133.74
  -2   7 -33  458.32  344.30
  -2   7 -33 -187.51   72.64
   2  -7  33   64.03  134.54
   2  -7  33   40.99  131.68
  -1   7 -33  106.44   74.71
  -1   7 -33 -689.21  323.58
   1  -7  33   38.84  122.71
   1  -7  33 -108.01  127.35
   0   7 -33   -7.23  309.73
   0   7 -33  108.61   74.68
   0  -7  33 -290.43  123.90
   0  -7  33   37.53  119.74
  -3   8 -33 -199.68  373.63
  -2   8 -33    5.34   77.99
  -2   8 -33    8.39  357.07
   2  -8  33   26.15  137.75
  -1   8 -33 -225.46  340.39
  -1   8 -33    5.16   73.20
   1  -8  33 -209.86  121.38
   1  -8  33  195.63  132.49
   0  -8  33    5.11  117.49
  -1   9 -33    5.26   73.84
  -1   9 -33  -92.20  363.85
   1  -9  33    5.16  134.53
   1  -9  33    5.20   84.58
   3  -4  34   -7.64  161.73
   2  -4  34   65.19  155.27
   1  -4  34  110.07  152.10
   0  -4  34  313.75  161.16
   4  -4  34   -8.04  170.19
  -4   5 -34  -41.91  332.89
   4  -5  34   60.78  135.71
  -3   5 -34   81.74   79.98
  -3   5 -34 -335.63  329.27
   3  -5  34   -7.16  158.20
   3  -5  34  -68.85  126.64
  -2   5 -34  -15.18  304.26
  -2   5 -34  -47.94   77.84
   2  -5  34    5.07  125.68
   2  -5  34  -61.24  148.76
  -1   5 -34  120.03   77.83
  -1   5 -34    7.17  286.28
   1  -5  34  -32.41  146.37
   0   5 -34 -452.22  271.64
   0   5 -34   25.59   78.47
   0  -5  34 -154.29  134.15
  -3   6 -34  -75.47  337.10
  -3   6 -34    5.52   78.51
   3  -6  34   -5.42  134.27
  -2   6 -34 -222.83  325.07
  -2   6 -34   16.17   78.52
   2  -6  34    6.52  142.54
   2  -6  34  -57.11  129.38
  -1   6 -34 -496.49  312.48
  -1   6 -34  -84.33   85.42
   1  -6  34 -109.24  125.17
   1  -6  34   49.77  139.37
   0  -6  34   40.19  129.54
  -2   7 -34 -151.68  349.19
   2  -7  34    5.38  137.89
  -1   7 -34    8.01  336.21
  -1   7 -34 -111.83   75.47
   1  -7  34 -104.70  126.98
   1  -7  34   87.39  134.55
  -1   8 -34  -42.29  347.10
   1  -8  34    5.25  136.16
   2  -4  35  286.71  180.17
   1  -4  35   -7.16  155.07
   0  -4  35 -163.15  149.70
  -2   5 -35 -191.55  314.73
  -2   5 -35   -5.57   79.64
  -1   5 -35 -130.80   83.32
  -1   5 -35   -7.53  285.07
   1  -5  35  141.85  151.18
  -1   6 -35   23.58  327.51
  -1   6 -35  -38.56   83.02
   1  -6  35    6.30  137.59
   1  -6  35 -146.05  129.54
   0   0   0    0.00    0.00
;
_shelx_hkl_checksum              47708
_shelx_fab_checksum              42628
_shelx_fab_file
;
    0    2    0   -389.02      0.00
    1    2    0    284.40      0.00
    1    3    0     13.76      0.00
    2    3    0    141.17      0.00
    0    4    0     23.63      0.00
    1    4    0     51.40      0.00
    2    4    0     29.73      0.00
    3    4    0     -1.46      0.00
    1    5    0    -40.67      0.00
    2    5    0     33.14      0.00
    0    6    0      5.49      0.00
    1    6    0    -68.21      0.00
    2    6    0     68.42      0.00
    3    6    0     13.87      0.00
    4    6    0    -42.38      0.00
    1    7    0      9.88      0.00
    2    7    0    -28.18      0.00
    3    7    0     54.62      0.00
    4    7    0     24.95      0.00
    0    8    0    -13.97      0.00
    1    8    0     -7.28      0.00
    2    8    0    -17.78      0.00
    3    8    0      5.30      0.00
    4    8    0      8.57      0.00
    5    8    0    -29.50      0.00
    1    9    0      9.11      0.00
    2    9    0      8.80      0.00
    3    9    0     -4.91      0.00
    4    9    0      8.83      0.00
    5    9    0     24.86      0.00
    0   10    0     11.03      0.00
    1   10    0     -4.95      0.00
    2   10    0      4.67      0.00
    3   10    0     -4.51      0.00
    4   10    0    -10.05      0.00
    5   10    0     16.07      0.00
    6   10    0      9.81      0.00
    1   11    0    -11.70      0.00
    2   11    0      3.52      0.00
    3   11    0     -8.22      0.00
    4   11    0    -22.02      0.00
    5   11    0    -14.36      0.00
    6   11    0     17.13      0.00
    0   12    0    -20.85      0.00
    1   12    0     -1.61      0.00
    2   12    0      1.98      0.00
    3   12    0      2.21      0.00
    4   12    0     10.78      0.00
    5   12    0     -2.10      0.00
    6   12    0     -5.99      0.00
    1   13    0      0.87      0.00
    2   13    0     34.25      0.00
    3   13    0     11.19      0.00
    4   13    0      4.84      0.00
    7   13    0     33.54      0.00
    0   14    0      1.84      0.00
    1   14    0    -19.09      0.00
    2   14    0     12.40      0.00
    3   14    0     -2.81      0.00
    4   14    0      6.38      0.00
    5   14    0      5.50      0.00
    6   14    0     -2.79      0.00
    7   14    0    -51.17      0.00
    1   15    0    -14.27      0.00
    2   15    0     -2.44      0.00
    3   15    0      0.74      0.00
    4   15    0     -1.13      0.00
    5   15    0      4.65      0.00
    6   15    0     -4.21      0.00
    7   15    0     24.34      0.00
    0   16    0      5.24      0.00
    1   16    0     -8.62      0.00
    2   16    0      8.51      0.00
    3   16    0     -4.16      0.00
    4   16    0     16.16      0.00
    5   16    0      8.90      0.00
    6   16    0    -27.42      0.00
    7   16    0    -13.29      0.00
    1   17    0      1.39      0.00
    2   17    0     -2.35      0.00
    3   17    0     -4.94      0.00
    4   17    0    -28.04      0.00
    5   17    0     -4.04      0.00
    6   17    0    -21.29      0.00
    7   17    0    -46.53      0.00
    0   18    0      6.14      0.00
    1   18    0     -4.57      0.00
    2   18    0     -3.85      0.00
    3   18    0      8.61      0.00
    4   18    0      6.31      0.00
    5   18    0    -40.15      0.00
    6   18    0     62.71      0.00
    7   18    0     -6.43      0.00
    1   19    0     18.25      0.00
    2   19    0    -11.02      0.00
    3   19    0      4.30      0.00
    4   19    0      4.29      0.00
    5   19    0    -12.16      0.00
    6   19    0      9.22      0.00
    7   19    0    -22.71      0.00
    0   20    0    -24.00      0.00
    1   20    0      1.38      0.00
    2   20    0     18.66      0.00
    3   20    0     -5.98      0.00
    4   20    0     27.89      0.00
    5   20    0     -1.70      0.00
    1    2    1     64.03      0.00
    0    3    1    -50.15      0.00
    1    3    1    137.75      0.00
    2    3    1     21.46      0.00
    1    4    1     10.91      0.00
    2    4    1     39.39      0.00
    3    4    1     23.35      0.00
    0    5    1      9.44      0.00
    1    5    1     -9.79      0.00
    2    5    1     40.90      0.00
    3    5    1    -22.96      0.00
    1    6    1     15.41      0.00
    2    6    1    -50.16      0.00
    3    6    1      2.18      0.00
    4    6    1     28.27      0.00
    0    7    1    -25.68      0.00
    1    7    1    -16.98      0.00
    2    7    1     12.99      0.00
    3    7    1     17.13      0.00
    4    7    1     16.13      0.00
    5    7    1    -21.41      0.00
    1    8    1    -14.12      0.00
    2    8    1     -2.32      0.00
    3    8    1    -11.36      0.00
    4    8    1      3.44      0.00
    5    8    1     19.72      0.00
    0    9    1     12.14      0.00
    1    9    1      5.40      0.00
    2    9    1     -3.01      0.00
    3    9    1     -2.53      0.00
    4    9    1      7.89      0.00
    5    9    1      7.82      0.00
    6    9    1     13.68      0.00
    1   10    1      9.18      0.00
    2   10    1      5.12      0.00
    3   10    1      1.77      0.00
    4   10    1      4.39      0.00
    5   10    1      2.87      0.00
    6   10    1      4.34      0.00
    0   11    1     11.85      0.00
    1   11    1      2.12      0.00
    2   11    1     -4.00      0.00
    3   11    1      3.92      0.00
    4   11    1      2.32      0.00
    5   11    1     -5.38      0.00
    6   11    1    -20.68      0.00
    1   12    1      1.53      0.00
    2   12    1    -10.22      0.00
    3   12    1      0.32      0.00
    4   12    1     -6.84      0.00
    5   12    1     -2.24      0.00
    6   12    1     24.42      0.00
    7   12    1     56.51      0.00
    0   13    1     -4.29      0.00
    1   13    1     17.17      0.00
    2   13    1      9.84      0.00
    3   13    1      1.44      0.00
    4   13    1      0.07      0.00
    5   13    1      4.42      0.00
    6   13    1     23.14      0.00
    7   13    1      5.82      0.00
    1   14    1     24.19      0.00
    2   14    1    -16.22      0.00
    3   14    1     -0.89      0.00
    4   14    1     19.61      0.00
    5   14    1    -24.19      0.00
    6   14    1    -11.36      0.00
    7   14    1    -11.26      0.00
    0   15    1      2.88      0.00
    1   15    1    -21.28      0.00
    2   15    1     -2.26      0.00
    3   15    1     14.82      0.00
    4   15    1      6.63      0.00
    5   15    1    -14.06      0.00
    6   15    1     -2.12      0.00
    7   15    1     11.52      0.00
    1   16    1     13.00      0.00
    2   16    1     -3.82      0.00
    3   16    1      8.48      0.00
    4   16    1      2.56      0.00
    5   16    1    -12.06      0.00
    6   16    1     -5.75      0.00
    7   16    1     11.38      0.00
    0   17    1     19.22      0.00
    1   17    1      3.48      0.00
    2   17    1     -8.73      0.00
    3   17    1      9.27      0.00
    4   17    1     -6.55      0.00
    5   17    1     15.80      0.00
    6   17    1     15.26      0.00
    7   17    1     10.43      0.00
    1   18    1    -14.82      0.00
    2   18    1     -6.46      0.00
    3   18    1      4.25      0.00
    4   18    1      9.45      0.00
    5   18    1      6.39      0.00
    6   18    1     52.01      0.00
    7   18    1     12.11      0.00
    0   19    1     81.59      0.00
    1   19    1     47.95      0.00
    2   19    1    -20.44      0.00
    3   19    1     -2.15      0.00
    4   19    1     -0.29      0.00
    5   19    1    -19.70      0.00
    6   19    1    -21.26      0.00
    7   19    1    -15.36      0.00
    1   20    1     -9.92      0.00
    2   20    1     -8.22      0.00
    3   20    1     -4.25      0.00
    4   20    1     -0.07      0.00
    5   20    1    -11.46      0.00
    6   20    1     -0.17      0.00
    0    2    2     22.38      0.00
    1    2    2   -119.32      0.00
    2    2    2     49.71      0.00
    1    3    2     25.77      0.00
    2    3    2    -45.05      0.00
    3    3    2    -67.85      0.00
    0    4    2     12.13      0.00
    1    4    2     48.67      0.00
    2    4    2    -27.54      0.00
    3    4    2    -14.97      0.00
    1    5    2     -4.30      0.00
    2    5    2    -29.11      0.00
    3    5    2     -2.95      0.00
    0    6    2    -36.50      0.00
    1    6    2    -15.47      0.00
    2    6    2     23.53      0.00
    3    6    2    -10.16      0.00
    4    6    2     -2.58      0.00
    1    7    2    -35.61      0.00
    2    7    2      1.03      0.00
    3    7    2      1.95      0.00
    4    7    2      7.16      0.00
    5    7    2    -11.34      0.00
    0    8    2    -13.22      0.00
    1    8    2      3.40      0.00
    2    8    2    -17.14      0.00
    3    8    2      3.84      0.00
    4    8    2      6.54      0.00
    5    8    2     -3.42      0.00
    1    9    2      6.08      0.00
    2    9    2      9.57      0.00
    3    9    2     -4.18      0.00
    4    9    2      3.37      0.00
    5    9    2      5.84      0.00
    6    9    2     15.69      0.00
    0   10    2     10.46      0.00
    1   10    2     -3.74      0.00
    2   10    2     -2.92      0.00
    3   10    2     -4.12      0.00
    4   10    2     -6.96      0.00
    5   10    2     11.52      0.00
    6   10    2      0.54      0.00
    1   11    2      2.79      0.00
    2   11    2      1.13      0.00
    3   11    2     -3.72      0.00
    4   11    2      5.96      0.00
    5   11    2     -4.92      0.00
    6   11    2      7.54      0.00
    7   11    2    -10.92      0.00
    0   12    2     10.13      0.00
    1   12    2    -10.59      0.00
    2   12    2     -4.52      0.00
    3   12    2     -8.06      0.00
    4   12    2     -0.96      0.00
    5   12    2    -13.24      0.00
    6   12    2    -22.72      0.00
    7   12    2     44.37      0.00
    1   13    2     -5.61      0.00
    2   13    2     -4.40      0.00
    3   13    2     -3.74      0.00
    4   13    2    -24.14      0.00
    5   13    2     -9.65      0.00
    6   13    2    -10.58      0.00
    0   14    2    -58.05      0.00
    1   14    2     27.68      0.00
    2   14    2     14.07      0.00
    3   14    2      9.48      0.00
    4   14    2    -22.24      0.00
    5   14    2      5.93      0.00
    6   14    2     10.18      0.00
    7   14    2     14.38      0.00
    1   15    2    -16.01      0.00
    2   15    2      6.34      0.00
    3   15    2    -13.43      0.00
    4   15    2      2.78      0.00
    5   15    2     -3.55      0.00
    6   15    2     21.21      0.00
    7   15    2     11.59      0.00
    0   16    2     -1.16      0.00
    1   16    2    -13.35      0.00
    2   16    2     -4.26      0.00
    3   16    2      0.54      0.00
    4   16    2     18.05      0.00
    5   16    2     -5.00      0.00
    6   16    2    -11.44      0.00
    7   16    2     -2.35      0.00
    1   17    2     -3.89      0.00
    2   17    2     -5.18      0.00
    3   17    2      0.13      0.00
    4   17    2      1.79      0.00
    5   17    2     -2.65      0.00
    6   17    2    -16.41      0.00
    7   17    2    -27.22      0.00
    8   17    2      4.70      0.00
    0   18    2     -3.86      0.00
    1   18    2     -1.80      0.00
    2   18    2    -12.86      0.00
    3   18    2      6.63      0.00
    4   18    2     -6.84      0.00
    5   18    2    -10.69      0.00
    6   18    2     61.14      0.00
    7   18    2     -7.90      0.00
    8   18    2     -4.69      0.00
    1   19    2    -13.54      0.00
    2   19    2    -11.83      0.00
    3   19    2      9.54      0.00
    4   19    2     10.39      0.00
    5   19    2     -4.93      0.00
    6   19    2     -1.91      0.00
    7   19    2    -19.97      0.00
    0   20    2    -12.18      0.00
    1   20    2      2.05      0.00
    2   20    2     -6.34      0.00
    3   20    2      6.03      0.00
    4   20    2      3.26      0.00
    5   20    2     -8.48      0.00
    6   20    2      7.86      0.00
    0    1    3     89.95      0.00
    1    2    3   -110.13      0.00
    0    3    3    119.23      0.00
    1    3    3    -96.89      0.00
    2    3    3     -4.11      0.00
    1    4    3    -16.72      0.00
    2    4    3    -37.12      0.00
    3    4    3    -17.02      0.00
    0    5    3      6.52      0.00
    1    5    3     14.76      0.00
    2    5    3    -64.80      0.00
    3    5    3    -17.84      0.00
    1    6    3      8.16      0.00
    2    6    3     14.55      0.00
    3    6    3      6.32      0.00
    4    6    3      2.66      0.00
    5    6    3     -2.25      0.00
    0    7    3     17.91      0.00
    1    7    3     12.25      0.00
    2    7    3      6.17      0.00
    3    7    3     -2.72      0.00
    4    7    3     -9.56      0.00
    5    7    3    -15.41      0.00
    1    8    3    -10.68      0.00
    2    8    3     11.51      0.00
    3    8    3    -10.81      0.00
    4    8    3     -0.27      0.00
    5    8    3     -7.96      0.00
    6    8    3      7.85      0.00
    0    9    3     21.77      0.00
    1    9    3     -4.06      0.00
    2    9    3     -8.66      0.00
    3    9    3     -9.20      0.00
    4    9    3     -5.55      0.00
    5    9    3      5.08      0.00
    6    9    3     14.31      0.00
    1   10    3      3.43      0.00
    2   10    3     -4.38      0.00
    3   10    3      2.29      0.00
    4   10    3     -1.34      0.00
    5   10    3     -1.24      0.00
    6   10    3     -7.27      0.00
    7   10    3     -7.98      0.00
    0   11    3    -15.10      0.00
    1   11    3      2.82      0.00
    2   11    3     -1.45      0.00
    3   11    3      1.46      0.00
    4   11    3    -14.74      0.00
    5   11    3    -12.10      0.00
    6   11    3      9.22      0.00
    7   11    3    -12.55      0.00
    1   12    3      1.14      0.00
    2   12    3     -0.60      0.00
    3   12    3     -1.92      0.00
    4   12    3      9.15      0.00
    5   12    3     -1.32      0.00
    6   12    3     -8.94      0.00
    7   12    3     -0.46      0.00
    0   13    3     11.46      0.00
    1   13    3      0.57      0.00
    2   13    3     -7.89      0.00
    3   13    3     -7.21      0.00
    4   13    3     13.99      0.00
    5   13    3     10.72      0.00
    6   13    3     -7.23      0.00
    1   14    3    -12.01      0.00
    2   14    3    -27.66      0.00
    3   14    3      1.07      0.00
    4   14    3    -12.60      0.00
    5   14    3    -18.72      0.00
    6   14    3     -7.48      0.00
    7   14    3     -8.57      0.00
    8   14    3    -27.51      0.00
    0   15    3      3.35      0.00
    1   15    3     -6.96      0.00
    2   15    3    -12.29      0.00
    3   15    3      4.46      0.00
    4   15    3     -6.63      0.00
    5   15    3     12.62      0.00
    6   15    3     13.65      0.00
    7   15    3      7.66      0.00
    8   15    3      6.96      0.00
    1   16    3     10.20      0.00
    2   16    3     11.39      0.00
    3   16    3    -16.11      0.00
    4   16    3      7.51      0.00
    5   16    3     -6.10      0.00
    6   16    3     11.62      0.00
    7   16    3      3.21      0.00
    8   16    3     -0.76      0.00
    0   17    3    -12.13      0.00
    1   17    3     -5.38      0.00
    2   17    3      7.66      0.00
    3   17    3     -1.38      0.00
    4   17    3      7.59      0.00
    5   17    3      4.08      0.00
    6   17    3    -15.88      0.00
    7   17    3     -5.98      0.00
    8   17    3     -6.71      0.00
    1   18    3     -5.89      0.00
    2   18    3     -6.42      0.00
    3   18    3     11.38      0.00
    4   18    3     -3.06      0.00
    5   18    3    -12.72      0.00
    6   18    3      9.24      0.00
    7   18    3     13.81      0.00
    8   18    3     -5.62      0.00
    0   19    3      9.36      0.00
    1   19    3      2.41      0.00
    2   19    3      2.72      0.00
    3   19    3     -3.63      0.00
    4   19    3     -3.59      0.00
    5   19    3     -2.91      0.00
    6   19    3    -21.45      0.00
    7   19    3      8.22      0.00
    1   20    3     -6.33      0.00
    2   20    3     -0.72      0.00
    3   20    3     10.22      0.00
    4   20    3      9.55      0.00
    5   20    3     -0.98      0.00
    6   20    3     -0.43      0.00
    7   20    3     -1.22      0.00
    0    0    4    -95.18      0.00
    1    1    4     29.96      0.00
    0    2    4     43.41      0.00
    1    2    4     -4.52      0.00
    2    2    4    -22.08      0.00
    1    3    4     47.03      0.00
    2    3    4      6.71      0.00
    3    3    4    -42.00      0.00
    0    4    4    -68.62      0.00
    1    4    4    -14.62      0.00
    2    4    4     14.44      0.00
    3    4    4     28.01      0.00
    4    4    4     16.58      0.00
    1    5    4    -66.83      0.00
    2    5    4    -25.85      0.00
    3    5    4      3.80      0.00
    4    5    4     -8.78      0.00
    5    5    4     13.54      0.00
    0    6    4     40.96      0.00
    1    6    4     22.04      0.00
    2    6    4    -18.38      0.00
    3    6    4     13.71      0.00
    4    6    4      3.42      0.00
    5    6    4      4.94      0.00
    1    7    4      1.46      0.00
    2    7    4      9.68      0.00
    3    7    4     -9.26      0.00
    4    7    4      5.57      0.00
    5    7    4     -5.57      0.00
    6    7    4     -0.68      0.00
    0    8    4     18.90      0.00
    1    8    4     13.72      0.00
    2    8    4      7.77      0.00
    3    8    4     -1.36      0.00
    4    8    4     -3.37      0.00
    5    8    4     -8.71      0.00
    6    8    4    -13.04      0.00
    1    9    4     11.79      0.00
    2    9    4     -5.18      0.00
    3    9    4      7.26      0.00
    4    9    4    -11.38      0.00
    5    9    4     -8.31      0.00
    6    9    4     13.74      0.00
    7    9    4     -7.68      0.00
    0   10    4    -10.57      0.00
    1   10    4      0.56      0.00
    2   10    4      2.43      0.00
    3   10    4     -9.21      0.00
    4   10    4      0.10      0.00
    5   10    4     -5.81      0.00
    6   10    4     -4.83      0.00
    7   10    4     10.31      0.00
    1   11    4     -4.84      0.00
    2   11    4      2.79      0.00
    3   11    4      4.77      0.00
    4   11    4      3.94      0.00
    5   11    4      8.20      0.00
    6   11    4     -3.48      0.00
    7   11    4    -10.91      0.00
    0   12    4    -10.87      0.00
    1   12    4     -6.95      0.00
    2   12    4      2.98      0.00
    3   12    4     14.71      0.00
    4   12    4      6.27      0.00
    5   12    4     -2.97      0.00
    6   12    4     -3.06      0.00
    7   12    4     16.84      0.00
    1   13    4      3.55      0.00
    2   13    4      5.03      0.00
    3   13    4     -3.09      0.00
    4   13    4    -13.13      0.00
    5   13    4     14.89      0.00
    6   13    4     13.33      0.00
    0   14    4     22.71      0.00
    1   14    4     19.17      0.00
    2   14    4     -8.76      0.00
    3   14    4      9.24      0.00
    4   14    4     30.36      0.00
    5   14    4     12.60      0.00
    6   14    4     15.62      0.00
    7   14    4     17.96      0.00
    8   14    4      6.25      0.00
    1   15    4      9.01      0.00
    2   15    4      5.96      0.00
    3   15    4      4.04      0.00
    4   15    4    -14.27      0.00
    5   15    4      6.77      0.00
    6   15    4    -10.81      0.00
    7   15    4     -8.49      0.00
    8   15    4      8.41      0.00
    0   16    4     -2.11      0.00
    1   16    4     14.34      0.00
    2   16    4      5.93      0.00
    3   16    4      4.00      0.00
    4   16    4      9.93      0.00
    5   16    4    -15.78      0.00
    6   16    4      8.92      0.00
    7   16    4    -12.07      0.00
    8   16    4     12.14      0.00
    1   17    4     -6.42      0.00
    2   17    4      1.73      0.00
    3   17    4     18.81      0.00
    4   17    4    -12.27      0.00
    5   17    4    -17.49      0.00
    6   17    4     -7.96      0.00
    7   17    4     -6.81      0.00
    0   18    4    -10.86      0.00
    1   18    4     13.15      0.00
    2   18    4    -19.88      0.00
    3   18    4     -5.27      0.00
    4   18    4    -10.60      0.00
    5   18    4      0.39      0.00
    6   18    4      1.80      0.00
    7   18    4     -1.94      0.00
    1   19    4     -0.60      0.00
    2   19    4     -1.54      0.00
    3   19    4      3.00      0.00
    4   19    4      0.64      0.00
    5   19    4     -8.47      0.00
    6   19    4     -4.32      0.00
    7   19    4     -1.96      0.00
    0   20    4      2.48      0.00
    1   20    4     -6.03      0.00
    2   20    4      0.55      0.00
    3   20    4     -1.43      0.00
    4   20    4    -12.48      0.00
    5   20    4      4.46      0.00
    6   20    4     -6.75      0.00
    0    1    5    -44.56      0.00
    1    2    5     80.35      0.00
    0    3    5      6.91      0.00
    1    3    5    -57.24      0.00
    2    3    5     43.31      0.00
    1    4    5     10.55      0.00
    2    4    5      5.48      0.00
    3    4    5    -50.46      0.00
    0    5    5    -18.68      0.00
    1    5    5      6.36      0.00
    2    5    5     40.94      0.00
    3    5    5    -12.82      0.00
    4    5    5     11.76      0.00
    1    6    5     12.56      0.00
    2    6    5     16.55      0.00
    3    6    5     -9.36      0.00
    4    6    5      5.58      0.00
    5    6    5     23.16      0.00
    0    7    5     33.72      0.00
    1    7    5     14.72      0.00
    2    7    5     -5.79      0.00
    3    7    5     13.77      0.00
    4    7    5    -21.14      0.00
    5    7    5      3.52      0.00
    6    7    5     11.68      0.00
    1    8    5      7.89      0.00
    2    8    5      9.43      0.00
    3    8    5      5.57      0.00
    4    8    5     -9.54      0.00
    5    8    5      3.71      0.00
    6    8    5     14.25      0.00
    7    8    5     -3.44      0.00
    0    9    5     -5.31      0.00
    1    9    5     -7.43      0.00
    2    9    5      5.09      0.00
    3    9    5    -11.97      0.00
    4    9    5      3.73      0.00
    5    9    5    -11.43      0.00
    6    9    5     -3.70      0.00
    7    9    5      3.60      0.00
    1   10    5    -10.49      0.00
    2   10    5     -7.79      0.00
    3   10    5      3.85      0.00
    4   10    5      1.00      0.00
    5   10    5     -0.93      0.00
    6   10    5      3.27      0.00
    7   10    5    -10.03      0.00
    0   11    5    -14.47      0.00
    1   11    5     -1.62      0.00
    2   11    5      8.75      0.00
    3   11    5      9.78      0.00
    4   11    5     11.69      0.00
    5   11    5     -4.78      0.00
    6   11    5     25.32      0.00
    7   11    5      2.16      0.00
    8   11    5     27.08      0.00
    1   12    5      6.27      0.00
    2   12    5     -2.59      0.00
    3   12    5     -8.61      0.00
    4   12    5     10.92      0.00
    5   12    5    -13.24      0.00
    6   12    5      2.16      0.00
    7   12    5     30.09      0.00
    8   12    5   -114.22      0.00
    0   13    5      6.84      0.00
    1   13    5      3.30      0.00
    2   13    5     -2.68      0.00
    3   13    5      8.71      0.00
    4   13    5    -17.51      0.00
    5   13    5    -16.01      0.00
    6   13    5     -0.36      0.00
    1   14    5      5.08      0.00
    2   14    5     -2.60      0.00
    3   14    5     -5.74      0.00
    4   14    5     10.63      0.00
    5   14    5    -12.27      0.00
    6   14    5     14.65      0.00
    7   14    5    -28.40      0.00
    8   14    5     15.65      0.00
    0   15    5     -2.20      0.00
    1   15    5      6.06      0.00
    2   15    5      1.13      0.00
    3   15    5     -0.67      0.00
    4   15    5      4.11      0.00
    5   15    5     -9.97      0.00
    6   15    5     15.41      0.00
    7   15    5     18.91      0.00
    1   16    5     14.10      0.00
    2   16    5      2.49      0.00
    3   16    5     -2.16      0.00
    4   16    5     -4.65      0.00
    5   16    5    -22.49      0.00
    6   16    5      5.71      0.00
    7   16    5      6.40      0.00
    0   17    5     -1.95      0.00
    1   17    5      3.98      0.00
    2   17    5      4.40      0.00
    3   17    5     -7.64      0.00
    4   17    5    -19.80      0.00
    5   17    5     -7.08      0.00
    6   17    5      3.71      0.00
    7   17    5     22.98      0.00
    1   18    5      3.34      0.00
    2   18    5    -10.17      0.00
    3   18    5     13.09      0.00
    4   18    5      0.25      0.00
    5   18    5     -1.19      0.00
    6   18    5     -7.56      0.00
    0   19    5     -4.47      0.00
    1   19    5     -8.68      0.00
    2   19    5      0.28      0.00
    3   19    5     15.61      0.00
    4   19    5      3.56      0.00
    5   19    5     -4.43      0.00
    6   19    5     10.32      0.00
    1   20    5      7.39      0.00
    2   20    5     -1.72      0.00
    3   20    5      9.29      0.00
    4   20    5     28.35      0.00
    5   20    5      8.10      0.00
    0    0    6    -36.94      0.00
    1    1    6     22.68      0.00
    0    2    6    -45.89      0.00
    1    2    6    -38.36      0.00
    2    2    6     -1.15      0.00
    1    3    6     54.65      0.00
    2    3    6    -26.89      0.00
    3    3    6     47.00      0.00
    0    4    6     68.04      0.00
    1    4    6    -44.67      0.00
    2    4    6     -8.51      0.00
    3    4    6     39.64      0.00
    4    4    6     44.49      0.00
    1    5    6     -7.57      0.00
    2    5    6    -10.76      0.00
    3    5    6     -9.85      0.00
    4    5    6     -7.26      0.00
    5    5    6     31.37      0.00
    0    6    6     35.63      0.00
    1    6    6      7.48      0.00
    2    6    6      2.68      0.00
    3    6    6     10.31      0.00
    4    6    6      9.67      0.00
    5    6    6     -5.23      0.00
    6    6    6     18.17      0.00
    1    7    6      8.70      0.00
    2    7    6     11.91      0.00
    3    7    6      4.75      0.00
    4    7    6     -8.21      0.00
    5    7    6    -11.19      0.00
    6    7    6      1.09      0.00
    7    7    6     -1.33      0.00
    0    8    6     -0.88      0.00
    1    8    6      0.95      0.00
    2    8    6     -4.12      0.00
    3    8    6     -5.87      0.00
    4    8    6     -3.81      0.00
    5    8    6     -3.93      0.00
    6    8    6    -10.51      0.00
    7    8    6      2.64      0.00
    1    9    6      2.08      0.00
    2    9    6     -8.76      0.00
    3    9    6     11.11      0.00
    4    9    6     -9.11      0.00
    5    9    6    -14.17      0.00
    6    9    6      4.91      0.00
    7    9    6      6.47      0.00
    0   10    6     -4.84      0.00
    1   10    6     -3.04      0.00
    2   10    6      0.17      0.00
    3   10    6      6.54      0.00
    4   10    6     -5.44      0.00
    5   10    6     -2.15      0.00
    6   10    6      4.27      0.00
    7   10    6      3.44      0.00
    8   10    6      1.67      0.00
    1   11    6    -13.36      0.00
    2   11    6      9.45      0.00
    3   11    6     13.15      0.00
    4   11    6     -4.26      0.00
    5   11    6      8.91      0.00
    6   11    6     -4.07      0.00
    7   11    6     -2.25      0.00
    8   11    6     31.64      0.00
    0   12    6     15.39      0.00
    1   12    6      1.76      0.00
    2   12    6     -3.24      0.00
    3   12    6      9.88      0.00
    4   12    6     10.51      0.00
    5   12    6      3.27      0.00
    6   12    6      3.13      0.00
    7   12    6    -33.56      0.00
    1   13    6     -1.62      0.00
    2   13    6     -0.44      0.00
    3   13    6      4.56      0.00
    4   13    6      7.35      0.00
    5   13    6    -20.20      0.00
    6   13    6    -29.34      0.00
    7   13    6    -26.32      0.00
    0   14    6     13.29      0.00
    1   14    6      0.86      0.00
    2   14    6      1.71      0.00
    3   14    6    -17.94      0.00
    4   14    6     10.36      0.00
    5   14    6      8.25      0.00
    6   14    6      0.43      0.00
    7   14    6    -10.45      0.00
    1   15    6     -7.29      0.00
    2   15    6      0.98      0.00
    3   15    6     -0.94      0.00
    4   15    6    -21.16      0.00
    5   15    6     -5.42      0.00
    6   15    6     -4.19      0.00
    7   15    6     -0.39      0.00
    0   16    6    -20.78      0.00
    1   16    6    -13.60      0.00
    2   16    6      4.94      0.00
    3   16    6      9.59      0.00
    4   16    6      1.38      0.00
    5   16    6     -8.03      0.00
    6   16    6      1.65      0.00
    1   17    6     -2.78      0.00
    2   17    6     -9.74      0.00
    3   17    6      8.58      0.00
    4   17    6      1.30      0.00
    5   17    6     19.66      0.00
    6   17    6      0.64      0.00
    0   18    6     -4.62      0.00
    1   18    6     -4.95      0.00
    2   18    6     -2.38      0.00
    3   18    6      2.36      0.00
    4   18    6     -0.36      0.00
    5   18    6     68.16      0.00
    6   18    6      2.83      0.00
    1   19    6      4.70      0.00
    2   19    6      0.95      0.00
    3   19    6     21.02      0.00
    4   19    6     -6.68      0.00
    5   19    6     -4.97      0.00
    6   19    6    -13.88      0.00
    0   20    6      1.53      0.00
    1   20    6      7.68      0.00
    2   20    6    -10.59      0.00
    3   20    6     -6.11      0.00
    4   20    6     13.95      0.00
    0    1    7    -25.74      0.00
    1    2    7     -8.55      0.00
    0    3    7     33.90      0.00
    1    3    7    -37.50      0.00
    2    3    7    -60.17      0.00
    1    4    7     26.18      0.00
    2    4    7      4.87      0.00
    3    4    7     -0.60      0.00
    0    5    7    -78.70      0.00
    1    5    7     17.27      0.00
    2    5    7      7.38      0.00
    3    5    7     -8.11      0.00
    4    5    7      8.77      0.00
    1    6    7      2.10      0.00
    2    6    7      7.21      0.00
    3    6    7     -6.65      0.00
    4    6    7     -0.10      0.00
    5    6    7     -4.09      0.00
    0    7    7     24.53      0.00
    1    7    7     11.18      0.00
    2    7    7    -10.07      0.00
    3    7    7      2.16      0.00
    4    7    7    -11.20      0.00
    5    7    7     -2.07      0.00
    6    7    7    -12.33      0.00
    1    8    7      0.38      0.00
    2    8    7     -7.33      0.00
    3    8    7    -12.75      0.00
    4    8    7     -1.27      0.00
    5    8    7      9.33      0.00
    6    8    7      6.57      0.00
    7    8    7      6.21      0.00
    0    9    7    -13.95      0.00
    1    9    7     -6.57      0.00
    2    9    7     -2.94      0.00
    3    9    7      2.04      0.00
    4    9    7     13.45      0.00
    5    9    7      0.73      0.00
    6    9    7     -7.81      0.00
    7    9    7      5.02      0.00
    8    9    7     -8.29      0.00
    1   10    7    -11.59      0.00
    2   10    7      4.57      0.00
    3   10    7      1.20      0.00
    4   10    7    -11.13      0.00
    5   10    7      9.99      0.00
    6   10    7      0.48      0.00
    7   10    7      2.43      0.00
    8   10    7     -7.46      0.00
    0   11    7      3.88      0.00
    1   11    7     -0.60      0.00
    2   11    7      5.29      0.00
    3   11    7     -1.87      0.00
    4   11    7      3.80      0.00
    5   11    7     -3.35      0.00
    6   11    7    -10.26      0.00
    7   11    7      5.11      0.00
    8   11    7      4.34      0.00
    1   12    7     -1.31      0.00
    2   12    7     -2.25      0.00
    3   12    7     -3.16      0.00
    4   12    7     22.59      0.00
    5   12    7     -4.25      0.00
    6   12    7      9.21      0.00
    0   13    7     -4.60      0.00
    1   13    7     11.57      0.00
    2   13    7      6.28      0.00
    3   13    7     -8.34      0.00
    4   13    7      5.36      0.00
    5   13    7     13.03      0.00
    6   13    7      9.54      0.00
    7   13    7     20.12      0.00
    1   14    7     10.25      0.00
    2   14    7    -24.83      0.00
    3   14    7      6.68      0.00
    4   14    7     -8.39      0.00
    5   14    7     10.36      0.00
    6   14    7     13.03      0.00
    7   14    7      9.51      0.00
    0   15    7    -12.41      0.00
    1   15    7      0.50      0.00
    2   15    7     -9.29      0.00
    3   15    7     -5.67      0.00
    4   15    7     -1.95      0.00
    5   15    7      1.93      0.00
    6   15    7      3.37      0.00
    1   16    7     14.92      0.00
    2   16    7      5.16      0.00
    3   16    7     -5.54      0.00
    4   16    7     37.17      0.00
    5   16    7     10.52      0.00
    6   16    7     -5.80      0.00
    0   17    7     12.08      0.00
    1   17    7     -7.76      0.00
    2   17    7    -14.20      0.00
    3   17    7      4.87      0.00
    4   17    7     15.05      0.00
    5   17    7      6.02      0.00
    6   17    7     10.81      0.00
    1   18    7     -0.01      0.00
    2   18    7      8.04      0.00
    3   18    7      6.42      0.00
    4   18    7    -19.65      0.00
    5   18    7     15.52      0.00
    6   18    7      2.12      0.00
    0   19    7     -1.40      0.00
    1   19    7     -7.25      0.00
    2   19    7     18.24      0.00
    3   19    7     12.74      0.00
    4   19    7     -2.02      0.00
    5   19    7    -23.37      0.00
    6   19    7      7.34      0.00
    1   20    7      2.83      0.00
    2   20    7      0.44      0.00
    3   20    7    -12.34      0.00
    0    0    8    -53.49      0.00
    1    1    8    -25.28      0.00
    0    2    8     50.65      0.00
    1    2    8     56.27      0.00
    2    2    8     15.71      0.00
    1    3    8    -31.52      0.00
    2    3    8    -24.09      0.00
    3    3    8    -85.35      0.00
    0    4    8   -129.62      0.00
    1    4    8     -5.01      0.00
    2    4    8     -4.18      0.00
    3    4    8      2.46      0.00
    4    4    8    -10.04      0.00
    1    5    8    -17.61      0.00
    2    5    8     23.14      0.00
    3    5    8     13.35      0.00
    4    5    8      8.20      0.00
    5    5    8      1.92      0.00
    0    6    8     -3.84      0.00
    1    6    8      2.50      0.00
    2    6    8     17.81      0.00
    3    6    8     -4.49      0.00
    4    6    8     -9.64      0.00
    5    6    8     -9.52      0.00
    6    6    8    -11.01      0.00
    1    7    8     -5.78      0.00
    2    7    8    -12.60      0.00
    3    7    8     -6.66      0.00
    4    7    8      0.02      0.00
    5    7    8      7.20      0.00
    6    7    8      3.96      0.00
    7    7    8    -15.65      0.00
    0    8    8    -13.03      0.00
    1    8    8     -6.75      0.00
    2    8    8     -1.06      0.00
    3    8    8      0.69      0.00
    4    8    8      8.73      0.00
    5    8    8      4.78      0.00
    6    8    8      1.31      0.00
    7    8    8      0.86      0.00
    8    8    8      7.38      0.00
    1    9    8      8.17      0.00
    2    9    8      3.08      0.00
    3    9    8     -2.20      0.00
    4    9    8     -4.70      0.00
    5    9    8      9.76      0.00
    6    9    8     -3.52      0.00
    7    9    8     -1.98      0.00
    8    9    8     -7.32      0.00
    0   10    8      2.17      0.00
    1   10    8      2.62      0.00
    2   10    8     -7.45      0.00
    3   10    8     -3.43      0.00
    4   10    8     -9.98      0.00
    5   10    8      3.54      0.00
    6   10    8     -9.00      0.00
    7   10    8      8.04      0.00
    8   10    8     -4.54      0.00
    1   11    8     -2.17      0.00
    2   11    8     -5.05      0.00
    3   11    8      1.76      0.00
    4   11    8      6.10      0.00
    5   11    8      3.17      0.00
    6   11    8     12.21      0.00
    7   11    8     -3.08      0.00
    8   11    8    -12.56      0.00
    0   12    8      0.54      0.00
    1   12    8     -1.01      0.00
    2   12    8      2.29      0.00
    3   12    8    -11.52      0.00
    4   12    8      1.77      0.00
    5   12    8    -12.44      0.00
    6   12    8      7.79      0.00
    7   12    8    -13.16      0.00
    8   12    8     18.20      0.00
    1   13    8     -3.37      0.00
    2   13    8     -4.55      0.00
    3   13    8     -7.66      0.00
    4   13    8     -2.70      0.00
    5   13    8    -38.39      0.00
    6   13    8      5.22      0.00
    7   13    8      8.55      0.00
    0   14    8     -1.46      0.00
    1   14    8      1.23      0.00
    2   14    8      7.59      0.00
    3   14    8      7.58      0.00
    4   14    8     -4.27      0.00
    5   14    8     -2.35      0.00
    6   14    8     11.59      0.00
    7   14    8     27.50      0.00
    1   15    8     -9.63      0.00
    2   15    8      5.26      0.00
    3   15    8     -6.21      0.00
    4   15    8      5.03      0.00
    5   15    8      5.02      0.00
    6   15    8      6.34      0.00
    7   15    8      0.32      0.00
    0   16    8     -2.88      0.00
    1   16    8      0.97      0.00
    2   16    8      3.79      0.00
    3   16    8      6.28      0.00
    4   16    8     -0.63      0.00
    5   16    8    -12.88      0.00
    6   16    8     -6.72      0.00
    7   16    8      1.64      0.00
    1   17    8     -9.96      0.00
    2   17    8      7.68      0.00
    3   17    8     -4.35      0.00
    4   17    8    -13.23      0.00
    5   17    8    -18.53      0.00
    6   17    8    -40.76      0.00
    7   17    8    -49.70      0.00
    0   18    8      6.82      0.00
    1   18    8     15.60      0.00
    2   18    8     24.61      0.00
    3   18    8     -8.21      0.00
    4   18    8    -64.43      0.00
    5   18    8     14.52      0.00
    6   18    8     15.17      0.00
    1   19    8     -5.25      0.00
    2   19    8    -22.66      0.00
    3   19    8      8.13      0.00
    4   19    8      9.07      0.00
    5   19    8    -11.34      0.00
    6   19    8     28.88      0.00
    0   20    8      1.56      0.00
    1   20    8     10.32      0.00
    2   20    8    -19.49      0.00
    0    1    9    -34.05      0.00
    1    2    9      0.77      0.00
    0    3    9     -3.29      0.00
    1    3    9    -19.09      0.00
    2    3    9     -7.37      0.00
    1    4    9     25.18      0.00
    2    4    9     22.35      0.00
    3    4    9     12.64      0.00
    0    5    9    -43.81      0.00
    1    5    9     -2.38      0.00
    2    5    9      4.64      0.00
    3    5    9      7.67      0.00
    4    5    9     -7.75      0.00
    1    6    9     17.24      0.00
    2    6    9     -5.59      0.00
    3    6    9    -27.05      0.00
    4    6    9     -7.16      0.00
    5    6    9     -5.72      0.00
    0    7    9     13.36      0.00
    1    7    9    -11.95      0.00
    2    7    9     -4.60      0.00
    3    7    9    -11.70      0.00
    4    7    9     -3.66      0.00
    5    7    9      5.36      0.00
    6    7    9     -1.23      0.00
    1    8    9     -5.98      0.00
    2    8    9     -5.24      0.00
    3    8    9      8.31      0.00
    4    8    9      5.84      0.00
    5    8    9     -5.65      0.00
    6    8    9      4.82      0.00
    7    8    9      2.07      0.00
    0    9    9      0.42      0.00
    1    9    9      2.67      0.00
    2    9    9     -7.83      0.00
    3    9    9     14.76      0.00
    4    9    9      6.11      0.00
    5    9    9      0.68      0.00
    6    9    9    -12.66      0.00
    7    9    9     -4.51      0.00
    8    9    9      5.15      0.00
    1   10    9      3.58      0.00
    2   10    9      4.86      0.00
    3   10    9      9.05      0.00
    4   10    9     -3.99      0.00
    5   10    9     -4.23      0.00
    6   10    9      9.79      0.00
    7   10    9     -1.94      0.00
    8   10    9    -11.51      0.00
    9   10    9     -0.87      0.00
    0   11    9      5.35      0.00
    1   11    9      6.89      0.00
    2   11    9     -3.21      0.00
    3   11    9     11.23      0.00
    4   11    9    -12.87      0.00
    5   11    9      3.45      0.00
    6   11    9     11.86      0.00
    7   11    9      6.25      0.00
    8   11    9      1.68      0.00
    1   12    9      2.06      0.00
    2   12    9      1.50      0.00
    3   12    9     -8.13      0.00
    4   12    9     -4.71      0.00
    5   12    9     -0.33      0.00
    6   12    9    -21.13      0.00
    7   12    9      3.35      0.00
    8   12    9     35.32      0.00
    9   12    9    -69.45      0.00
    0   13    9    -12.91      0.00
    1   13    9      9.40      0.00
    2   13    9     -1.01      0.00
    3   13    9      7.65      0.00
    4   13    9    -19.14      0.00
    5   13    9     16.24      0.00
    6   13    9      2.84      0.00
    7   13    9    -14.21      0.00
    1   14    9      5.69      0.00
    2   14    9    -20.81      0.00
    3   14    9      9.55      0.00
    4   14    9      5.89      0.00
    5   14    9      5.52      0.00
    6   14    9     14.27      0.00
    7   14    9      0.08      0.00
    0   15    9      3.21      0.00
    1   15    9     -3.88      0.00
    2   15    9     -5.52      0.00
    3   15    9     -7.76      0.00
    4   15    9     20.14      0.00
    5   15    9      1.35      0.00
    6   15    9    -19.55      0.00
    7   15    9      1.81      0.00
    1   16    9    -10.71      0.00
    2   16    9     23.17      0.00
    3   16    9      1.41      0.00
    4   16    9     -0.55      0.00
    5   16    9      9.75      0.00
    6   16    9    -16.82      0.00
    7   16    9      6.89      0.00
    0   17    9     21.53      0.00
    1   17    9      1.44      0.00
    2   17    9      1.11      0.00
    3   17    9      8.26      0.00
    4   17    9     -7.82      0.00
    5   17    9     -3.38      0.00
    6   17    9      6.55      0.00
    7   17    9     -1.77      0.00
    1   18    9     -7.51      0.00
    2   18    9    -13.01      0.00
    3   18    9    -53.78      0.00
    4   18    9     -7.30      0.00
    5   18    9     11.06      0.00
    6   18    9     12.17      0.00
    7   18    9      6.89      0.00
    0   19    9     -7.32      0.00
    1   19    9    -12.66      0.00
    2   19    9    -16.39      0.00
    3   19    9     -9.90      0.00
    4   19    9      7.98      0.00
    5   19    9    -12.39      0.00
    1   20    9     -6.53      0.00
    0    0   10     33.06      0.00
    1    1   10    -36.50      0.00
    0    2   10    112.37      0.00
    1    2   10     -8.16      0.00
    2    2   10    -34.09      0.00
    1    3   10    -12.54      0.00
    2    3   10    -14.84      0.00
    3    3   10     -5.82      0.00
    0    4   10     25.64      0.00
    1    4   10      0.80      0.00
    2    4   10     34.89      0.00
    3    4   10      4.15      0.00
    4    4   10      1.42      0.00
    1    5   10     11.47      0.00
    2    5   10     11.69      0.00
    3    5   10      8.33      0.00
    4    5   10      7.17      0.00
    5    5   10      3.95      0.00
    0    6   10     21.49      0.00
    1    6   10     -0.74      0.00
    2    6   10      3.50      0.00
    3    6   10    -11.25      0.00
    4    6   10      4.13      0.00
    5    6   10     -5.53      0.00
    6    6   10    -23.47      0.00
    1    7   10     -9.51      0.00
    2    7   10     -8.70      0.00
    3    7   10     -5.42      0.00
    4    7   10     -1.15      0.00
    5    7   10     13.20      0.00
    6    7   10      4.01      0.00
    7    7   10     11.70      0.00
    0    8   10      1.79      0.00
    1    8   10     -6.76      0.00
    2    8   10     -2.15      0.00
    3    8   10      4.92      0.00
    4    8   10     -0.83      0.00
    5    8   10     -3.27      0.00
    6    8   10     13.98      0.00
    7    8   10     -6.57      0.00
    8    8   10      5.46      0.00
    1    9   10     -7.87      0.00
    2    9   10      9.71      0.00
    3    9   10     -4.06      0.00
    4    9   10     11.22      0.00
    5    9   10     13.12      0.00
    6    9   10      1.67      0.00
    7    9   10     -0.98      0.00
    8    9   10    -15.63      0.00
    9    9   10      3.19      0.00
    0   10   10     -5.85      0.00
    1   10   10     -1.24      0.00
    2   10   10     -0.68      0.00
    3   10   10      0.32      0.00
    4   10   10     -4.57      0.00
    5   10   10     -8.02      0.00
    6   10   10    -12.83      0.00
    7   10   10      0.71      0.00
    8   10   10      3.03      0.00
    1   11   10     11.14      0.00
    2   11   10    -10.53      0.00
    3   11   10     -1.73      0.00
    4   11   10      7.07      0.00
    5   11   10     -7.58      0.00
    6   11   10    -14.26      0.00
    7   11   10      1.62      0.00
    8   11   10     -7.97      0.00
    0   12   10     15.13      0.00
    1   12   10      7.33      0.00
    2   12   10     -5.03      0.00
    3   12   10     -3.43      0.00
    4   12   10     13.10      0.00
    5   12   10      1.38      0.00
    6   12   10     -7.34      0.00
    7   12   10      6.98      0.00
    9   12   10    -13.01      0.00
    1   13   10    -11.22      0.00
    2   13   10     11.30      0.00
    3   13   10     10.41      0.00
    4   13   10     -8.61      0.00
    5   13   10      1.41      0.00
    6   13   10     -0.70      0.00
    7   13   10      7.48      0.00
    0   14   10      0.62      0.00
    1   14   10      2.64      0.00
    2   14   10    -11.64      0.00
    3   14   10      0.80      0.00
    4   14   10      1.05      0.00
    5   14   10    -22.43      0.00
    6   14   10     10.30      0.00
    7   14   10    -12.40      0.00
    1   15   10     -8.94      0.00
    2   15   10     -9.26      0.00
    3   15   10     -6.92      0.00
    4   15   10     11.27      0.00
    5   15   10     -2.58      0.00
    6   15   10      6.82      0.00
    7   15   10     -8.44      0.00
    0   16   10     33.26      0.00
    1   16   10     16.94      0.00
    2   16   10    -12.23      0.00
    3   16   10     -6.46      0.00
    4   16   10     17.14      0.00
    5   16   10     25.58      0.00
    6   16   10    -19.11      0.00
    7   16   10     -1.09      0.00
    1   17   10     -0.89      0.00
    2   17   10    -12.38      0.00
    3   17   10     13.86      0.00
    4   17   10     -4.18      0.00
    5   17   10      3.08      0.00
    6   17   10      4.95      0.00
    7   17   10     -3.80      0.00
    0   18   10    -20.58      0.00
    1   18   10     19.87      0.00
    2   18   10     72.55      0.00
    3   18   10    -17.93      0.00
    4   18   10     -6.14      0.00
    5   18   10      8.31      0.00
    6   18   10      4.95      0.00
    7   18   10     -1.08      0.00
    1   19   10     -4.86      0.00
    2   19   10     -5.40      0.00
    3   19   10     15.96      0.00
    4   19   10     16.83      0.00
    5   19   10     -0.78      0.00
    0   20   10    -19.35      0.00
    1   20   10     -6.20      0.00
    0    1   11      8.58      0.00
    1    2   11     50.09      0.00
    0    3   11    -30.70      0.00
    1    3   11      5.01      0.00
    2    3   11      3.85      0.00
    1    4   11     -4.07      0.00
    2    4   11      4.52      0.00
    3    4   11      9.15      0.00
    0    5   11    -11.62      0.00
    1    5   11     -2.14      0.00
    2    5   11     38.48      0.00
    3    5   11     12.13      0.00
    4    5   11     -7.54      0.00
    1    6   11      4.38      0.00
    2    6   11     -0.19      0.00
    3    6   11     -4.45      0.00
    4    6   11     -9.11      0.00
    5    6   11     -2.74      0.00
    0    7   11     -7.30      0.00
    1    7   11     -4.41      0.00
    2    7   11     -4.46      0.00
    3    7   11     -7.89      0.00
    4    7   11      7.81      0.00
    5    7   11     -9.80      0.00
    6    7   11    -10.26      0.00
    1    8   11      2.32      0.00
    2    8   11     -1.47      0.00
    3    8   11     10.84      0.00
    4    8   11      9.02      0.00
    5    8   11      5.94      0.00
    6    8   11     -7.05      0.00
    7    8   11     13.49      0.00
    0    9   11      8.19      0.00
    1    9   11     -0.40      0.00
    2    9   11     -1.15      0.00
    3    9   11      1.39      0.00
    4    9   11     -2.64      0.00
    5    9   11      0.89      0.00
    6    9   11      5.17      0.00
    7    9   11     -4.41      0.00
    8    9   11      8.98      0.00
    1   10   11     16.06      0.00
    2   10   11    -21.45      0.00
    3   10   11      0.37      0.00
    4   10   11     -3.91      0.00
    5   10   11      6.12      0.00
    6   10   11    -16.39      0.00
    7   10   11    -13.88      0.00
    8   10   11     -2.31      0.00
    9   10   11     -0.74      0.00
    0   11   11      1.58      0.00
    1   11   11      6.67      0.00
    2   11   11     -4.58      0.00
    3   11   11     13.68      0.00
    4   11   11     11.85      0.00
    5   11   11      4.07      0.00
    6   11   11      1.61      0.00
    7   11   11      3.80      0.00
    9   11   11      0.63      0.00
   10   11   11     26.31      0.00
    1   12   11     11.31      0.00
    2   12   11     -0.04      0.00
    3   12   11     -9.73      0.00
    4   12   11     -4.58      0.00
    5   12   11     21.56      0.00
    6   12   11     -3.47      0.00
    7   12   11     -2.48      0.00
    8   12   11    -12.77      0.00
    9   12   11     -0.87      0.00
   10   12   11     -9.16      0.00
    0   13   11     -2.46      0.00
    1   13   11     16.34      0.00
    2   13   11     -0.02      0.00
    3   13   11    -31.38      0.00
    4   13   11      4.90      0.00
    5   13   11     11.42      0.00
    6   13   11     -4.96      0.00
    7   13   11     -4.00      0.00
    8   13   11     -0.87      0.00
    9   13   11    -54.42      0.00
   10   13   11      4.70      0.00
    1   14   11     -0.28      0.00
    2   14   11    -10.06      0.00
    3   14   11      2.30      0.00
    4   14   11      1.21      0.00
    5   14   11     12.03      0.00
    6   14   11     -7.47      0.00
    7   14   11     -5.16      0.00
    8   14   11    -18.52      0.00
    0   15   11     -3.71      0.00
    1   15   11      2.66      0.00
    2   15   11      8.36      0.00
    3   15   11      7.57      0.00
    4   15   11     -8.70      0.00
    5   15   11     -8.76      0.00
    6   15   11     10.96      0.00
    7   15   11      4.69      0.00
    8   15   11     -4.32      0.00
    1   16   11    -10.65      0.00
    2   16   11     -1.04      0.00
    3   16   11     -5.02      0.00
    4   16   11      3.43      0.00
    5   16   11    -16.67      0.00
    6   16   11     -6.85      0.00
    7   16   11     13.62      0.00
    0   17   11     -6.38      0.00
    1   17   11     -2.20      0.00
    2   17   11     17.85      0.00
    3   17   11      4.70      0.00
    4   17   11      2.27      0.00
    5   17   11     -0.78      0.00
    6   17   11     -6.44      0.00
    7   17   11      3.03      0.00
    1   18   11    -14.45      0.00
    2   18   11    -12.80      0.00
    3   18   11    -29.98      0.00
    4   18   11     -6.32      0.00
    5   18   11      9.58      0.00
    6   18   11     15.45      0.00
    7   18   11      4.92      0.00
    0   19   11     14.80      0.00
    1   19   11      1.65      0.00
    2   19   11     -7.59      0.00
    3   19   11     -1.95      0.00
    4   19   11     15.26      0.00
    5   19   11     22.47      0.00
    0    0   12     44.57      0.00
    1    1   12    -26.42      0.00
    0    2   12      2.13      0.00
    1    2   12     13.87      0.00
    2    2   12      7.71      0.00
    1    3   12     -7.04      0.00
    2    3   12      2.77      0.00
    3    3   12    -21.17      0.00
    0    4   12      9.19      0.00
    1    4   12      2.09      0.00
    2    4   12     -4.14      0.00
    3    4   12    -18.94      0.00
    4    4   12      5.93      0.00
    1    5   12    -15.79      0.00
    2    5   12      6.59      0.00
    3    5   12     -0.07      0.00
    4    5   12     -7.11      0.00
    5    5   12      3.14      0.00
    0    6   12     -4.78      0.00
    1    6   12     11.88      0.00
    2    6   12      4.56      0.00
    3    6   12      3.29      0.00
    4    6   12      2.59      0.00
    5    6   12      0.13      0.00
    6    6   12      5.26      0.00
    1    7   12      2.24      0.00
    2    7   12     -6.86      0.00
    3    7   12      4.66      0.00
    4    7   12      5.65      0.00
    5    7   12     -3.10      0.00
    6    7   12      5.27      0.00
    7    7   12      5.98      0.00
    0    8   12      5.95      0.00
    1    8   12     -7.33      0.00
    2    8   12     -0.30      0.00
    3    8   12     12.11      0.00
    4    8   12      1.86      0.00
    5    8   12     -1.58      0.00
    6    8   12     -0.14      0.00
    7    8   12     -4.65      0.00
    8    8   12     -5.37      0.00
    1    9   12     -5.45      0.00
    2    9   12      5.29      0.00
    3    9   12      2.97      0.00
    4    9   12      9.14      0.00
    5    9   12     -2.97      0.00
    6    9   12     -6.98      0.00
    7    9   12     -2.77      0.00
    8    9   12    -14.62      0.00
    9    9   12    -12.76      0.00
    0   10   12      3.66      0.00
    1   10   12     15.47      0.00
    2   10   12     -3.68      0.00
    3   10   12     -5.05      0.00
    4   10   12     -0.63      0.00
    5   10   12      6.97      0.00
    6   10   12     -6.83      0.00
    7   10   12     12.68      0.00
    8   10   12      1.77      0.00
    9   10   12    -13.93      0.00
   10   10   12     15.00      0.00
    1   11   12      4.22      0.00
    2   11   12    -13.06      0.00
    3   11   12     -0.08      0.00
    4   11   12    -14.25      0.00
    5   11   12     -0.04      0.00
    6   11   12      7.39      0.00
    7   11   12     10.17      0.00
    8   11   12     48.66      0.00
    9   11   12     -7.17      0.00
   10   11   12      1.53      0.00
    0   12   12      7.89      0.00
    1   12   12    -19.35      0.00
    2   12   12      2.37      0.00
    3   12   12     -1.01      0.00
    4   12   12     -1.40      0.00
    5   12   12    -24.29      0.00
    6   12   12     -0.26      0.00
    7   12   12    -10.84      0.00
    8   12   12      8.09      0.00
    9   12   12     16.96      0.00
   10   12   12    -21.70      0.00
    1   13   12     -5.44      0.00
    2   13   12     -5.80      0.00
    3   13   12      0.89      0.00
    4   13   12      1.13      0.00
    5   13   12     -5.67      0.00
    6   13   12     10.36      0.00
    7   13   12    -22.44      0.00
    8   13   12      1.15      0.00
    9   13   12     -2.20      0.00
   10   13   12      3.40      0.00
    0   14   12     15.35      0.00
    1   14   12     13.84      0.00
    2   14   12      2.02      0.00
    3   14   12      8.89      0.00
    4   14   12    -11.14      0.00
    5   14   12     10.14      0.00
    6   14   12     -0.91      0.00
    7   14   12    -19.16      0.00
    8   14   12     -3.90      0.00
    1   15   12     10.03      0.00
    2   15   12     -0.28      0.00
    3   15   12      8.00      0.00
    4   15   12    -21.13      0.00
    5   15   12     -5.20      0.00
    6   15   12      8.78      0.00
    7   15   12     15.60      0.00
    8   15   12      5.73      0.00
    0   16   12     -8.20      0.00
    1   16   12     15.47      0.00
    2   16   12    -13.17      0.00
    3   16   12     10.85      0.00
    4   16   12     -7.29      0.00
    5   16   12    -13.16      0.00
    6   16   12     -4.48      0.00
    7   16   12     -1.70      0.00
    8   16   12     -3.86      0.00
    1   17   12     -3.25      0.00
    2   17   12     13.07      0.00
    3   17   12     -5.48      0.00
    4   17   12     -8.09      0.00
    5   17   12     35.89      0.00
    6   17   12      4.65      0.00
    7   17   12    -25.79      0.00
    8   17   12     14.66      0.00
    0   18   12      7.81      0.00
    1   18   12     -6.25      0.00
    2   18   12     21.61      0.00
    3   18   12     20.84      0.00
    4   18   12    -12.32      0.00
    5   18   12     -8.80      0.00
    6   18   12    -11.57      0.00
    7   18   12      4.56      0.00
    1   19   12     -0.17      0.00
    2   19   12      1.22      0.00
    3   19   12     -3.14      0.00
    4   19   12     -3.93      0.00
    0    1   13     -8.79      0.00
    1    2   13    -14.60      0.00
    0    3   13      3.67      0.00
    1    3   13    -12.40      0.00
    2    3   13     -7.25      0.00
    1    4   13      7.78      0.00
    2    4   13     15.87      0.00
    3    4   13     -5.51      0.00
    0    5   13     23.14      0.00
    1    5   13     -0.60      0.00
    2    5   13      0.34      0.00
    3    5   13      5.43      0.00
    4    5   13      1.92      0.00
    1    6   13    -12.49      0.00
    2    6   13      5.56      0.00
    3    6   13      2.57      0.00
    4    6   13    -14.63      0.00
    5    6   13     -2.19      0.00
    0    7   13     -2.49      0.00
    1    7   13     -3.55      0.00
    2    7   13      5.11      0.00
    3    7   13     -1.15      0.00
    4    7   13     -6.05      0.00
    5    7   13     -0.79      0.00
    6    7   13     -4.08      0.00
    1    8   13     -0.03      0.00
    2    8   13      3.86      0.00
    3    8   13      4.74      0.00
    4    8   13      7.60      0.00
    5    8   13      2.71      0.00
    6    8   13      1.51      0.00
    7    8   13     -7.22      0.00
    0    9   13     -9.38      0.00
    1    9   13      3.25      0.00
    2    9   13     -8.20      0.00
    3    9   13      0.11      0.00
    4    9   13      0.66      0.00
    5    9   13      4.96      0.00
    6    9   13    -11.45      0.00
    7    9   13     19.30      0.00
    8    9   13    -11.08      0.00
    1   10   13     -7.52      0.00
    2   10   13      0.02      0.00
    3   10   13     11.74      0.00
    4   10   13     -2.43      0.00
    5   10   13      1.25      0.00
    6   10   13     -8.18      0.00
    7   10   13      4.90      0.00
    8   10   13    -13.12      0.00
    9   10   13     -7.87      0.00
    0   11   13    -15.81      0.00
    1   11   13     16.02      0.00
    2   11   13      4.12      0.00
    3   11   13     -6.42      0.00
    4   11   13     -3.42      0.00
    5   11   13     -0.88      0.00
    6   11   13     -6.00      0.00
    7   11   13     10.95      0.00
    8   11   13     -0.99      0.00
    9   11   13    -28.65      0.00
   10   11   13     -5.55      0.00
    1   12   13     -3.92      0.00
    2   12   13      0.71      0.00
    3   12   13      0.47      0.00
    4   12   13     35.19      0.00
    5   12   13     -0.71      0.00
    7   12   13      4.19      0.00
    8   12   13     15.70      0.00
    9   12   13      1.63      0.00
   10   12   13    -20.03      0.00
    0   13   13     -5.84      0.00
    1   13   13      1.72      0.00
    2   13   13     -3.78      0.00
    3   13   13      0.42      0.00
    4   13   13     22.10      0.00
    5   13   13     21.74      0.00
    6   13   13     -1.35      0.00
    7   13   13      5.02      0.00
    8   13   13     20.83      0.00
    9   13   13      8.63      0.00
   10   13   13     -2.75      0.00
    1   14   13      1.20      0.00
    2   14   13      0.99      0.00
    3   14   13      9.39      0.00
    4   14   13     15.25      0.00
    5   14   13      2.40      0.00
    6   14   13    -26.20      0.00
    7   14   13     -5.39      0.00
    8   14   13    -21.17      0.00
    0   15   13      6.57      0.00
    1   15   13     -5.08      0.00
    2   15   13      8.62      0.00
    3   15   13    -11.82      0.00
    4   15   13     -5.92      0.00
    5   15   13      9.01      0.00
    6   15   13     -3.48      0.00
    7   15   13     12.87      0.00
    8   15   13    -16.32      0.00
    1   16   13     14.51      0.00
    2   16   13    -18.29      0.00
    3   16   13     -6.51      0.00
    4   16   13     -8.24      0.00
    5   16   13     -5.66      0.00
    6   16   13     15.86      0.00
    7   16   13     16.28      0.00
    8   16   13     -1.58      0.00
    0   17   13      1.89      0.00
    1   17   13     -4.92      0.00
    2   17   13      1.38      0.00
    3   17   13     -7.11      0.00
    4   17   13     47.02      0.00
    5   17   13      5.00      0.00
    6   17   13      7.16      0.00
    7   17   13     -1.77      0.00
    8   17   13     14.27      0.00
    1   18   13     -2.64      0.00
    2   18   13     -3.29      0.00
    3   18   13     -2.95      0.00
    4   18   13     -6.07      0.00
    5   18   13      6.21      0.00
    6   18   13    -18.13      0.00
    7   18   13     14.16      0.00
    8   18   13     16.29      0.00
    0   19   13    -10.78      0.00
    1   19   13     21.94      0.00
    2   19   13     -3.97      0.00
    3   19   13     10.49      0.00
    0    0   14    -17.02      0.00
    1    1   14      4.77      0.00
    0    2   14    -22.28      0.00
    1    2   14      5.36      0.00
    2    2   14     -3.15      0.00
    1    3   14    -15.59      0.00
    2    3   14     -2.81      0.00
    3    3   14     -2.14      0.00
    0    4   14      0.16      0.00
    1    4   14      5.44      0.00
    2    4   14     -3.76      0.00
    3    4   14     -9.90      0.00
    4    4   14      1.48      0.00
    1    5   14      5.24      0.00
    2    5   14     -7.74      0.00
    3    5   14     -4.16      0.00
    4    5   14      3.58      0.00
    5    5   14     -1.33      0.00
    0    6   14    -10.72      0.00
    1    6   14      8.30      0.00
    2    6   14     -8.41      0.00
    3    6   14     -0.23      0.00
    4    6   14     -1.17      0.00
    5    6   14      3.32      0.00
    6    6   14     12.12      0.00
    1    7   14      1.01      0.00
    2    7   14     -2.57      0.00
    3    7   14     -9.16      0.00
    4    7   14     -8.01      0.00
    5    7   14     -7.57      0.00
    6    7   14     -3.71      0.00
    7    7   14     -8.54      0.00
    0    8   14     -6.01      0.00
    1    8   14      2.12      0.00
    2    8   14     -4.31      0.00
    3    8   14     -2.06      0.00
    4    8   14      0.50      0.00
    5    8   14      0.43      0.00
    6    8   14    -11.33      0.00
    7    8   14     19.60      0.00
    1    9   14      8.17      0.00
    2    9   14      3.85      0.00
    3    9   14      1.53      0.00
    4    9   14     -3.55      0.00
    5    9   14     -6.51      0.00
    6    9   14      7.49      0.00
    7    9   14      0.02      0.00
    8    9   14      8.39      0.00
    9    9   14     -4.67      0.00
    0   10   14    -20.94      0.00
    1   10   14     -3.97      0.00
    2   10   14      7.23      0.00
    3   10   14    -10.38      0.00
    4   10   14     -3.85      0.00
    5   10   14      2.69      0.00
    6   10   14    -13.78      0.00
    7   10   14    -14.09      0.00
    8   10   14     -3.66      0.00
    9   10   14     -8.56      0.00
   10   10   14     -9.45      0.00
    1   11   14      2.79      0.00
    2   11   14     -0.01      0.00
    3   11   14     -9.18      0.00
    4   11   14      7.41      0.00
    5   11   14    -13.58      0.00
    6   11   14     -5.81      0.00
    7   11   14     -0.14      0.00
    8   11   14      0.37      0.00
    9   11   14     -0.32      0.00
   10   11   14      8.27      0.00
    0   12   14    -17.70      0.00
    1   12   14     -9.32      0.00
    2   12   14    -10.79      0.00
    3   12   14     20.35      0.00
    4   12   14    -15.06      0.00
    6   12   14     -1.62      0.00
    7   12   14    -22.50      0.00
    8   12   14     19.69      0.00
    9   12   14     36.29      0.00
   10   12   14      0.58      0.00
   11   12   14      5.17      0.00
    1   13   14     -5.09      0.00
    2   13   14    -10.17      0.00
    3   13   14     -1.24      0.00
    4   13   14      5.83      0.00
    5   13   14      7.18      0.00
    6   13   14     -3.41      0.00
    7   13   14    -19.60      0.00
    8   13   14     11.65      0.00
    9   13   14      9.91      0.00
   10   13   14    -30.82      0.00
   11   13   14    -23.33      0.00
    0   14   14      8.93      0.00
    1   14   14     10.13      0.00
    2   14   14     -1.98      0.00
    3   14   14      6.85      0.00
    4   14   14     -6.72      0.00
    5   14   14      2.61      0.00
    6   14   14     27.54      0.00
    7   14   14      9.09      0.00
    1   15   14     11.86      0.00
    2   15   14      0.88      0.00
    3   15   14    -14.79      0.00
    4   15   14     -2.75      0.00
    5   15   14      4.74      0.00
    6   15   14      5.82      0.00
    7   15   14      7.86      0.00
    8   15   14      5.29      0.00
    0   16   14      7.94      0.00
    1   16   14     -9.82      0.00
    2   16   14    -17.06      0.00
    3   16   14     20.86      0.00
    4   16   14    -17.51      0.00
    5   16   14      5.92      0.00
    6   16   14     -1.48      0.00
    7   16   14      7.42      0.00
    8   16   14     12.73      0.00
    1   17   14    -16.00      0.00
    2   17   14    -12.59      0.00
    3   17   14     24.94      0.00
    4   17   14     -0.79      0.00
    5   17   14    -10.83      0.00
    6   17   14      4.65      0.00
    7   17   14     -8.21      0.00
    8   17   14     -3.64      0.00
    0   18   14     -6.48      0.00
    1   18   14     17.79      0.00
    2   18   14    -14.79      0.00
    3   18   14     -8.51      0.00
    4   18   14    -15.71      0.00
    5   18   14      3.89      0.00
    6   18   14     -9.46      0.00
    7   18   14    -10.15      0.00
    8   18   14     17.15      0.00
    0    1   15     -4.47      0.00
    1    2   15     -1.78      0.00
    0    3   15    -16.99      0.00
    1    3   15     -4.44      0.00
    2    3   15     -1.35      0.00
    1    4   15     -4.55      0.00
    2    4   15    -12.21      0.00
    3    4   15     -4.15      0.00
    0    5   15     18.36      0.00
    1    5   15      4.15      0.00
    2    5   15    -13.52      0.00
    3    5   15     -6.53      0.00
    4    5   15      2.01      0.00
    1    6   15    -12.59      0.00
    2    6   15      3.66      0.00
    3    6   15     -4.57      0.00
    4    6   15     -9.52      0.00
    5    6   15      9.38      0.00
    0    7   15      9.58      0.00
    1    7   15      1.73      0.00
    2    7   15      3.72      0.00
    3    7   15     -5.30      0.00
    4    7   15     -3.54      0.00
    5    7   15     -4.81      0.00
    6    7   15      7.66      0.00
    1    8   15     -0.61      0.00
    2    8   15      4.51      0.00
    3    8   15      2.93      0.00
    4    8   15      1.68      0.00
    5    8   15      0.63      0.00
    6    8   15      2.35      0.00
    0    9   15     -8.39      0.00
    1    9   15      3.19      0.00
    2    9   15      8.76      0.00
    3    9   15     -6.95      0.00
    4    9   15     -1.16      0.00
    5    9   15      4.59      0.00
    6    9   15      1.28      0.00
    7    9   15    -16.85      0.00
    8    9   15     -0.88      0.00
    1   10   15     12.84      0.00
    2   10   15      7.94      0.00
    3   10   15     11.95      0.00
    4   10   15     10.28      0.00
    5   10   15     -9.40      0.00
    6   10   15    -13.08      0.00
    7   10   15      7.87      0.00
    8   10   15     20.66      0.00
    9   10   15     -0.55      0.00
    0   11   15     -1.21      0.00
    1   11   15     11.57      0.00
    2   11   15     -3.84      0.00
    3   11   15     -8.98      0.00
    4   11   15     -5.57      0.00
    5   11   15    -12.97      0.00
    6   11   15     28.00      0.00
    7   11   15     10.88      0.00
    8   11   15      2.06      0.00
    9   11   15      4.15      0.00
   10   11   15     -4.33      0.00
    1   12   15      9.35      0.00
    2   12   15    -25.71      0.00
    4   12   15      7.68      0.00
    5   12   15     15.70      0.00
    6   12   15     15.39      0.00
    7   12   15     -9.22      0.00
    8   12   15     -3.80      0.00
    9   12   15     -8.52      0.00
   10   12   15     -9.80      0.00
   11   12   15    -20.75      0.00
    0   13   15     -1.49      0.00
    1   13   15    -24.73      0.00
    2   13   15     -3.12      0.00
    3   13   15     15.32      0.00
    4   13   15      1.97      0.00
    5   13   15    -12.37      0.00
    6   13   15    -22.83      0.00
    7   13   15     13.10      0.00
    8   13   15     -0.81      0.00
    9   13   15    -17.24      0.00
   10   13   15    -16.95      0.00
   11   13   15      4.13      0.00
    1   14   15    -11.44      0.00
    2   14   15      7.29      0.00
    3   14   15     12.80      0.00
    4   14   15    -11.53      0.00
    5   14   15     -7.31      0.00
    6   14   15     15.71      0.00
    7   14   15      2.86      0.00
   10   14   15      7.52      0.00
    0   15   15      3.35      0.00
    1   15   15     15.60      0.00
    2   15   15    -18.72      0.00
    3   15   15     10.53      0.00
    4   15   15     -3.58      0.00
    5   15   15    -12.67      0.00
    6   15   15     -3.11      0.00
    7   15   15    -11.35      0.00
    1   16   15     21.04      0.00
    2   16   15     -1.39      0.00
    3   16   15    -11.31      0.00
    4   16   15    -20.50      0.00
    5   16   15     -6.73      0.00
    6   16   15      3.71      0.00
    7   16   15     14.46      0.00
    0   17   15     15.25      0.00
    1   17   15    -17.22      0.00
    2   17   15    -23.22      0.00
    3   17   15     -5.02      0.00
    4   17   15     15.05      0.00
    5   17   15     -4.18      0.00
    6   17   15      2.01      0.00
    7   17   15      8.71      0.00
    1   18   15      0.08      0.00
    2   18   15     18.52      0.00
    3   18   15     18.49      0.00
    4   18   15     -6.43      0.00
    5   18   15    -13.92      0.00
    6   18   15      8.42      0.00
    7   18   15     -6.32      0.00
    0    0   16     28.81      0.00
    1    1   16     17.62      0.00
    0    2   16     -0.97      0.00
    1    2   16     -1.43      0.00
    2    2   16     39.64      0.00
    1    3   16     15.21      0.00
    2    3   16    -12.05      0.00
    3    3   16     11.83      0.00
    0    4   16      7.92      0.00
    1    4   16    -12.60      0.00
    2    4   16     -6.07      0.00
    3    4   16      7.14      0.00
    4    4   16     10.55      0.00
    1    5   16      1.01      0.00
    2    5   16      7.50      0.00
    3    5   16     -9.65      0.00
    4    5   16      0.94      0.00
    5    5   16      3.55      0.00
    0    6   16     -3.06      0.00
    1    6   16      1.33      0.00
    2    6   16     -3.04      0.00
    3    6   16     -6.62      0.00
    4    6   16     -3.85      0.00
    5    6   16     -1.85      0.00
    6    6   16     -0.20      0.00
    1    7   16      3.35      0.00
    2    7   16      6.65      0.00
    3    7   16      7.41      0.00
    4    7   16      5.31      0.00
    5    7   16      0.11      0.00
    6    7   16     -3.11      0.00
    0    8   16     -4.62      0.00
    1    8   16     -3.10      0.00
    2    8   16      4.62      0.00
    3    8   16      3.81      0.00
    4    8   16     -4.82      0.00
    5    8   16      6.86      0.00
    6    8   16     -5.12      0.00
    7    8   16      5.22      0.00
    8    8   16    -14.85      0.00
    1    9   16     -0.99      0.00
    2    9   16      3.74      0.00
    3    9   16      4.06      0.00
    4    9   16     -7.99      0.00
    5    9   16     -3.76      0.00
    6    9   16     -1.60      0.00
    7    9   16    -19.15      0.00
    8    9   16     -5.33      0.00
    9    9   16     -4.01      0.00
    0   10   16    -13.80      0.00
    1   10   16    -28.25      0.00
    2   10   16     -4.59      0.00
    3   10   16    -14.70      0.00
    4   10   16      8.26      0.00
    5   10   16     -5.41      0.00
    6   10   16      6.93      0.00
    7   10   16      3.63      0.00
    8   10   16     -3.33      0.00
    9   10   16      1.48      0.00
   10   10   16     16.72      0.00
    1   11   16      6.63      0.00
    2   11   16     -6.40      0.00
    3   11   16     12.79      0.00
    4   11   16    -13.24      0.00
    5   11   16      3.11      0.00
    6   11   16     -5.62      0.00
    7   11   16     25.01      0.00
    8   11   16     -6.12      0.00
    9   11   16     10.09      0.00
   10   11   16     -7.66      0.00
   11   11   16    -16.09      0.00
    0   12   16     11.46      0.00
    1   12   16     22.73      0.00
    2   12   16      4.11      0.00
    3   12   16      4.37      0.00
    4   12   16      0.18      0.00
    5   12   16     -5.81      0.00
    6   12   16     24.28      0.00
    7   12   16      5.86      0.00
    8   12   16    -10.36      0.00
    9   12   16      2.96      0.00
   10   12   16      5.01      0.00
   11   12   16      3.20      0.00
    1   13   16     11.66      0.00
    2   13   16     12.98      0.00
    3   13   16      3.53      0.00
    4   13   16     -0.33      0.00
    5   13   16     -1.89      0.00
    6   13   16    -49.95      0.00
    7   13   16     22.92      0.00
    8   13   16      3.57      0.00
    9   13   16     26.63      0.00
   10   13   16      1.47      0.00
   11   13   16      8.13      0.00
    0   14   16     -1.35      0.00
    1   14   16     -9.27      0.00
    2   14   16     -1.52      0.00
    3   14   16    -15.97      0.00
    4   14   16     20.23      0.00
    5   14   16     16.63      0.00
    7   14   16      7.96      0.00
    8   14   16      8.36      0.00
    9   14   16    -67.97      0.00
   10   14   16     -4.99      0.00
   11   14   16     -2.33      0.00
    1   15   16     -6.67      0.00
    2   15   16     -4.73      0.00
    3   15   16      0.11      0.00
    4   15   16    -15.16      0.00
    5   15   16     -4.35      0.00
    6   15   16    -33.01      0.00
    0   16   16    -15.80      0.00
    1   16   16     19.03      0.00
    2   16   16     -7.42      0.00
    3   16   16     -5.87      0.00
    4   16   16    -17.10      0.00
    5   16   16      0.84      0.00
    6   16   16      2.96      0.00
    1   17   16     -8.85      0.00
    2   17   16      8.38      0.00
    3   17   16    -16.29      0.00
    4   17   16      3.71      0.00
    5   17   16     -3.08      0.00
    6   17   16     25.20      0.00
    0   18   16    -10.51      0.00
    1   18   16     -8.14      0.00
    2   18   16     -8.40      0.00
    3   18   16     -4.39      0.00
    4   18   16     27.53      0.00
    5   18   16     -3.15      0.00
    6   18   16     -2.52      0.00
    0    1   17     10.04      0.00
    1    2   17      0.52      0.00
    0    3   17     -5.88      0.00
    1    3   17     -4.37      0.00
    2    3   17      8.36      0.00
    1    4   17     16.73      0.00
    2    4   17      0.74      0.00
    3    4   17     11.73      0.00
    0    5   17     17.48      0.00
    1    5   17      7.08      0.00
    2    5   17     -4.63      0.00
    3    5   17      3.55      0.00
    4    5   17      8.58      0.00
    1    6   17      6.40      0.00
    2    6   17      3.94      0.00
    3    6   17     -8.60      0.00
    4    6   17     14.53      0.00
    5    6   17     -6.04      0.00
    0    7   17     28.48      0.00
    1    7   17      0.23      0.00
    2    7   17    -13.82      0.00
    3    7   17     -6.35      0.00
    4    7   17      5.89      0.00
    5    7   17     20.31      0.00
    1    8   17     -1.86      0.00
    2    8   17     13.33      0.00
    3    8   17     -6.70      0.00
    4    8   17    -10.14      0.00
    6    8   17     -7.91      0.00
    7    8   17     -9.41      0.00
    0    9   17     -1.91      0.00
    1    9   17     -2.36      0.00
    2    9   17     10.27      0.00
    3    9   17     -4.67      0.00
    4    9   17     -9.05      0.00
    5    9   17      5.14      0.00
    6    9   17      6.40      0.00
    7    9   17      6.12      0.00
    8    9   17     16.70      0.00
    1   10   17      8.34      0.00
    2   10   17    -12.00      0.00
    3   10   17     -3.47      0.00
    4   10   17      5.77      0.00
    5   10   17    -10.28      0.00
    6   10   17    -10.53      0.00
    7   10   17    -10.09      0.00
    8   10   17     -2.55      0.00
    9   10   17    -11.56      0.00
    0   11   17    -43.95      0.00
    1   11   17     25.56      0.00
    2   11   17      8.31      0.00
    3   11   17     -2.71      0.00
    4   11   17     -5.11      0.00
    5   11   17      6.41      0.00
    6   11   17     13.73      0.00
    7   11   17    -12.63      0.00
    8   11   17    -14.01      0.00
    9   11   17     -7.66      0.00
   10   11   17     12.30      0.00
    1   12   17     -0.29      0.00
    2   12   17    -15.13      0.00
    3   12   17    -11.46      0.00
    4   12   17      2.27      0.00
    5   12   17      4.08      0.00
    6   12   17     29.09      0.00
    7   12   17    -46.01      0.00
    8   12   17      6.78      0.00
    9   12   17     -6.56      0.00
   10   12   17     16.16      0.00
   11   12   17     34.99      0.00
    0   13   17    -13.83      0.00
    1   13   17     -8.76      0.00
    2   13   17     11.25      0.00
    3   13   17     19.81      0.00
    4   13   17      6.02      0.00
    5   13   17    -77.18      0.00
    6   13   17      5.42      0.00
    7   13   17     -2.97      0.00
    8   13   17    -15.44      0.00
    9   13   17     -8.38      0.00
   10   13   17     -6.35      0.00
   11   13   17     14.80      0.00
    1   14   17     15.36      0.00
    2   14   17      5.50      0.00
    3   14   17     -8.93      0.00
    4   14   17     -4.83      0.00
    5   14   17      9.62      0.00
    6   14   17     13.86      0.00
    7   14   17      7.64      0.00
    8   14   17     15.36      0.00
    9   14   17     -5.89      0.00
   10   14   17      4.06      0.00
   11   14   17      0.35      0.00
    0   15   17      4.57      0.00
    1   15   17    -19.77      0.00
    2   15   17    -13.65      0.00
    3   15   17      9.27      0.00
    4   15   17     -4.66      0.00
    1   16   17     -8.75      0.00
    2   16   17    -10.04      0.00
    3   16   17     98.84      0.00
    4   16   17     -5.22      0.00
    5   16   17     -6.55      0.00
    0   17   17     17.74      0.00
    1   17   17     -2.87      0.00
    2   17   17     -4.98      0.00
    3   17   17     -5.09      0.00
    4   17   17      7.41      0.00
    5   17   17    -13.87      0.00
    1   18   17      3.94      0.00
    2   18   17     -9.37      0.00
    3   18   17      4.27      0.00
    4   18   17     26.98      0.00
    5   18   17    -29.61      0.00
    1    1   18    -17.64      0.00
    0    2   18    -14.36      0.00
    1    2   18      8.33      0.00
    2    2   18     22.37      0.00
    1    3   18    -17.54      0.00
    2    3   18    -12.65      0.00
    3    3   18      1.18      0.00
    0    4   18      4.64      0.00
    1    4   18      4.00      0.00
    2    4   18    -11.04      0.00
    3    4   18      1.19      0.00
    4    4   18     14.85      0.00
    1    5   18      5.41      0.00
    2    5   18     -4.53      0.00
    3    5   18     15.04      0.00
    4    5   18     20.70      0.00
    5    5   18      6.17      0.00
    0    6   18    -24.99      0.00
    1    6   18    -12.05      0.00
    2    6   18     15.76      0.00
    3    6   18      1.01      0.00
    4    6   18      7.31      0.00
    5    6   18    -30.27      0.00
    1    7   18     -0.40      0.00
    2    7   18    -11.47      0.00
    3    7   18      5.77      0.00
    4    7   18     -2.63      0.00
    6    7   18      9.12      0.00
    7    7   18      0.60      0.00
    0    8   18      3.84      0.00
    1    8   18     14.75      0.00
    2    8   18     13.93      0.00
    3    8   18     -4.07      0.00
    4    8   18     -7.10      0.00
    5    8   18     42.34      0.00
    6    8   18     21.64      0.00
    7    8   18    -10.02      0.00
    8    8   18     15.85      0.00
    1    9   18    -14.43      0.00
    2    9   18      8.66      0.00
    3    9   18     -4.61      0.00
    4    9   18     11.76      0.00
    5    9   18     -3.82      0.00
    6    9   18    -11.40      0.00
    7    9   18     11.70      0.00
    8    9   18      7.28      0.00
    9    9   18    -10.82      0.00
    0   10   18     22.96      0.00
    1   10   18    -10.69      0.00
    2   10   18     -1.37      0.00
    3   10   18     28.36      0.00
    4   10   18    -10.66      0.00
    5   10   18     -4.34      0.00
    6   10   18      6.30      0.00
    7   10   18     -2.11      0.00
    8   10   18    -21.21      0.00
    9   10   18     13.10      0.00
   10   10   18     -0.87      0.00
    1   11   18      7.93      0.00
    2   11   18     17.05      0.00
    3   11   18     -5.57      0.00
    4   11   18     -2.10      0.00
    5   11   18      2.39      0.00
    6   11   18      7.17      0.00
    7   11   18      2.72      0.00
    8   11   18    -18.50      0.00
    9   11   18     11.27      0.00
   10   11   18     -9.44      0.00
   11   11   18     -8.79      0.00
    0   12   18     24.42      0.00
    1   12   18     -1.35      0.00
    2   12   18    -15.26      0.00
    3   12   18     -7.75      0.00
    4   12   18      1.60      0.00
    5   12   18     22.04      0.00
    6   12   18    -27.54      0.00
    7   12   18     -0.35      0.00
    8   12   18     -1.48      0.00
    9   12   18      9.78      0.00
   10   12   18     -5.19      0.00
   11   12   18    -19.02      0.00
   12   12   18    -18.11      0.00
    1   13   18    -17.90      0.00
    2   13   18     -1.99      0.00
    3   13   18      0.27      0.00
    4   13   18     17.52      0.00
    5   13   18     10.86      0.00
    6   13   18     -5.60      0.00
    7   13   18      2.11      0.00
    8   13   18     34.58      0.00
    9   13   18     -0.43      0.00
   10   13   18    -11.19      0.00
   11   13   18     -9.22      0.00
   12   13   18     19.74      0.00
    0   14   18     13.76      0.00
    1   14   18     17.53      0.00
    2   14   18      6.46      0.00
    3   14   18      7.04      0.00
    4   14   18     -6.29      0.00
    5   14   18      1.25      0.00
    6   14   18      9.11      0.00
    7   14   18     15.50      0.00
    8   14   18     12.92      0.00
    9   14   18    -17.38      0.00
   10   14   18      1.60      0.00
   11   14   18     -4.16      0.00
   12   14   18     -0.20      0.00
    1   15   18    -15.45      0.00
    2   15   18      1.78      0.00
    3   15   18     -4.17      0.00
    0   16   18     36.35      0.00
    1   16   18      5.38      0.00
    2   16   18     -3.11      0.00
    3   16   18     -1.80      0.00
    4   16   18     31.31      0.00
    1   17   18     -1.81      0.00
    2   17   18     14.26      0.00
    3   17   18    -15.15      0.00
    4   17   18      8.40      0.00
    0   18   18     13.48      0.00
    1   18   18    -10.51      0.00
    2   18   18      7.34      0.00
    3   18   18      3.63      0.00
    0    1   19     -5.56      0.00
    1    2   19     -2.67      0.00
    0    3   19    -13.36      0.00
    1    3   19     10.63      0.00
    2    3   19     -6.36      0.00
    1    4   19      1.94      0.00
    2    4   19     16.65      0.00
    3    4   19    -29.77      0.00
    0    5   19    -38.15      0.00
    1    5   19    -14.88      0.00
    2    5   19     -3.84      0.00
    3    5   19     -5.61      0.00
    4    5   19      0.47      0.00
    1    6   19      1.37      0.00
    2    6   19      1.92      0.00
    3    6   19     -0.26      0.00
    4    6   19     -8.16      0.00
    0    7   19     22.44      0.00
    1    7   19    -11.96      0.00
    2    7   19    -10.41      0.00
    3    7   19     -6.61      0.00
    4    7   19      3.83      0.00
    5    7   19      4.72      0.00
    6    7   19     20.32      0.00
    1    8   19      2.47      0.00
    2    8   19     -6.56      0.00
    3    8   19    -12.96      0.00
    4    8   19    -45.57      0.00
    5    8   19      5.05      0.00
    6    8   19    -12.14      0.00
    7    8   19     13.16      0.00
    0    9   19     -8.79      0.00
    1    9   19     -3.77      0.00
    2    9   19     -0.33      0.00
    3    9   19     -2.08      0.00
    4    9   19     23.07      0.00
    5    9   19     -1.87      0.00
    6    9   19     -3.54      0.00
    7    9   19      3.53      0.00
    8    9   19    -15.76      0.00
    1   10   19     14.97      0.00
    2   10   19     16.26      0.00
    3   10   19     -6.03      0.00
    4   10   19     -2.39      0.00
    5   10   19      1.48      0.00
    6   10   19     -3.41      0.00
    7   10   19     14.54      0.00
    8   10   19    -12.80      0.00
    9   10   19     -1.75      0.00
    0   11   19    -22.17      0.00
    1   11   19     11.13      0.00
    2   11   19     14.41      0.00
    3   11   19      3.77      0.00
    4   11   19     -5.49      0.00
    5   11   19     -1.75      0.00
    6   11   19     14.42      0.00
    7   11   19     11.65      0.00
    8   11   19     -5.33      0.00
    9   11   19    -12.59      0.00
   10   11   19    -21.44      0.00
    1   12   19     -2.38      0.00
    2   12   19     -1.13      0.00
    3   12   19     13.73      0.00
    4   12   19    -10.08      0.00
    5   12   19    -43.10      0.00
    6   12   19     10.75      0.00
    7   12   19      4.23      0.00
    8   12   19     -1.52      0.00
    9   12   19     -7.02      0.00
   10   12   19     42.20      0.00
   11   12   19     15.62      0.00
    0   13   19    -30.28      0.00
    1   13   19     20.53      0.00
    2   13   19      8.83      0.00
    3   13   19     -7.92      0.00
    4   13   19     -5.42      0.00
    5   13   19     -3.18      0.00
    6   13   19      0.92      0.00
    7   13   19     -4.84      0.00
    8   13   19     13.41      0.00
    9   13   19     -7.70      0.00
   10   13   19     -5.29      0.00
   11   13   19      5.59      0.00
   12   13   19     -2.92      0.00
    1   14   19      1.80      0.00
    2   14   19    -12.30      0.00
    3   14   19      1.56      0.00
    4   14   19     21.32      0.00
    5   14   19      2.48      0.00
    6   14   19     14.15      0.00
    7   14   19      7.38      0.00
    8   14   19     11.69      0.00
    9   14   19    -14.41      0.00
   10   14   19      7.53      0.00
   11   14   19    -13.30      0.00
    0   15   19      9.17      0.00
    1   15   19    -14.70      0.00
    2   15   19     12.29      0.00
    1   16   19     10.44      0.00
    2   16   19      4.15      0.00
    0   17   19      1.57      0.00
    1   17   19    -12.70      0.00
    2   17   19    -18.19      0.00
    1   18   19      6.29      0.00
    2   18   19     -6.46      0.00
    1    1   20     -4.17      0.00
    0    2   20    -20.89      0.00
    1    2   20      2.01      0.00
    2    2   20      2.50      0.00
    1    3   20     -0.17      0.00
    2    3   20    -15.48      0.00
    3    3   20     11.14      0.00
    0    4   20     16.16      0.00
    1    4   20     14.68      0.00
    2    4   20     -3.45      0.00
    3    4   20      6.13      0.00
    4    4   20     16.83      0.00
    1    5   20      4.96      0.00
    2    5   20      4.79      0.00
    3    5   20     -4.95      0.00
    4    5   20     11.27      0.00
    0    6   20     21.75      0.00
    1    6   20     -1.91      0.00
    2    6   20    -14.15      0.00
    3    6   20      1.76      0.00
    5    6   20     18.94      0.00
    6    6   20      0.42      0.00
    1    7   20    -11.41      0.00
    2    7   20     -4.87      0.00
    3    7   20      5.79      0.00
    4    7   20     23.11      0.00
    5    7   20     14.29      0.00
    6    7   20     19.96      0.00
    7    7   20   -164.09      0.00
    0    8   20    -16.08      0.00
    1    8   20     23.58      0.00
    2    8   20     20.01      0.00
    3    8   20     -6.87      0.00
    4    8   20      5.21      0.00
    5    8   20    -15.63      0.00
    6    8   20      1.28      0.00
    7    8   20      3.33      0.00
    8    8   20    -10.07      0.00
    1    9   20    -36.40      0.00
    2    9   20    -20.37      0.00
    3    9   20    -11.28      0.00
    4    9   20     -4.74      0.00
    5    9   20     -3.14      0.00
    6    9   20      7.13      0.00
    7    9   20      7.44      0.00
    8    9   20      1.74      0.00
    9    9   20     25.85      0.00
    0   10   20     18.54      0.00
    1   10   20    -32.34      0.00
    2   10   20     -4.28      0.00
    3   10   20      7.26      0.00
    4   10   20    -22.90      0.00
    5   10   20      9.05      0.00
    6   10   20      8.01      0.00
    7   10   20    -10.25      0.00
    8   10   20     -7.16      0.00
    9   10   20      2.15      0.00
   10   10   20     18.27      0.00
    1   11   20      4.27      0.00
    2   11   20     -5.95      0.00
    3   11   20     -3.79      0.00
    4   11   20     -4.75      0.00
    5   11   20     17.98      0.00
    6   11   20     43.13      0.00
    7   11   20     -1.97      0.00
    8   11   20     -2.15      0.00
    9   11   20      7.30      0.00
   10   11   20    -20.14      0.00
   11   11   20     -3.40      0.00
    0   12   20     13.07      0.00
    1   12   20     -1.15      0.00
    2   12   20      2.85      0.00
    3   12   20    -11.76      0.00
    4   12   20      2.94      0.00
    5   12   20     -0.76      0.00
    6   12   20     -6.62      0.00
    7   12   20      6.97      0.00
    8   12   20     16.47      0.00
    9   12   20    -11.85      0.00
   10   12   20      9.60      0.00
   11   12   20     -9.57      0.00
   12   12   20     -3.55      0.00
    1   13   20     27.05      0.00
    2   13   20     -4.39      0.00
    3   13   20    -11.51      0.00
    4   13   20     -4.52      0.00
    5   13   20      8.68      0.00
    6   13   20    -18.57      0.00
    7   13   20      5.40      0.00
    8   13   20     11.64      0.00
    9   13   20      9.47      0.00
   10   13   20     -9.48      0.00
   11   13   20     -1.01      0.00
    0   14   20     31.01      0.00
    1   14   20    -10.57      0.00
    2   14   20     13.65      0.00
    3   14   20    -25.41      0.00
    4   14   20    -18.28      0.00
    5   14   20     10.72      0.00
    6   14   20      5.39      0.00
    7   14   20    -23.56      0.00
    8   14   20    -16.12      0.00
    9   14   20     -5.13      0.00
   10   14   20      8.72      0.00
    1   15   20   -106.29      0.00
    0   16   20     42.89      0.00
    1   16   20      2.72      0.00
    1   17   20    -11.31      0.00
    0    1   21      0.20      0.00
    1    2   21      7.08      0.00
    0    3   21     -0.73      0.00
    1    3   21      3.34      0.00
    2    3   21     -0.49      0.00
    1    4   21     -3.76      0.00
    2    4   21      1.37      0.00
    3    4   21      5.78      0.00
    0    5   21     -4.33      0.00
    1    5   21      0.89      0.00
    2    5   21      9.32      0.00
    3    5   21      5.31      0.00
    1    6   21      3.72      0.00
    2    6   21    -18.87      0.00
    3    6   21    -11.91      0.00
    4    6   21     14.91      0.00
    5    6   21      5.57      0.00
    0    7   21    -25.90      0.00
    1    7   21     -6.96      0.00
    2    7   21      8.13      0.00
    3    7   21     -2.73      0.00
    4    7   21      4.33      0.00
    5    7   21     -1.92      0.00
    6    7   21     17.65      0.00
    1    8   21     15.09      0.00
    2    8   21     24.63      0.00
    3    8   21     -1.52      0.00
    4    8   21    -12.30      0.00
    5    8   21     -3.11      0.00
    6    8   21     -2.85      0.00
    7    8   21     14.00      0.00
    0    9   21    -16.62      0.00
    1    9   21     13.18      0.00
    2    9   21     -5.70      0.00
    3    9   21     14.05      0.00
    4    9   21     13.34      0.00
    5    9   21      5.53      0.00
    6    9   21     -6.35      0.00
    7    9   21      3.46      0.00
    8    9   21      0.59      0.00
    1   10   21     13.54      0.00
    2   10   21      1.12      0.00
    3   10   21     -1.79      0.00
    4   10   21     -1.65      0.00
    5   10   21      2.48      0.00
    6   10   21     -6.35      0.00
    7   10   21      3.41      0.00
    8   10   21    -15.19      0.00
    9   10   21     14.78      0.00
    0   11   21     -6.49      0.00
    1   11   21      1.63      0.00
    2   11   21    -11.61      0.00
    3   11   21     -3.48      0.00
    4   11   21      8.74      0.00
    5   11   21     -8.55      0.00
    6   11   21    -15.26      0.00
    7   11   21     -7.24      0.00
    8   11   21      6.45      0.00
    9   11   21      3.92      0.00
   10   11   21     15.18      0.00
    1   12   21    -17.68      0.00
    2   12   21    -14.65      0.00
    3   12   21      7.30      0.00
    4   12   21     -0.25      0.00
    5   12   21     10.54      0.00
    6   12   21      2.01      0.00
    7   12   21     13.08      0.00
    8   12   21     -6.72      0.00
    9   12   21      4.45      0.00
   10   12   21     -3.63      0.00
   11   12   21     -8.43      0.00
    1   13   21     40.40      0.00
    2   13   21     12.84      0.00
    3   13   21      0.83      0.00
    4   13   21     -0.55      0.00
    5   13   21     13.40      0.00
    6   13   21     -7.42      0.00
    7   13   21      0.65      0.00
    8   13   21    -19.20      0.00
    9   13   21    -14.84      0.00
   10   13   21     -6.83      0.00
   11   13   21     -3.94      0.00
    1   14   21     31.27      0.00
    2   14   21    -29.83      0.00
    3   14   21      9.95      0.00
    4   14   21      3.18      0.00
    5   14   21     10.56      0.00
    6   14   21     -6.94      0.00
    7   14   21      4.31      0.00
    8   14   21     15.75      0.00
    9   14   21    -17.24      0.00
   10   14   21      7.85      0.00
    0   15   21     54.49      0.00
    1   15   21    -17.46      0.00
    8   15   21     14.73      0.00
    1   16   21    -33.61      0.00
    0   17   21    -25.67      0.00
    1   17   21     -1.42      0.00
    1    1   22     20.53      0.00
    0    2   22    -20.73      0.00
    1    2   22     -4.54      0.00
    2    2   22     -1.77      0.00
    1    3   22     -4.24      0.00
    2    3   22      8.37      0.00
    3    3   22     29.48      0.00
    0    4   22     -2.33      0.00
    1    4   22     34.52      0.00
    2    4   22      6.75      0.00
    3    4   22      4.29      0.00
    4    4   22     26.58      0.00
    1    5   22     -0.29      0.00
    2    5   22     -9.43      0.00
    3    5   22     -0.58      0.00
    4    5   22     -6.13      0.00
    5    5   22     -6.99      0.00
    0    6   22      1.84      0.00
    1    6   22     -8.40      0.00
    2    6   22      6.09      0.00
    3    6   22    -18.84      0.00
    4    6   22      9.06      0.00
    5    6   22     -0.36      0.00
    6    6   22      5.24      0.00
    1    7   22     -4.22      0.00
    2    7   22     29.49      0.00
    3    7   22    -11.00      0.00
    4    7   22     11.39      0.00
    5    7   22      1.39      0.00
    6    7   22      5.39      0.00
    7    7   22     19.01      0.00
    0    8   22     -4.68      0.00
    1    8   22     -1.49      0.00
    2    8   22     10.46      0.00
    3    8   22      5.18      0.00
    4    8   22    -13.01      0.00
    5    8   22     -5.62      0.00
    6    8   22     32.15      0.00
    7    8   22     -7.10      0.00
    8    8   22     -5.71      0.00
    1    9   22      0.80      0.00
    2    9   22     -5.59      0.00
    3    9   22     12.56      0.00
    4    9   22     -7.46      0.00
    5    9   22    -31.55      0.00
    6    9   22     -6.89      0.00
    7    9   22    -29.14      0.00
    8    9   22     18.35      0.00
    9    9   22     26.72      0.00
    0   10   22     18.31      0.00
    1   10   22    -12.48      0.00
    2   10   22      1.81      0.00
    3   10   22     -2.84      0.00
    4   10   22      2.51      0.00
    5   10   22      2.92      0.00
    6   10   22     13.29      0.00
    7   10   22      7.41      0.00
    8   10   22     27.59      0.00
    9   10   22     -4.89      0.00
   10   10   22    -45.18      0.00
    1   11   22      2.87      0.00
    2   11   22      2.23      0.00
    3   11   22     -4.89      0.00
    4   11   22     14.67      0.00
    5   11   22      5.95      0.00
    6   11   22     -6.43      0.00
    7   11   22     -2.39      0.00
    8   11   22      6.08      0.00
    9   11   22    -59.18      0.00
   10   11   22      6.37      0.00
   11   11   22     21.12      0.00
    0   12   22    -30.63      0.00
    1   12   22    -11.23      0.00
    2   12   22     19.32      0.00
    3   12   22      8.95      0.00
    4   12   22    -13.61      0.00
    5   12   22    -22.51      0.00
    6   12   22     15.41      0.00
    7   12   22    -12.87      0.00
    8   12   22     22.18      0.00
    9   12   22     -8.32      0.00
   10   12   22    -11.86      0.00
   11   12   22     29.07      0.00
    1   13   22      6.44      0.00
    2   13   22     44.76      0.00
    3   13   22     -6.39      0.00
    4   13   22    -16.56      0.00
    5   13   22      7.22      0.00
    6   13   22      3.89      0.00
    7   13   22     -6.95      0.00
    8   13   22    -10.48      0.00
    9   13   22     19.24      0.00
   10   13   22      0.79      0.00
    2   14   22    -65.91      0.00
    3   14   22     29.01      0.00
    4   14   22      0.01      0.00
    5   14   22      7.82      0.00
    6   14   22    -27.07      0.00
    7   14   22     14.38      0.00
    8   14   22      8.49      0.00
    9   14   22      6.50      0.00
    1   15   22    -67.01      0.00
    6   15   22    -18.78      0.00
    7   15   22     -4.44      0.00
    8   15   22      4.96      0.00
    1   16   22     22.05      0.00
    0    1   23     10.33      0.00
    1    2   23     -4.88      0.00
    0    3   23     -3.42      0.00
    1    3   23    -23.37      0.00
    2    3   23    -10.77      0.00
    1    4   23      1.91      0.00
    2    4   23     18.92      0.00
    3    4   23     -6.22      0.00
    0    5   23     31.57      0.00
    1    5   23     -7.24      0.00
    2    5   23     13.93      0.00
    3    5   23      7.29      0.00
    4    5   23    -22.29      0.00
    1    6   23      9.35      0.00
    2    6   23    -23.84      0.00
    3    6   23      9.08      0.00
    4    6   23     -2.13      0.00
    5    6   23      9.71      0.00
    0    7   23     -9.94      0.00
    1    7   23      2.63      0.00
    2    7   23    -15.09      0.00
    3    7   23      0.05      0.00
    4    7   23     -7.78      0.00
    5    7   23      0.94      0.00
    6    7   23      8.14      0.00
    1    8   23     15.83      0.00
    2    8   23    -10.59      0.00
    3    8   23      2.28      0.00
    4    8   23     -0.87      0.00
    5    8   23      7.57      0.00
    6    8   23      7.29      0.00
    7    8   23    -13.70      0.00
    0    9   23     -7.36      0.00
    1    9   23    -10.94      0.00
    2    9   23     -2.44      0.00
    3    9   23      6.72      0.00
    4    9   23     -3.19      0.00
    5    9   23    -10.51      0.00
    6    9   23      4.54      0.00
    7    9   23    -12.22      0.00
    8    9   23      8.37      0.00
    1   10   23     16.65      0.00
    2   10   23      1.09      0.00
    3   10   23      1.38      0.00
    4   10   23     -8.28      0.00
    5   10   23     -8.80      0.00
    6   10   23     27.39      0.00
    7   10   23    -17.94      0.00
    8   10   23     -6.02      0.00
    9   10   23     19.26      0.00
    0   11   23     -2.73      0.00
    1   11   23    -13.69      0.00
    2   11   23    -24.49      0.00
    3   11   23     24.57      0.00
    4   11   23     11.60      0.00
    5   11   23    -11.29      0.00
    6   11   23     12.20      0.00
    7   11   23     26.54      0.00
    8   11   23    -54.30      0.00
    9   11   23     15.74      0.00
   10   11   23      5.73      0.00
    1   12   23      8.87      0.00
    2   12   23      1.84      0.00
    3   12   23      8.08      0.00
    4   12   23     -2.57      0.00
    5   12   23     24.40      0.00
    6   12   23    -21.16      0.00
    7   12   23      4.04      0.00
    8   12   23     -1.39      0.00
    9   12   23      1.05      0.00
   10   12   23     11.03      0.00
    2   13   23     -8.33      0.00
    3   13   23     -1.63      0.00
    4   13   23    -60.33      0.00
    5   13   23     -0.15      0.00
    6   13   23    -17.78      0.00
    7   13   23     -6.78      0.00
    8   13   23     -5.69      0.00
    9   13   23      0.47      0.00
    2   14   23    -34.85      0.00
    3   14   23     21.21      0.00
    4   14   23     11.48      0.00
    5   14   23      2.77      0.00
    6   14   23     21.30      0.00
    7   14   23      9.33      0.00
    8   14   23    -18.33      0.00
    4   15   23     18.41      0.00
    5   15   23      1.49      0.00
    6   15   23      3.55      0.00
    7   15   23      5.90      0.00
    1    1   24      0.77      0.00
    0    2   24     43.29      0.00
    1    2   24     -4.10      0.00
    2    2   24     -1.84      0.00
    1    3   24     37.55      0.00
    2    3   24     -8.00      0.00
    3    3   24      0.74      0.00
    1    4   24     -9.62      0.00
    2    4   24    -15.21      0.00
    3    4   24    -41.73      0.00
    4    4   24     11.40      0.00
    1    5   24    -58.07      0.00
    2    5   24     10.43      0.00
    3    5   24     14.52      0.00
    4    5   24      5.71      0.00
    5    5   24     12.35      0.00
    0    6   24     -4.57      0.00
    1    6   24     -4.18      0.00
    2    6   24     -6.73      0.00
    3    6   24      5.66      0.00
    4    6   24      3.91      0.00
    5    6   24      2.04      0.00
    6    6   24    -19.25      0.00
    1    7   24     23.65      0.00
    2    7   24      6.20      0.00
    3    7   24      3.10      0.00
    4    7   24     -9.95      0.00
    5    7   24     -2.11      0.00
    6    7   24    -22.31      0.00
    7    7   24    -28.45      0.00
    0    8   24      5.70      0.00
    1    8   24      6.43      0.00
    2    8   24    -11.27      0.00
    3    8   24     -7.24      0.00
    4    8   24      4.21      0.00
    5    8   24      1.69      0.00
    6    8   24     19.99      0.00
    7    8   24      3.76      0.00
    8    8   24      9.78      0.00
    1    9   24     -8.54      0.00
    2    9   24     21.63      0.00
    3    9   24     -8.14      0.00
    4    9   24     24.52      0.00
    5    9   24     -7.74      0.00
    6    9   24     -2.03      0.00
    7    9   24     -2.11      0.00
    8    9   24      1.01      0.00
    9    9   24    -12.47      0.00
    0   10   24    -26.64      0.00
    1   10   24      5.42      0.00
    2   10   24      9.81      0.00
    3   10   24     -6.91      0.00
    4   10   24      1.64      0.00
    5   10   24      1.29      0.00
    6   10   24    -17.24      0.00
    7   10   24     -5.40      0.00
    8   10   24     23.80      0.00
    9   10   24      2.08      0.00
   10   10   24     -9.47      0.00
    1   11   24     -4.39      0.00
    2   11   24     -1.08      0.00
    3   11   24     -3.28      0.00
    4   11   24     -0.50      0.00
    5   11   24     -3.03      0.00
    6   11   24     -9.41      0.00
    7   11   24    -79.21      0.00
    8   11   24     13.76      0.00
    9   11   24     22.58      0.00
   10   11   24     -3.66      0.00
    0   12   24     -0.68      0.00
    1   12   24      6.52      0.00
    2   12   24      3.86      0.00
    3   12   24     -6.51      0.00
    4   12   24      3.53      0.00
    5   12   24     27.07      0.00
    6   12   24     -1.87      0.00
    7   12   24    -15.85      0.00
    8   12   24     22.63      0.00
    9   12   24      4.44      0.00
    2   13   24    -64.63      0.00
    3   13   24      0.54      0.00
    4   13   24     12.80      0.00
    5   13   24     20.01      0.00
    6   13   24      6.77      0.00
    7   13   24     -7.26      0.00
    8   13   24    -21.06      0.00
    2   14   24     -2.51      0.00
    3   14   24    -28.10      0.00
    4   14   24      7.65      0.00
    5   14   24     -0.10      0.00
    6   14   24     11.01      0.00
    7   14   24     10.00      0.00
    3   15   24     19.93      0.00
    4   15   24      3.51      0.00
    5   15   24      0.13      0.00
    6   15   24     -6.79      0.00
    1    2   25    -29.74      0.00
    1    3   25    -24.96      0.00
    2    3   25     -5.23      0.00
    1    4   25     -1.41      0.00
    2    4   25     -2.48      0.00
    3    4   25    -18.66      0.00
    0    5   25     21.87      0.00
    1    5   25      3.29      0.00
    2    5   25     -0.79      0.00
    3    5   25      4.90      0.00
    4    5   25      2.54      0.00
    1    6   25     26.23      0.00
    2    6   25     -9.19      0.00
    3    6   25     -0.80      0.00
    4    6   25      7.81      0.00
    5    6   25      3.95      0.00
    0    7   25    -16.03      0.00
    1    7   25     17.96      0.00
    2    7   25      2.64      0.00
    3    7   25     13.14      0.00
    4    7   25     -7.98      0.00
    5    7   25      3.32      0.00
    6    7   25     -4.70      0.00
    1    8   25    -14.68      0.00
    2    8   25      7.42      0.00
    3    8   25     27.00      0.00
    4    8   25    -14.78      0.00
    5    8   25    -24.67      0.00
    6    8   25     -6.65      0.00
    7    8   25     13.61      0.00
    0    9   25     17.50      0.00
    1    9   25     -5.63      0.00
    2    9   25     -5.11      0.00
    3    9   25     -7.65      0.00
    4    9   25      6.38      0.00
    5    9   25     -8.30      0.00
    6    9   25      0.35      0.00
    7    9   25     -2.71      0.00
    8    9   25     -6.59      0.00
    1   10   25     35.80      0.00
    2   10   25     -1.99      0.00
    3   10   25     -4.20      0.00
    4   10   25    -10.02      0.00
    5   10   25     15.63      0.00
    6   10   25      3.49      0.00
    7   10   25     14.68      0.00
    8   10   25     -6.46      0.00
    9   10   25    -12.71      0.00
    0   11   25    -18.00      0.00
    1   11   25      0.97      0.00
    2   11   25    -10.06      0.00
    3   11   25    -13.55      0.00
    4   11   25      1.54      0.00
    5   11   25    -11.90      0.00
    6   11   25     23.86      0.00
    7   11   25     10.42      0.00
    8   11   25     18.59      0.00
    9   11   25     -5.23      0.00
    1   12   25     18.71      0.00
    2   12   25     -6.55      0.00
    3   12   25     64.23      0.00
    4   12   25    -12.22      0.00
    5   12   25     -6.58      0.00
    6   12   25     -4.82      0.00
    7   12   25     18.03      0.00
    8   12   25      6.97      0.00
    0   13   25    -17.86      0.00
    1   13   25     39.61      0.00
    2   13   25    -11.94      0.00
    3   13   25     -0.87      0.00
    4   13   25     -6.06      0.00
    5   13   25    -20.63      0.00
    6   13   25    -13.98      0.00
    7   13   25      4.39      0.00
    3   14   25    -11.39      0.00
    4   14   25     19.60      0.00
    5   14   25      4.28      0.00
    6   14   25     13.66      0.00
    3   15   25      8.58      0.00
    4   15   25      2.23      0.00
    0    2   26     11.10      0.00
    1    2   26     -2.58      0.00
    2    2   26      8.94      0.00
    1    3   26      1.91      0.00
    2    3   26     16.40      0.00
    3    3   26     24.33      0.00
    0    4   26     36.13      0.00
    1    4   26     18.08      0.00
    2    4   26    -19.16      0.00
    3    4   26      7.76      0.00
    4    4   26     -1.41      0.00
    1    5   26     -7.82      0.00
    2    5   26     15.18      0.00
    3    5   26     25.40      0.00
    4    5   26    -10.31      0.00
    5    5   26    -13.18      0.00
    0    6   26    -21.41      0.00
    1    6   26    -18.55      0.00
    2    6   26     20.77      0.00
    3    6   26     -3.93      0.00
    4    6   26     -3.99      0.00
    5    6   26    -15.15      0.00
    6    6   26      6.96      0.00
    1    7   26    -23.77      0.00
    2    7   26      5.21      0.00
    3    7   26      5.86      0.00
    4    7   26    -24.04      0.00
    5    7   26     -9.05      0.00
    6    7   26      0.92      0.00
    7    7   26      0.45      0.00
    0    8   26      2.12      0.00
    1    8   26    -29.44      0.00
    2    8   26    -22.31      0.00
    3    8   26     -4.94      0.00
    4    8   26      8.12      0.00
    5    8   26     24.19      0.00
    6    8   26      3.46      0.00
    7    8   26     19.69      0.00
    8    8   26     -8.17      0.00
    1    9   26      1.08      0.00
    2    9   26    -25.46      0.00
    3    9   26     15.31      0.00
    4    9   26     -7.98      0.00
    5    9   26     -4.70      0.00
    6    9   26     -2.80      0.00
    7    9   26      6.12      0.00
    8    9   26     -1.88      0.00
    9    9   26     -0.75      0.00
    0   10   26     26.51      0.00
    1   10   26     -7.46      0.00
    2   10   26    -14.56      0.00
    3   10   26      7.79      0.00
    4   10   26    -10.91      0.00
    5   10   26     -5.62      0.00
    6   10   26     49.69      0.00
    7   10   26    -11.65      0.00
    8   10   26     -0.34      0.00
    9   10   26      2.37      0.00
    1   11   26     -9.57      0.00
    2   11   26     -4.42      0.00
    3   11   26    -15.62      0.00
    4   11   26     60.27      0.00
    5   11   26     -7.32      0.00
    6   11   26     10.42      0.00
    7   11   26    -12.16      0.00
    8   11   26    -11.06      0.00
    0   12   26     19.78      0.00
    1   12   26    -12.48      0.00
    2   12   26     -3.12      0.00
    3   12   26     18.94      0.00
    4   12   26    -11.95      0.00
    5   12   26      0.89      0.00
    6   12   26    -12.92      0.00
    7   12   26      1.91      0.00
    1   13   26     -4.11      0.00
    2   13   26    -40.11      0.00
    3   13   26    -17.68      0.00
    4   13   26     -7.49      0.00
    5   13   26     22.60      0.00
    6   13   26     -5.21      0.00
    3   14   26    -17.88      0.00
    4   14   26     -6.18      0.00
    1    2   27      1.29      0.00
    0    3   27      6.62      0.00
    1    3   27     11.52      0.00
    2    3   27     13.98      0.00
    1    4   27      5.80      0.00
    2    4   27     19.71      0.00
    3    4   27    -16.01      0.00
    0    5   27    -13.96      0.00
    1    5   27     -5.45      0.00
    2    5   27     15.93      0.00
    3    5   27     -2.11      0.00
    4    5   27    -11.02      0.00
    1    6   27    -14.50      0.00
    2    6   27     13.28      0.00
    3    6   27      3.63      0.00
    4    6   27      9.10      0.00
    5    6   27     -3.52      0.00
    0    7   27     68.72      0.00
    1    7   27    -15.94      0.00
    2    7   27    -24.03      0.00
    3    7   27     -2.49      0.00
    4    7   27     -0.47      0.00
    5    7   27      4.81      0.00
    6    7   27     -4.51      0.00
    1    8   27      0.27      0.00
    2    8   27     15.90      0.00
    3    8   27     11.80      0.00
    4    8   27     -3.89      0.00
    5    8   27     -0.14      0.00
    6    8   27     -2.18      0.00
    7    8   27    -10.76      0.00
    0    9   27    -12.05      0.00
    1    9   27     -7.90      0.00
    2    9   27    -18.74      0.00
    3    9   27     17.83      0.00
    4    9   27     -0.36      0.00
    5    9   27     21.25      0.00
    6    9   27     -7.41      0.00
    7    9   27      8.91      0.00
    8    9   27     -3.16      0.00
    1   10   27    -16.33      0.00
    2   10   27     24.04      0.00
    3   10   27    -14.84      0.00
    4   10   27    -15.69      0.00
    5   10   27    -11.35      0.00
    6   10   27     -0.54      0.00
    7   10   27    -17.23      0.00
    8   10   27     -2.17      0.00
    0   11   27    -88.74      0.00
    1   11   27     22.75      0.00
    2   11   27      5.67      0.00
    3   11   27    -17.03      0.00
    4   11   27    -13.55      0.00
    5   11   27    -14.49      0.00
    6   11   27    -14.49      0.00
    7   11   27     13.60      0.00
    1   12   27     -3.18      0.00
    2   12   27      1.35      0.00
    3   12   27     21.66      0.00
    4   12   27     34.19      0.00
    5   12   27     -9.89      0.00
    6   12   27     -4.91      0.00
    0   13   27     -4.60      0.00
    1   13   27     44.88      0.00
    2   13   27    -12.06      0.00
    3   13   27      2.57      0.00
    4   13   27    -12.00      0.00
    0    2   28     20.36      0.00
    1    2   28     17.36      0.00
    2    2   28    -12.91      0.00
    1    3   28    -24.69      0.00
    2    3   28      8.62      0.00
    3    3   28      0.64      0.00
    0    4   28     -3.00      0.00
    1    4   28     -3.13      0.00
    2    4   28      3.07      0.00
    3    4   28     24.35      0.00
    4    4   28    -21.47      0.00
    1    5   28     -4.65      0.00
    2    5   28    -43.43      0.00
    3    5   28     -6.63      0.00
    4    5   28      5.23      0.00
    5    5   28      4.43      0.00
    0    6   28     13.81      0.00
    1    6   28    -10.34      0.00
    2    6   28     -2.22      0.00
    3    6   28      5.78      0.00
    4    6   28     -0.87      0.00
    5    6   28     11.34      0.00
    6    6   28     -7.35      0.00
    1    7   28    -14.52      0.00
    2    7   28     10.39      0.00
    3    7   28     -7.84      0.00
    4    7   28      1.78      0.00
    5    7   28     -9.53      0.00
    6    7   28      5.01      0.00
    7    7   28      1.75      0.00
    0    8   28      6.21      0.00
    1    8   28     -5.04      0.00
    2    8   28    -16.73      0.00
    3    8   28     20.10      0.00
    4    8   28     14.16      0.00
    5    8   28     -0.54      0.00
    6    8   28     13.96      0.00
    7    8   28     -4.27      0.00
    8    8   28     -0.71      0.00
    1    9   28    -18.46      0.00
    2    9   28     26.35      0.00
    3    9   28     11.54      0.00
    4    9   28      0.38      0.00
    5    9   28     -4.61      0.00
    6    9   28    -10.74      0.00
    7    9   28      6.26      0.00
    8    9   28     -3.64      0.00
    0   10   28     62.89      0.00
    1   10   28     94.15      0.00
    2   10   28     25.90      0.00
    3   10   28    -39.27      0.00
    4   10   28     -7.82      0.00
    5   10   28     -6.13      0.00
    6   10   28     -5.26      0.00
    7   10   28     -0.49      0.00
    1   11   28     13.40      0.00
    2   11   28    -31.07      0.00
    3   11   28     -8.23      0.00
    4   11   28     -3.04      0.00
    5   11   28     13.19      0.00
    6   11   28     12.45      0.00
    0   12   28     -3.15      0.00
    1   12   28    -19.73      0.00
    2   12   28     18.89      0.00
    3   12   28      4.65      0.00
    4   12   28     -1.73      0.00
    1   13   28     -8.87      0.00
    2   13   28     -5.98      0.00
    1    2   29    -35.01      0.00
    0    3   29     38.64      0.00
    1    3   29    -48.64      0.00
    2    3   29     29.79      0.00
    1    4   29     -1.34      0.00
    2    4   29    -13.49      0.00
    3    4   29      7.63      0.00
    0    5   29     10.53      0.00
    1    5   29      5.17      0.00
    2    5   29      8.74      0.00
    3    5   29    -24.48      0.00
    4    5   29     16.53      0.00
    1    6   29     -5.53      0.00
    2    6   29     19.26      0.00
    3    6   29     11.84      0.00
    4    6   29    -11.79      0.00
    5    6   29     -0.85      0.00
    0    7   29    -22.23      0.00
    1    7   29     10.67      0.00
    2    7   29      5.59      0.00
    3    7   29    -14.89      0.00
    4    7   29     -0.98      0.00
    5    7   29     15.50      0.00
    6    7   29     59.44      0.00
    1    8   29     -5.12      0.00
    2    8   29     28.74      0.00
    3    8   29     16.64      0.00
    4    8   29     14.97      0.00
    5    8   29    -21.37      0.00
    6    8   29     -3.86      0.00
    7    8   29      9.66      0.00
    0    9   29     67.37      0.00
    1    9   29    -77.21      0.00
    3    9   29      3.69      0.00
    4    9   29      2.74      0.00
    5    9   29      2.91      0.00
    6    9   29     -4.66      0.00
    7    9   29     -8.67      0.00
    1   10   29      4.93      0.00
    2   10   29    -20.00      0.00
    3   10   29     -2.36      0.00
    4   10   29     -3.58      0.00
    5   10   29     21.05      0.00
    6   10   29    -18.92      0.00
    0   11   29     -4.25      0.00
    1   11   29      4.93      0.00
    2   11   29    -16.92      0.00
    3   11   29      2.21      0.00
    4   11   29     -4.62      0.00
    1   12   29      9.40      0.00
    2   12   29    -18.14      0.00
    0   13   29      3.94      0.00
    1    3   30    -11.52      0.00
    2    3   30      7.44      0.00
    3    3   30    -11.91      0.00
    0    4   30     -2.20      0.00
    1    4   30      8.72      0.00
    2    4   30    -24.82      0.00
    3    4   30     -8.37      0.00
    4    4   30     19.54      0.00
    1    5   30    -15.65      0.00
    2    5   30      2.26      0.00
    3    5   30     -0.88      0.00
    4    5   30     15.19      0.00
    5    5   30     25.75      0.00
    0    6   30      4.75      0.00
    1    6   30      0.36      0.00
    2    6   30     22.12      0.00
    3    6   30     -7.64      0.00
    4    6   30     -1.16      0.00
    5    6   30     -2.40      0.00
    6    6   30    -31.32      0.00
    1    7   30     13.10      0.00
    2    7   30     16.03      0.00
    3    7   30     -9.79      0.00
    4    7   30    -57.93      0.00
    5    7   30    -18.69      0.00
    6    7   30     13.62      0.00
    7    7   30     -6.38      0.00
    0    8   30    122.27      0.00
    1    8   30   -116.40      0.00
    2    8   30    -11.33      0.00
    3    8   30     17.48      0.00
    4    8   30      1.04      0.00
    5    8   30     -6.86      0.00
    6    8   30     -2.63      0.00
    7    8   30     -5.92      0.00
    1    9   30    -38.06      0.00
    2    9   30    -15.93      0.00
    3    9   30      7.19      0.00
    4    9   30     -7.72      0.00
    5    9   30     -3.89      0.00
    0   10   30      2.24      0.00
    1   10   30     28.62      0.00
    2   10   30     13.85      0.00
    3   10   30      5.07      0.00
    4   10   30     -0.86      0.00
    1   11   30      5.42      0.00
    2   11   30     -7.86      0.00
    3   11   30     -2.07      0.00
    0   12   30      9.00      0.00
    1   12   30     40.78      0.00
    0    3   31    -10.52      0.00
    1    3   31    -28.06      0.00
    2    3   31      8.12      0.00
    1    4   31     -8.72      0.00
    2    4   31     25.52      0.00
    3    4   31      4.34      0.00
    0    5   31      8.33      0.00
    1    5   31      6.46      0.00
    2    5   31     18.89      0.00
    3    5   31     22.83      0.00
    4    5   31    -14.97      0.00
    1    6   31      9.69      0.00
    2    6   31     -1.15      0.00
    3    6   31    -40.16      0.00
    4    6   31     19.35      0.00
    5    6   31     -2.03      0.00
    0    7   31    -29.33      0.00
    1    7   31     24.99      0.00
    2    7   31     13.82      0.00
    3    7   31     -6.83      0.00
    4    7   31     -5.83      0.00
    5    7   31     19.39      0.00
    6    7   31      2.23      0.00
    1    8   31    -41.35      0.00
    2    8   31     14.93      0.00
    3    8   31      5.43      0.00
    4    8   31      8.60      0.00
    5    8   31     -8.52      0.00
    0    9   31    -54.50      0.00
    1    9   31     -2.31      0.00
    2    9   31      5.41      0.00
    3    9   31     -2.00      0.00
    4    9   31     -4.36      0.00
    1   10   31    -31.80      0.00
    2   10   31      2.88      0.00
    3   10   31     -1.46      0.00
    0   11   31     26.13      0.00
    1   11   31     29.88      0.00
    1    3   32     37.94      0.00
    2    3   32     -1.05      0.00
    0    4   32     20.95      0.00
    1    4   32     13.35      0.00
    2    4   32    -23.59      0.00
    3    4   32   -127.12      0.00
    4    4   32     15.30      0.00
    1    5   32    -42.96      0.00
    2    5   32      9.85      0.00
    3    5   32     -5.31      0.00
    4    5   32     -0.93      0.00
    5    5   32      9.34      0.00
    0    6   32     13.55      0.00
    1    6   32     10.70      0.00
    2    6   32     17.46      0.00
    3    6   32     12.16      0.00
    4    6   32     -1.75      0.00
    5    6   32      6.52      0.00
    6    6   32     -3.99      0.00
    1    7   32     -8.04      0.00
    2    7   32     14.56      0.00
    3    7   32      2.27      0.00
    4    7   32    -17.03      0.00
    5    7   32      7.07      0.00
    0    8   32      6.40      0.00
    1    8   32    -12.81      0.00
    2    8   32     -8.31      0.00
    3    8   32      1.37      0.00
    4    8   32      1.55      0.00
    1    9   32      2.55      0.00
    2    9   32     31.23      0.00
    3    9   32      0.18      0.00
    0   10   32     10.29      0.00
    1   10   32    -15.61      0.00
    1    4   33      4.89      0.00
    2    4   33    -17.95      0.00
    3    4   33    -15.78      0.00
    0    5   33     23.42      0.00
    1    5   33     12.24      0.00
    2    5   33      1.96      0.00
    3    5   33     27.09      0.00
    4    5   33     13.18      0.00
    1    6   33     -8.69      0.00
    2    6   33     -9.06      0.00
    3    6   33     -9.96      0.00
    4    6   33      0.46      0.00
    0    7   33     11.29      0.00
    1    7   33     -3.57      0.00
    2    7   33      4.89      0.00
    3    7   33      1.15      0.00
    4    7   33      2.19      0.00
    1    8   33     14.48      0.00
    2    8   33     -3.83      0.00
    3    8   33      1.10      0.00
    1    9   33     -8.26      0.00
    0    4   34    -22.44      0.00
    1    4   34    -17.14      0.00
    2    4   34     -5.64      0.00
    3    4   34     -8.13      0.00
    4    4   34     14.56      0.00
    1    5   34    -17.41      0.00
    2    5   34     29.78      0.00
    3    5   34     21.94      0.00
    4    5   34      1.34      0.00
    0    6   34     -1.71      0.00
    1    6   34      1.55      0.00
    2    6   34      5.74      0.00
    3    6   34      7.95      0.00
    1    7   34     12.94      0.00
    2    7   34      5.42      0.00
    1    8   34      4.43      0.00
    1    4   35     16.95      0.00
    2    4   35    -48.10      0.00
    1    5   35     16.32      0.00
    2    5   35     12.24      0.00
    1    6   35      8.84      0.00
    1    1    0    -47.82      0.00
    2    2    0    111.65      0.00
    3    3    0    142.65      0.00
    4    4    0    -36.33      0.00
    3    5    0    -11.53      0.00
    4    5    0     22.66      0.00
    5    5    0     35.76      0.00
    5    6    0     14.32      0.00
    6    6    0     84.62      0.00
    5    7    0    -47.92      0.00
    6    7    0    -27.25      0.00
    7    7    0    -22.85      0.00
    6    8    0    -25.25      0.00
    7    8    0     13.32      0.00
    8    8    0     29.24      0.00
    6    9    0     14.02      0.00
    7    9    0    -16.04      0.00
    8    9    0      2.84      0.00
    9    9    0     31.08      0.00
    7   10    0    -16.82      0.00
    8   10    0     18.90      0.00
    9   10    0     -3.85      0.00
   10   10    0     12.67      0.00
    7   11    0    -12.97      0.00
    8   11    0    -29.55      0.00
    9   11    0     18.63      0.00
   10   11    0    -23.86      0.00
   11   11    0     21.52      0.00
    7   12    0     41.99      0.00
    8   12    0    -11.72      0.00
    9   12    0     20.64      0.00
   10   12    0    -36.77      0.00
   11   12    0    -26.51      0.00
   12   12    0     71.85      0.00
    5   13    0     42.85      0.00
    6   13    0    -40.26      0.00
    8   13    0      6.76      0.00
    9   13    0      8.21      0.00
   10   13    0      1.46      0.00
   11   13    0    -15.63      0.00
   12   13    0     -3.71      0.00
   13   13    0      6.87      0.00
    8   14    0    -22.52      0.00
    9   14    0      7.34      0.00
   10   14    0      9.65      0.00
   11   14    0      5.29      0.00
   12   14    0    -33.44      0.00
   13   14    0     21.93      0.00
   14   14    0     23.53      0.00
    8   15    0      2.34      0.00
    9   15    0     19.88      0.00
   10   15    0     -1.73      0.00
   11   15    0     17.99      0.00
   12   15    0     18.93      0.00
   13   15    0     -4.83      0.00
   14   15    0      0.63      0.00
   15   15    0      1.00      0.00
    8   16    0     31.36      0.00
    9   16    0     12.74      0.00
   10   16    0      0.72      0.00
   11   16    0     -7.87      0.00
   12   16    0      8.74      0.00
   13   16    0      1.86      0.00
   14   16    0     -9.55      0.00
    8   17    0     10.77      0.00
    9   17    0     14.43      0.00
   10   17    0    -17.19      0.00
   11   17    0     13.02      0.00
   12   17    0     -0.84      0.00
   13   17    0      9.87      0.00
    8   18    0      2.66      0.00
    9   18    0      5.42      0.00
   10   18    0     -8.14      0.00
   11   18    0    -15.23      0.00
    8   19    0     -6.57      0.00
    9   19    0    -14.43      0.00
    6   20    0      1.60      0.00
    7   20    0      6.96      0.00
    0    1    1   -306.46      0.00
    4    5    1    -13.26      0.00
    5    6    1    -23.07      0.00
    6    7    1     10.70      0.00
    6    8    1     -2.52      0.00
    7    8    1    -19.61      0.00
    7    9    1    -19.38      0.00
    8    9    1     14.18      0.00
    7   10    1    -15.65      0.00
    8   10    1      3.24      0.00
    9   10    1     -8.95      0.00
    7   11    1    -15.61      0.00
    8   11    1    -12.37      0.00
    9   11    1      8.66      0.00
   10   11    1     -2.43      0.00
    8   12    1    -13.38      0.00
    9   12    1     -4.29      0.00
   10   12    1     13.48      0.00
   11   12    1      2.34      0.00
    8   13    1    -43.80      0.00
    9   13    1     -2.28      0.00
   10   13    1     -1.81      0.00
   11   13    1     -2.55      0.00
   12   13    1     -6.15      0.00
    8   14    1     -4.90      0.00
    9   14    1     -2.88      0.00
   10   14    1    -12.80      0.00
   11   14    1      2.26      0.00
   12   14    1      2.48      0.00
   13   14    1     -1.86      0.00
    8   15    1      6.87      0.00
    9   15    1     -8.94      0.00
   10   15    1      3.92      0.00
   11   15    1      8.25      0.00
   12   15    1     20.29      0.00
   13   15    1     -5.60      0.00
   14   15    1     -3.43      0.00
    8   16    1      6.30      0.00
    9   16    1      8.29      0.00
   10   16    1     11.32      0.00
   11   16    1    -24.98      0.00
   12   16    1    -12.19      0.00
   13   16    1     -2.35      0.00
   14   16    1     -9.55      0.00
    8   17    1    -15.07      0.00
    9   17    1     12.64      0.00
   10   17    1      7.07      0.00
   11   17    1      5.31      0.00
   12   17    1    -32.18      0.00
   13   17    1      1.98      0.00
    8   18    1     -4.00      0.00
    9   18    1     -6.73      0.00
   10   18    1     -4.67      0.00
   11   18    1     11.01      0.00
    8   19    1     -3.44      0.00
    9   19    1     -5.78      0.00
    7   20    1     13.92      0.00
    0    0    2    146.29      0.00
    1    1    2   -318.42      0.00
    4    4    2    -88.68      0.00
    4    5    2      4.01      0.00
    5    5    2     -9.05      0.00
    5    6    2     -1.31      0.00
    6    6    2     -1.49      0.00
    6    7    2     -2.35      0.00
    7    7    2    -21.07      0.00
    6    8    2     17.19      0.00
    7    8    2     -8.00      0.00
    8    8    2     12.65      0.00
    7    9    2     28.64      0.00
    8    9    2    -29.10      0.00
    9    9    2    -45.42      0.00
    7   10    2    -19.52      0.00
    8   10    2     -6.07      0.00
    9   10    2      7.83      0.00
   10   10    2     -0.28      0.00
    8   11    2     -8.45      0.00
    9   11    2     33.77      0.00
   10   11    2     14.99      0.00
   11   11    2     -9.81      0.00
    8   12    2      3.48      0.00
    9   12    2    -13.74      0.00
   10   12    2      8.81      0.00
   11   12    2     -1.43      0.00
   12   12    2     21.11      0.00
    7   13    2      3.43      0.00
    8   13    2     12.52      0.00
    9   13    2      4.81      0.00
   10   13    2      1.34      0.00
   11   13    2    -12.35      0.00
   12   13    2     -5.95      0.00
   13   13    2      5.59      0.00
    8   14    2    -13.19      0.00
    9   14    2      6.30      0.00
   10   14    2    -23.26      0.00
   11   14    2     14.19      0.00
   12   14    2     -6.58      0.00
   13   14    2     10.96      0.00
   14   14    2    -11.79      0.00
    8   15    2    -14.16      0.00
    9   15    2     15.25      0.00
   10   15    2     11.52      0.00
   11   15    2     -6.35      0.00
   12   15    2     -3.67      0.00
   13   15    2     13.72      0.00
   14   15    2      5.41      0.00
   15   15    2     -4.31      0.00
    8   16    2    -11.70      0.00
    9   16    2     -9.27      0.00
   10   16    2      7.36      0.00
   11   16    2    -20.44      0.00
   12   16    2     -2.07      0.00
   13   16    2      0.93      0.00
   14   16    2      5.05      0.00
    9   17    2    -19.37      0.00
   10   17    2     -7.14      0.00
   11   17    2     -1.94      0.00
   12   17    2     -1.70      0.00
   13   17    2      2.61      0.00
    9   18    2     -7.36      0.00
   10   18    2    -11.30      0.00
   11   18    2      6.56      0.00
    8   19    2     -6.61      0.00
    9   19    2      8.53      0.00
    7   20    2      1.96      0.00
    4    5    3     38.80      0.00
    6    7    3     10.18      0.00
    7    8    3    -23.71      0.00
    7    9    3      6.24      0.00
    8    9    3     16.04      0.00
    8   10    3     13.73      0.00
    9   10    3    -29.81      0.00
    8   11    3    -28.25      0.00
    9   11    3      1.51      0.00
   10   11    3     25.26      0.00
    8   12    3     -6.80      0.00
    9   12    3      2.66      0.00
   10   12    3    -41.54      0.00
   11   12    3     -1.87      0.00
    7   13    3    -26.16      0.00
    8   13    3     -1.20      0.00
    9   13    3     29.81      0.00
   10   13    3     -3.56      0.00
   11   13    3      0.96      0.00
   12   13    3     -4.91      0.00
    9   14    3     21.33      0.00
   10   14    3    -13.97      0.00
   11   14    3     -4.84      0.00
   12   14    3     -0.65      0.00
   13   14    3      2.71      0.00
    9   15    3     -6.79      0.00
   10   15    3     -4.25      0.00
   11   15    3    -12.30      0.00
   12   15    3     14.22      0.00
   13   15    3     -0.86      0.00
   14   15    3      6.83      0.00
    9   16    3    -16.17      0.00
   10   16    3     -1.63      0.00
   11   16    3      6.44      0.00
   12   16    3     24.39      0.00
   13   16    3     -7.52      0.00
   14   16    3     -0.45      0.00
    9   17    3     20.51      0.00
   10   17    3     23.98      0.00
   11   17    3     -2.29      0.00
   12   17    3      9.42      0.00
    9   18    3     14.59      0.00
   10   18    3     -2.45      0.00
   11   18    3      5.64      0.00
    8   19    3     12.53      0.00
    9   19    3     -6.79      0.00
    6    6    4     15.14      0.00
    7    7    4      7.97      0.00
    7    8    4    -11.98      0.00
    8    8    4    -15.22      0.00
    8    9    4     -3.94      0.00
    9    9    4      4.16      0.00
    8   10    4      2.63      0.00
    9   10    4      0.26      0.00
   10   10    4      7.48      0.00
    8   11    4     25.69      0.00
    9   11    4     -3.05      0.00
   10   11    4     12.74      0.00
   11   11    4    -34.32      0.00
    8   12    4     13.06      0.00
    9   12    4     10.22      0.00
   10   12    4     -9.31      0.00
   11   12    4     17.36      0.00
   12   12    4      7.00      0.00
    7   13    4     -3.69      0.00
    8   13    4     23.66      0.00
    9   13    4     15.16      0.00
   10   13    4      9.02      0.00
   11   13    4     11.54      0.00
   12   13    4     -7.58      0.00
   13   13    4      1.54      0.00
    9   14    4    -12.82      0.00
   10   14    4      8.97      0.00
   11   14    4      4.64      0.00
   12   14    4     -0.89      0.00
   13   14    4    -10.02      0.00
   14   14    4    -24.22      0.00
    9   15    4    -12.18      0.00
   10   15    4      5.37      0.00
   11   15    4      1.16      0.00
   12   15    4     -9.62      0.00
   13   15    4      1.38      0.00
   14   15    4      5.74      0.00
   15   15    4      4.37      0.00
    9   16    4      9.86      0.00
   10   16    4      1.53      0.00
   11   16    4     -2.77      0.00
   12   16    4      4.72      0.00
   13   16    4    -12.14      0.00
   14   16    4      6.45      0.00
    8   17    4     -6.16      0.00
    9   17    4     -5.34      0.00
   10   17    4      3.71      0.00
   11   17    4     -4.87      0.00
   12   17    4      7.62      0.00
    8   18    4      5.84      0.00
    9   18    4      7.51      0.00
   10   18    4      1.37      0.00
   11   18    4      0.78      0.00
    8   19    4     11.24      0.00
    9   19    4     13.32      0.00
    7   20    4     -0.12      0.00
    8    9    5     17.25      0.00
    8   10    5     19.37      0.00
    9   10    5     21.52      0.00
    9   11    5     13.90      0.00
   10   11    5    -38.39      0.00
    9   12    5      3.60      0.00
   10   12    5      6.61      0.00
   11   12    5      1.55      0.00
    7   13    5      3.64      0.00
    8   13    5    -22.87      0.00
    9   13    5      6.28      0.00
   10   13    5     26.95      0.00
   11   13    5      9.38      0.00
   12   13    5     -9.44      0.00
    9   14    5     -3.74      0.00
   10   14    5      5.20      0.00
   11   14    5     -0.99      0.00
   12   14    5     -9.37      0.00
   13   14    5     -7.91      0.00
    8   15    5     -9.55      0.00
    9   15    5     10.67      0.00
   10   15    5      2.41      0.00
   11   15    5    -11.43      0.00
   12   15    5     15.90      0.00
   13   15    5     -0.39      0.00
   14   15    5     -5.68      0.00
    8   16    5    -17.58      0.00
    9   16    5      3.55      0.00
   10   16    5     18.38      0.00
   11   16    5    -28.79      0.00
   12   16    5     12.79      0.00
   13   16    5     -4.92      0.00
   14   16    5     -2.94      0.00
    8   17    5      2.66      0.00
    9   17    5    -14.86      0.00
   10   17    5      0.56      0.00
   11   17    5     -5.42      0.00
   12   17    5     -9.97      0.00
    7   18    5     -1.44      0.00
    8   18    5    -11.52      0.00
    9   18    5     -7.15      0.00
   10   18    5      5.34      0.00
   11   18    5     -4.20      0.00
    7   19    5      9.69      0.00
    8   19    5     -1.82      0.00
    9   19    5      5.71      0.00
    6   20    5    -17.86      0.00
    7   20    5     -4.95      0.00
    8    8    6      7.13      0.00
    8    9    6     -3.86      0.00
    9    9    6     -3.03      0.00
    9   10    6    -13.86      0.00
   10   10    6      8.18      0.00
    9   11    6     -5.42      0.00
   10   11    6    -44.30      0.00
   11   11    6     20.76      0.00
    8   12    6     -8.91      0.00
    9   12    6     22.25      0.00
   10   12    6    -14.85      0.00
   11   12    6    -13.08      0.00
   12   12    6      7.73      0.00
    8   13    6     11.99      0.00
    9   13    6      4.17      0.00
   10   13    6     -4.29      0.00
   11   13    6     -1.32      0.00
   12   13    6      7.78      0.00
   13   13    6      7.21      0.00
    8   14    6     16.69      0.00
    9   14    6    -17.87      0.00
   10   14    6      2.52      0.00
   11   14    6     -1.37      0.00
   12   14    6      7.38      0.00
   13   14    6    -10.77      0.00
   14   14    6     -7.02      0.00
    8   15    6     -8.76      0.00
    9   15    6    -24.80      0.00
   10   15    6     -6.47      0.00
   11   15    6     -7.83      0.00
   12   15    6     17.26      0.00
   13   15    6      7.06      0.00
   14   15    6     -6.23      0.00
    7   16    6     -2.86      0.00
    8   16    6     12.45      0.00
    9   16    6     11.35      0.00
   10   16    6      4.10      0.00
   11   16    6    -10.48      0.00
   12   16    6     -8.35      0.00
   13   16    6     -3.52      0.00
    7   17    6      0.49      0.00
    8   17    6      0.63      0.00
    9   17    6     -6.20      0.00
   10   17    6    -11.47      0.00
   11   17    6      1.44      0.00
   12   17    6      7.57      0.00
    7   18    6    -12.85      0.00
    8   18    6      2.34      0.00
    9   18    6    -10.59      0.00
   10   18    6     -2.63      0.00
   11   18    6     -6.30      0.00
    7   19    6    -17.27      0.00
    8   19    6     10.00      0.00
    9   19    6      1.52      0.00
    5   20    6    -25.35      0.00
    6   20    6     -1.62      0.00
    9   10    7     -8.12      0.00
    9   11    7      3.23      0.00
   10   11    7      2.68      0.00
    7   12    7    -21.62      0.00
    8   12    7     -0.27      0.00
    9   12    7      7.35      0.00
   10   12    7    -11.18      0.00
   11   12    7      0.86      0.00
    8   13    7     21.11      0.00
    9   13    7     11.49      0.00
   10   13    7     -3.15      0.00
   11   13    7     -1.96      0.00
   12   13    7     -9.28      0.00
    8   14    7     -3.88      0.00
    9   14    7     -5.82      0.00
   10   14    7     -1.27      0.00
   11   14    7    -25.14      0.00
   12   14    7     -2.23      0.00
   13   14    7     12.32      0.00
    7   15    7    -23.41      0.00
    8   15    7     -2.84      0.00
    9   15    7     -7.50      0.00
   10   15    7      2.86      0.00
   11   15    7     -8.74      0.00
   12   15    7     13.35      0.00
   13   15    7      9.52      0.00
   14   15    7     -0.56      0.00
    7   16    7     12.26      0.00
    8   16    7     12.82      0.00
    9   16    7     -5.12      0.00
   10   16    7      7.50      0.00
   11   16    7      7.25      0.00
   12   16    7      7.14      0.00
   13   16    7      6.70      0.00
    7   17    7      0.93      0.00
    8   17    7      8.59      0.00
    9   17    7      1.58      0.00
   10   17    7     12.96      0.00
   11   17    7     -2.49      0.00
   12   17    7     -0.40      0.00
    7   18    7     -8.63      0.00
    8   18    7    -11.21      0.00
    9   18    7     -6.57      0.00
   10   18    7      2.94      0.00
    7   19    7     19.34      0.00
    8   19    7      5.83      0.00
    9   19    7     -3.71      0.00
    4   20    7      4.19      0.00
    5   20    7     -4.04      0.00
    6   20    7     -5.70      0.00
    9    9    8     -3.72      0.00
    9   10    8      3.98      0.00
   10   10    8    -21.06      0.00
    9   11    8     12.16      0.00
   10   11    8     -8.74      0.00
   11   11    8     28.03      0.00
    9   12    8      7.23      0.00
   10   12    8     14.19      0.00
   11   12    8     -4.81      0.00
   12   12    8      9.59      0.00
    8   13    8    -16.16      0.00
    9   13    8     11.30      0.00
   10   13    8     13.21      0.00
   11   13    8    -11.08      0.00
   12   13    8     19.82      0.00
   13   13    8     -2.77      0.00
    8   14    8     -8.00      0.00
    9   14    8     -1.35      0.00
   10   14    8      6.50      0.00
   11   14    8    -16.50      0.00
   12   14    8     -8.64      0.00
   13   14    8      0.23      0.00
   14   14    8    -15.17      0.00
    8   15    8     -2.07      0.00
    9   15    8      1.03      0.00
   10   15    8      1.95      0.00
   11   15    8     -1.38      0.00
   12   15    8      9.91      0.00
   13   15    8     15.85      0.00
   14   15    8     -4.02      0.00
    8   16    8     -9.53      0.00
    9   16    8     -6.84      0.00
   10   16    8     20.42      0.00
   11   16    8      3.25      0.00
   12   16    8     -1.78      0.00
   13   16    8     -2.63      0.00
    8   17    8     -2.02      0.00
    9   17    8     17.88      0.00
   10   17    8     14.96      0.00
   11   17    8      5.06      0.00
   12   17    8     -6.41      0.00
    7   18    8      9.47      0.00
    8   18    8     13.27      0.00
    9   18    8     -0.80      0.00
   10   18    8     -9.34      0.00
    7   19    8      0.70      0.00
    8   19    8      5.80      0.00
    3   20    8      1.13      0.00
    4   20    8     23.60      0.00
    5   20    8     -2.53      0.00
    6   20    8      4.45      0.00
    9   11    9     19.48      0.00
   10   11    9     -4.25      0.00
   10   12    9      3.05      0.00
   11   12    9     -1.33      0.00
    8   13    9    -19.99      0.00
    9   13    9    -11.53      0.00
   10   13    9     11.33      0.00
   11   13    9     13.32      0.00
   12   13    9     10.09      0.00
    8   14    9     32.05      0.00
    9   14    9     11.23      0.00
   10   14    9      2.57      0.00
   11   14    9     14.43      0.00
   12   14    9     -4.51      0.00
   13   14    9     -6.32      0.00
    8   15    9      4.84      0.00
    9   15    9     -2.40      0.00
   10   15    9    -10.90      0.00
   11   15    9     -4.01      0.00
   12   15    9    -10.74      0.00
   13   15    9     -0.39      0.00
   14   15    9     -1.98      0.00
    8   16    9      8.16      0.00
    9   16    9    -20.97      0.00
   10   16    9    -15.49      0.00
   11   16    9    -10.63      0.00
   12   16    9      8.34      0.00
   13   16    9     -4.96      0.00
    8   17    9      4.28      0.00
    9   17    9      9.81      0.00
   10   17    9     10.67      0.00
   11   17    9      5.91      0.00
   12   17    9      2.52      0.00
    8   18    9     -0.68      0.00
    9   18    9      5.16      0.00
   10   18    9      8.07      0.00
    6   19    9    -11.47      0.00
    7   19    9     -9.01      0.00
    8   19    9     12.77      0.00
    2   20    9     14.14      0.00
    3   20    9     -9.14      0.00
    4   20    9     -8.20      0.00
    5   20    9     11.99      0.00
    9   10   10     -0.08      0.00
   10   10   10    -10.24      0.00
    9   11   10      1.30      0.00
   10   11   10      1.32      0.00
   11   11   10    -14.08      0.00
    8   12   10      5.95      0.00
   10   12   10     20.73      0.00
   11   12   10      6.60      0.00
   12   12   10     -8.05      0.00
    8   13   10      4.44      0.00
    9   13   10     10.05      0.00
   10   13   10     23.88      0.00
   11   13   10      5.86      0.00
   12   13   10     -2.58      0.00
   13   13   10      0.07      0.00
    8   14   10      3.87      0.00
    9   14   10      5.78      0.00
   10   14   10     -8.64      0.00
   11   14   10    -14.85      0.00
   12   14   10    -10.77      0.00
   13   14   10     -5.45      0.00
   14   14   10     -3.26      0.00
    8   15   10      3.83      0.00
    9   15   10    -14.73      0.00
   10   15   10    -17.86      0.00
   11   15   10      5.42      0.00
   12   15   10     12.11      0.00
   13   15   10      5.45      0.00
   14   15   10     -6.24      0.00
    8   16   10     30.33      0.00
    9   16   10     -0.08      0.00
   10   16   10     -5.84      0.00
   11   16   10     14.95      0.00
   12   16   10      3.05      0.00
   13   16   10      4.53      0.00
    8   17   10     -3.26      0.00
    9   17   10      0.56      0.00
   10   17   10     -8.99      0.00
   11   17   10     -6.01      0.00
    8   18   10     -4.66      0.00
    9   18   10     -3.60      0.00
   10   18   10     -8.92      0.00
    6   19   10    -15.70      0.00
    7   19   10    -10.59      0.00
    8   19   10     15.57      0.00
    2   20   10      0.50      0.00
    3   20   10     19.96      0.00
    4   20   10     -2.98      0.00
    5   20   10    -11.43      0.00
    8   11   11      5.67      0.00
   11   12   11    -15.75      0.00
   11   13   11      0.71      0.00
   12   13   11     -5.00      0.00
    9   14   11      5.55      0.00
   10   14   11     -0.22      0.00
   11   14   11      7.61      0.00
   12   14   11      0.24      0.00
   13   14   11      4.85      0.00
    9   15   11     11.17      0.00
   10   15   11     -5.08      0.00
   11   15   11      1.53      0.00
   12   15   11     -0.56      0.00
   13   15   11    -11.98      0.00
    8   16   11    -14.35      0.00
    9   16   11     -4.27      0.00
   10   16   11     11.44      0.00
   11   16   11      1.31      0.00
   12   16   11    -20.03      0.00
    8   17   11     -7.12      0.00
    9   17   11     -8.31      0.00
   10   17   11     -0.04      0.00
   11   17   11      0.42      0.00
    8   18   11    -12.05      0.00
    9   18   11     -7.00      0.00
    6   19   11      4.97      0.00
    7   19   11    -15.28      0.00
    1   20   11      1.39      0.00
    2   20   11      1.32      0.00
    3   20   11     21.17      0.00
    4   20   11     -9.16      0.00
   11   11   12     12.31      0.00
   11   12   12     16.45      0.00
   12   12   12    -17.09      0.00
   11   13   12    -24.46      0.00
   12   13   12     -3.98      0.00
   13   13   12     22.92      0.00
    9   14   12     23.09      0.00
   10   14   12     22.52      0.00
   11   14   12      0.63      0.00
   12   14   12      1.12      0.00
   13   14   12      3.34      0.00
   14   14   12     -9.14      0.00
    9   15   12     -3.89      0.00
   10   15   12     -7.84      0.00
   11   15   12     10.85      0.00
   12   15   12     -6.59      0.00
   13   15   12     -6.20      0.00
    9   16   12    -12.88      0.00
   10   16   12      9.26      0.00
   11   16   12      6.72      0.00
   12   16   12      3.68      0.00
    9   17   12     -9.42      0.00
   10   17   12     -4.75      0.00
   11   17   12     -8.60      0.00
    8   18   12      4.00      0.00
    9   18   12      3.34      0.00
    5   19   12     -6.09      0.00
    6   19   12     -6.98      0.00
    7   19   12     -5.89      0.00
    0   20   12      9.39      0.00
    1   20   12      5.68      0.00
    2   20   12     -0.42      0.00
    3   20   12     -4.86      0.00
    6   12   13     -7.56      0.00
   11   12   13      8.03      0.00
   11   13   13      2.16      0.00
   12   13   13     20.87      0.00
    9   14   13      2.91      0.00
   10   14   13     16.53      0.00
   11   14   13     -3.27      0.00
   12   14   13     -1.39      0.00
   13   14   13     10.25      0.00
    9   15   13      5.14      0.00
   10   15   13     -4.47      0.00
   11   15   13      4.56      0.00
   12   15   13    -20.35      0.00
   13   15   13     11.94      0.00
    9   16   13     -7.48      0.00
   10   16   13      1.37      0.00
   11   16   13     17.36      0.00
   12   16   13     -2.67      0.00
    9   17   13     -1.14      0.00
   10   17   13     -0.48      0.00
    9   18   13     -4.85      0.00
    4   19   13     -9.95      0.00
    5   19   13      9.87      0.00
    6   19   13     -3.58      0.00
    1   20   13      8.27      0.00
    2   20   13    -10.78      0.00
    8    8   14     46.05      0.00
   11   11   14     50.02      0.00
    5   12   14     18.89      0.00
   12   12   14     -8.88      0.00
   12   13   14      1.67      0.00
   13   13   14     10.54      0.00
    8   14   14    -35.89      0.00
    9   14   14     -5.99      0.00
   10   14   14     12.58      0.00
   11   14   14      2.04      0.00
   12   14   14      0.13      0.00
   13   14   14      4.08      0.00
   14   14   14     -1.60      0.00
    9   15   14     15.85      0.00
   10   15   14     28.29      0.00
   11   15   14     -4.14      0.00
   12   15   14     -8.70      0.00
   13   15   14     -2.90      0.00
    9   16   14     -3.75      0.00
   10   16   14      6.46      0.00
   11   16   14     -3.25      0.00
    9   17   14    -13.53      0.00
   10   17   14     -4.58      0.00
    1   19   14      9.66      0.00
    2   19   14     -2.09      0.00
    3   19   14    -12.81      0.00
    4   19   14      7.18      0.00
    5   19   14      6.24      0.00
    7    8   15     20.63      0.00
    3   12   15    -16.19      0.00
   12   13   15     -5.63      0.00
    8   14   15      1.31      0.00
    9   14   15     -6.53      0.00
   11   14   15     18.89      0.00
   12   14   15     -2.79      0.00
   13   14   15     12.96      0.00
    8   15   15     -5.59      0.00
    9   15   15     26.99      0.00
   10   15   15     11.85      0.00
   11   15   15     -3.42      0.00
   12   15   15    -11.89      0.00
    8   16   15     -9.44      0.00
    9   16   15     -1.17      0.00
   10   16   15     -5.21      0.00
   11   16   15     -7.57      0.00
    8   17   15      3.96      0.00
    9   17   15    -11.45      0.00
    0   19   15    -25.20      0.00
    1   19   15     20.84      0.00
    2   19   15     15.06      0.00
    3   19   15      7.20      0.00
    4   19   15     -2.47      0.00
    5   19   15     -9.80      0.00
    7    7   16     -0.89      0.00
   12   12   16     -2.89      0.00
   12   13   16     -4.59      0.00
   13   13   16    -15.17      0.00
    6   14   16     -8.46      0.00
   12   14   16    -14.83      0.00
   13   14   16     -5.61      0.00
    7   15   16    -32.01      0.00
    8   15   16     -3.55      0.00
    9   15   16      6.25      0.00
   10   15   16     -1.31      0.00
   11   15   16      3.29      0.00
   12   15   16     10.49      0.00
    7   16   16    -13.66      0.00
    8   16   16      7.17      0.00
    9   16   16      6.42      0.00
   10   16   16    -10.90      0.00
    7   17   16      2.28      0.00
    8   17   16     -3.97      0.00
    9   17   16     -6.74      0.00
    7   18   16      9.54      0.00
    1   19   16     12.87      0.00
    2   19   16     -9.58      0.00
    3   19   16    -18.57      0.00
    6    7   17    -11.77      0.00
    5    8   17     10.89      0.00
   12   13   17      4.25      0.00
   12   14   17      0.77      0.00
   13   14   17      6.87      0.00
    5   15   17     42.39      0.00
    6   15   17    -13.57      0.00
    7   15   17      0.62      0.00
    8   15   17     -2.95      0.00
    9   15   17     16.99      0.00
   10   15   17      0.69      0.00
   11   15   17    -12.02      0.00
    6   16   17     27.63      0.00
    7   16   17     -1.41      0.00
    8   16   17    -15.69      0.00
    9   16   17      2.57      0.00
   10   16   17     10.87      0.00
    6   17   17     12.99      0.00
    7   17   17    -15.43      0.00
    8   17   17     -5.82      0.00
    6   18   17    -19.59      0.00
    0   19   17     -1.72      0.00
    1   19   17      9.59      0.00
    2   19   17     10.61      0.00
    0    0   18      3.18      0.00
    6    6   18     -5.91      0.00
    5    7   18      3.54      0.00
   13   13   18     -3.77      0.00
    4   15   18     -4.97      0.00
    5   15   18    -21.40      0.00
    6   15   18      5.48      0.00
    7   15   18     25.74      0.00
    8   15   18     12.80      0.00
    9   15   18      0.97      0.00
   10   15   18     -4.48      0.00
   11   15   18     -6.82      0.00
    5   16   18      6.59      0.00
    6   16   18     -4.32      0.00
    7   16   18     -2.62      0.00
    8   16   18     -3.87      0.00
    9   16   18     -8.89      0.00
    5   17   18     -8.29      0.00
    6   17   18     -7.81      0.00
    7   17   18    -13.17      0.00
    8   17   18     -1.11      0.00
    4   18   18     17.83      0.00
    5   18   18     -6.59      0.00
    5    6   19    -19.02      0.00
   12   14   19     -5.71      0.00
    3   15   19     18.55      0.00
    4   15   19    -33.22      0.00
    5   15   19    -25.98      0.00
    6   15   19     18.01      0.00
    7   15   19     -0.43      0.00
    8   15   19    -12.86      0.00
    9   15   19     -8.19      0.00
   10   15   19     14.03      0.00
    3   16   19    -13.70      0.00
    4   16   19     -5.93      0.00
    5   16   19     -5.75      0.00
    6   16   19    -20.76      0.00
    7   16   19      6.54      0.00
    8   16   19      5.66      0.00
    9   16   19      6.42      0.00
    3   17   19      7.67      0.00
    4   17   19     -6.72      0.00
    5   17   19      5.82      0.00
    6   17   19      1.78      0.00
    7   17   19      9.11      0.00
    3   18   19    -18.00      0.00
    4   18   19    -16.11      0.00
    0    0   20     70.49      0.00
    5    5   20    -19.02      0.00
    4    6   20     -5.93      0.00
   12   13   20     -0.60      0.00
   11   14   20     -0.53      0.00
    2   15   20     -5.38      0.00
    3   15   20     25.70      0.00
    4   15   20      5.40      0.00
    5   15   20     -1.07      0.00
    6   15   20    -20.72      0.00
    7   15   20     -8.45      0.00
    8   15   20     -0.14      0.00
    9   15   20      0.19      0.00
   10   15   20      5.77      0.00
    2   16   20      9.89      0.00
    3   16   20     19.55      0.00
    4   16   20      0.20      0.00
    5   16   20     -6.75      0.00
    6   16   20     17.41      0.00
    7   16   20     -5.79      0.00
    8   16   20      9.05      0.00
    2   17   20      5.03      0.00
    3   17   20      1.05      0.00
    4   17   20     -2.96      0.00
    5   17   20    -14.19      0.00
    6   17   20      7.11      0.00
    0   18   20     20.87      0.00
    1   18   20      8.23      0.00
    2   18   20    -10.03      0.00
    4    5   21    -15.31      0.00
    0   13   21    -60.87      0.00
   12   13   21     30.28      0.00
    2   15   21     21.17      0.00
    3   15   21     -2.72      0.00
    4   15   21     14.45      0.00
    5   15   21     -0.76      0.00
    6   15   21     -1.40      0.00
    7   15   21     14.98      0.00
    9   15   21     11.25      0.00
    2   16   21    -14.09      0.00
    3   16   21      1.56      0.00
    4   16   21      4.35      0.00
    5   16   21     -2.79      0.00
    6   16   21      5.36      0.00
    7   16   21     -6.63      0.00
    2   17   21     -5.41      0.00
    3   17   21     18.77      0.00
    4   17   21     14.64      0.00
    5   17   21      8.46      0.00
    0    0   22     15.52      0.00
   12   12   22     -0.95      0.00
   11   13   22     -9.93      0.00
    0   14   22     56.50      0.00
    1   14   22     25.24      0.00
   10   14   22      3.24      0.00
    2   15   22     -5.32      0.00
    3   15   22     24.22      0.00
    4   15   22     -5.18      0.00
    5   15   22    -21.28      0.00
    0   16   22     51.92      0.00
    2   16   22     33.33      0.00
    3   16   22    -14.24      0.00
    4   16   22    -16.43      0.00
    5   16   22      1.96      0.00
    6   16   22     16.11      0.00
    1   17   22      7.89      0.00
    2   17   22     -6.77      0.00
    3   17   22     -3.79      0.00
   11   12   23    -22.60      0.00
    0   13   23    -11.58      0.00
    1   13   23      3.42      0.00
   10   13   23      5.99      0.00
    1   14   23     10.02      0.00
    9   14   23    -13.24      0.00
    0   15   23     35.01      0.00
    1   15   23     16.46      0.00
    2   15   23      9.59      0.00
    3   15   23     12.14      0.00
    1   16   23     -1.94      0.00
    2   16   23      7.89      0.00
    3   16   23    -23.20      0.00
    4   16   23    -13.58      0.00
    5   16   23    -11.56      0.00
    0    0   24    -79.93      0.00
    0    4   24      8.71      0.00
   11   11   24     11.08      0.00
   10   12   24     12.94      0.00
   11   12   24      3.83      0.00
    1   13   24     22.01      0.00
    9   13   24      0.32      0.00
   10   13   24     11.80      0.00
    0   14   24    -12.81      0.00
    1   14   24     21.76      0.00
    8   14   24     12.09      0.00
    1   15   24     -2.54      0.00
    2   15   24     -1.84      0.00
    0   16   24     28.91      0.00
    1   16   24      5.16      0.00
    2   16   24     -6.24      0.00
    3   16   24      8.27      0.00
    0    1   25    -27.71      0.00
    0    3   25    -36.13      0.00
   10   11   25     -4.79      0.00
    9   12   25      9.18      0.00
   10   12   25    -20.29      0.00
    8   13   25    -12.18      0.00
    9   13   25     13.93      0.00
    1   14   25     -8.64      0.00
    2   14   25     31.31      0.00
    7   14   25     -1.17      0.00
    0   15   25     -1.69      0.00
    1   15   25    -15.62      0.00
    2   15   25    -22.25      0.00
    5   15   25      1.41      0.00
    0    0   26     32.08      0.00
    1    1   26      3.14      0.00
   10   10   26     -7.15      0.00
    9   11   26     13.05      0.00
   10   11   26    -11.55      0.00
    8   12   26     28.99      0.00
    9   12   26      1.99      0.00
    7   13   26     -8.93      0.00
    8   13   26     19.53      0.00
    0   14   26    -12.48      0.00
    1   14   26      8.26      0.00
    2   14   26     -1.80      0.00
    5   14   26     -4.16      0.00
    6   14   26     29.57      0.00
    1   15   26     20.04      0.00
    2   15   26     -0.20      0.00
    3   15   26      9.72      0.00
    0    1   27     38.03      0.00
    9   10   27      6.56      0.00
    8   11   27     13.01      0.00
    9   11   27     -1.36      0.00
    7   12   27    -13.14      0.00
    8   12   27      2.79      0.00
    5   13   27      2.36      0.00
    6   13   27     -5.24      0.00
    7   13   27    -17.13      0.00
    1   14   27     18.80      0.00
    2   14   27     11.57      0.00
    3   14   27    -10.70      0.00
    4   14   27     14.88      0.00
    0    0   28    -35.44      0.00
    1    1   28     14.29      0.00
    9    9   28     -3.46      0.00
    8   10   28    -14.87      0.00
    9   10   28     11.28      0.00
   10   10   28    -10.49      0.00
    7   11   28      5.34      0.00
    8   11   28      6.37      0.00
    9   11   28     -8.65      0.00
    5   12   28    -18.70      0.00
    6   12   28     17.16      0.00
    7   12   28     -7.58      0.00
    3   13   28     22.10      0.00
    4   13   28      8.17      0.00
    5   13   28     -2.38      0.00
    0   14   28     -1.76      0.00
    1   14   28    -13.83      0.00
    2   14   28      2.23      0.00
    0    1   29    -35.08      0.00
    2    9   29     21.64      0.00
    8    9   29    -17.90      0.00
    7   10   29     -9.44      0.00
    8   10   29     -5.62      0.00
    9   10   29     15.57      0.00
    5   11   29     -6.04      0.00
    6   11   29     16.89      0.00
    7   11   29      9.65      0.00
    3   12   29      2.72      0.00
    4   12   29      0.03      0.00
    5   12   29     -7.38      0.00
    6   12   29      5.65      0.00
    1   13   29      0.34      0.00
    2   13   29     -6.02      0.00
    3   13   29     -5.08      0.00
    0    0   30    -30.02      0.00
    1    1   30     16.39      0.00
    0    2   30     13.63      0.00
    1    2   30     20.58      0.00
    2    2   30     24.03      0.00
    8    8   30     -6.37      0.00
    6    9   30      2.31      0.00
    7    9   30     -9.74      0.00
    8    9   30     15.73      0.00
    9    9   30     14.85      0.00
    5   10   30    -18.76      0.00
    6   10   30    -10.66      0.00
    7   10   30     10.52      0.00
    8   10   30      3.26      0.00
    4   11   30     -5.40      0.00
    5   11   30      4.49      0.00
    6   11   30      1.96      0.00
    2   12   30    -12.25      0.00
    3   12   30     -8.59      0.00
    4   12   30      5.79      0.00
    0    1   31     10.25      0.00
    1    2   31     -5.03      0.00
    6    8   31     -4.68      0.00
    7    8   31     -2.29      0.00
    5    9   31     12.94      0.00
    6    9   31     12.33      0.00
    7    9   31     -0.85      0.00
    4   10   31     10.01      0.00
    5   10   31      8.76      0.00
    6   10   31      9.99      0.00
    2   11   31    -32.25      0.00
    3   11   31     -5.05      0.00
    4   11   31     19.62      0.00
    0    0   32     68.91      0.00
    1    1   32    -16.28      0.00
    0    2   32     10.07      0.00
    1    2   32      3.98      0.00
    2    2   32    -22.63      0.00
    3    3   32     -9.97      0.00
    6    7   32      8.68      0.00
    7    7   32     -1.99      0.00
    5    8   32     -5.69      0.00
    6    8   32     -3.78      0.00
    7    8   32      0.08      0.00
    4    9   32    -11.82      0.00
    5    9   32      1.23      0.00
    6    9   32      3.92      0.00
    2   10   32     34.56      0.00
    3   10   32     34.81      0.00
    4   10   32    -14.08      0.00
    1   11   32      0.10      0.00
    0    1   33    -17.34      0.00
    1    2   33     -0.29      0.00
    0    3   33     13.25      0.00
    1    3   33     -9.04      0.00
    2    3   33      8.61      0.00
    5    6   33     12.37      0.00
    5    7   33     -8.40      0.00
    6    7   33     -4.47      0.00
    4    8   33    -10.37      0.00
    5    8   33    -15.36      0.00
    6    8   33      3.20      0.00
    0    9   33    -16.68      0.00
    2    9   33      4.25      0.00
    3    9   33     -0.65      0.00
    4    9   33     -6.30      0.00
    1   10   33    -11.23      0.00
    0    0   34     65.41      0.00
    1    1   34     -6.02      0.00
    0    2   34    -42.65      0.00
    1    2   34     10.30      0.00
    2    2   34     24.32      0.00
    1    3   34      7.38      0.00
    2    3   34     52.60      0.00
    3    3   34    -13.83      0.00
    5    5   34    -20.69      0.00
    4    6   34      3.79      0.00
    5    6   34    -14.59      0.00
    6    6   34     -8.49      0.00
    3    7   34     -9.28      0.00
    4    7   34     -9.26      0.00
    5    7   34      9.29      0.00
    0    8   34    -24.60      0.00
    2    8   34      9.98      0.00
    3    8   34    -13.42      0.00
    4    8   34      2.54      0.00
    0    1   35     20.72      0.00
    1    2   35    -29.22      0.00
    0    3   35     16.45      0.00
    1    3   35     38.89      0.00
    2    3   35     -0.14      0.00
    3    4   35    -11.75      0.00
    0    5   35     15.72      0.00
    3    5   35    -28.15      0.00
    4    5   35     -4.33      0.00
    2    6   35    -15.54      0.00
    3    6   35      7.21      0.00
    4    6   35     15.68      0.00
    0    7   35      4.84      0.00
    1    7   35     -7.77      0.00
    2    7   35     -3.60      0.00
    0    0    0      0.00      0.00
# SQUEEZE RESULTS (Version =  70515)
# Note: Data are Listed for all Voids in the P1 Unit Cell
# i.e. Centre of Gravity, Solvent Accessible Volume,
# Recovered number of Electrons in the Void and
# Details about the Squeezed Material
loop_
  _platon_squeeze_void_nr
  _platon_squeeze_void_average_x
  _platon_squeeze_void_average_y
  _platon_squeeze_void_average_z
  _platon_squeeze_void_volume
  _platon_squeeze_void_count_electrons
  _platon_squeeze_void_content
   1 -0.012  0.402 -0.003      8543      2834 ' '
# Missing Reflections Below sin(th)/lambda = 0.25
loop_
  _platon_missing_refln_index_h
  _platon_missing_refln_index_k
  _platon_missing_refln_index_l
  _platon_missing_refln_theta
    1    1    0     1.469
    2    2    0     2.939
    3    3    0     4.410
    4    4    0     5.885
    3    5    0     6.067
    4    5    0     6.665
    5    5    0     7.363
    5    6    0     8.138
    6    6    0     8.847
    5    7    0     8.970
    6    7    0     9.619
    0    1    1     1.197
    4    5    1     6.691
    5    6    1     8.160
    6    7    1     9.638
    0    0    2     1.191
    1    1    2     1.891
    4    4    2     6.005
    4    5    2     6.771
    5    5    2     7.460
    5    6    2     8.226
    6    6    2     8.928
    6    7    2     9.694
    4    5    3     6.902
    6    7    3     9.787
    6    6    4     9.167
_platon_squeeze_void_probe_radius                  1.20
_platon_squeeze_details
)
TITL g2yy_12xneP 4/m n cl   R = 0.31
CELL   19.0042   19.0042   33.1520     90.00     90.00     90.00
SPGR P4/mnc
# Solvent Accessible Volume =    8616.9
# Electrons Found in S.A.V. =    2769.6
# Note: Atoms in Void as Cxxx and Qxxx all others
C101 0.500 1.000 0.500 !       2.67 eA-3
Q102 0.374 0.281 0.503 !       2.60 eA-3
C103 0.319 0.141-0.003 !       2.56 eA-3
C104 0.231 0.540 0.205 !       2.54 eA-3
Q105 0.605 0.318 0.391 !       2.52 eA-3
C106 0.500 0.491 0.328 !       2.51 eA-3
Q107 0.329 0.999 0.038 !       2.44 eA-3
C108 0.125 0.500 0.000 !       2.43 eA-3
C109 0.284 0.376 0.393 !       2.33 eA-3
C110 0.263 0.890 0.068 !       2.33 eA-3
Q111 0.500 0.493 0.445 !       2.32 eA-3
C112 0.584 0.391 0.000 !       2.28 eA-3
C113 0.667 0.163 0.018 !       2.26 eA-3
C114 0.196 0.457 0.212 !       2.23 eA-3
C115 0.722 0.124 0.469 !       2.23 eA-3
Q116 0.363 0.564 0.483 !       2.21 eA-3
Q117 0.643 0.422 0.497 !       2.21 eA-3
C118 0.271 0.715 0.189 !       2.18 eA-3
C119 0.313 0.017 0.313 !       2.15 eA-3
C120 0.672 0.172 0.250 !       2.10 eA-3
C121 0.252 0.754 0.156 !       2.05 eA-3
C122 0.246 0.563 0.171 !       2.05 eA-3
C123 0.176 0.658 0.469 !       2.04 eA-3
C124 0.205 0.483 0.189 !       2.00 eA-3
C125 0.295 0.985 0.314 !       1.99 eA-3
C126 0.795 0.598 0.061 !       1.98 eA-3
C127 0.642 0.286 0.140 !       1.97 eA-3
Q128 0.744 0.250 0.000 !       1.97 eA-3
C129 0.282 0.982 0.331 !       1.97 eA-3
C130 0.719 0.686 0.306 !       1.96 eA-3
C131 0.232 0.257 0.929 !       1.96 eA-3
C132 0.768 0.743 0.071 !       1.96 eA-3
Q133 0.921 0.109 0.000 !       1.96 eA-3
C134 0.737 0.377 0.091 !       1.95 eA-3
C135 0.623 0.301 0.353 !       1.95 eA-3
C136 0.022 0.591 0.385 !       1.94 eA-3
C137 0.277 0.195 0.056 !       1.92 eA-3
Q138 0.486 0.359 0.500 !       1.92 eA-3
C139 0.704 0.314 0.015 !       1.92 eA-3
C140 0.184 0.456 0.154 !       1.92 eA-3
C141 0.828 0.667 0.385 !       1.92 eA-3
C142 0.331 0.371 0.241 !       1.91 eA-3
C143 0.798 0.564 0.093 !       1.91 eA-3
C144 0.602 0.237 0.346 !       1.90 eA-3
C145 0.380 0.209 0.047 !       1.87 eA-3
C146 0.234 0.247 0.469 !       1.87 eA-3
C147 0.373 0.424 0.233 !       1.87 eA-3
C148 0.315 0.673 0.183 !       1.87 eA-3
C149 0.794 0.297 0.502 !       1.86 eA-3
Q150 0.204 0.434 0.449 !       1.85 eA-3
C151 0.260 0.919 0.315 !       1.84 eA-3
C152 0.760 0.216 0.937 !       1.84 eA-3
C153 0.291 0.922 0.094 !       1.82 eA-3
C154 0.185 0.350 0.244 !       1.82 eA-3
C155 0.347 0.454 0.203 !       1.81 eA-3
C156 0.131 0.391 0.497 !       1.81 eA-3
C157 0.500 0.502 0.219 !       1.80 eA-3
Q158 0.845 0.060 0.156 !       1.80 eA-3
Q159 0.864 0.624 0.307 !       1.80 eA-3
C160 0.029 0.544 0.417 !       1.79 eA-3
C161 0.267 0.485 0.206 !       1.77 eA-3
Q162 0.777 0.205 0.237 !       1.77 eA-3
Q163 0.610 0.485 0.502 !       1.77 eA-3
C164 0.972 0.645 0.389 !       1.77 eA-3
C165 0.855 0.304 0.408 !       1.76 eA-3
C166 0.137 0.297 0.499 !       1.76 eA-3
Q167 0.863 0.281-0.001 !       1.75 eA-3
C168 0.265 0.581 0.017 !       1.75 eA-3
C169 0.217 0.214 0.368 !       1.74 eA-3
Q170 0.715 0.550 0.352 !       1.74 eA-3
C171 0.200 0.926 0.077 !       1.74 eA-3
C172 0.717 0.864 0.476 !       1.73 eA-3
Q173 0.459 0.297 0.498 !       1.73 eA-3
C174 0.628 0.984 0.455 !       1.73 eA-3
C175 0.644 0.312 0.283 !       1.72 eA-3
Q176 0.737 0.803 0.087 !       1.72 eA-3
Q177 0.944 0.297 0.001 !       1.72 eA-3
C178 0.206 0.018 0.343 !       1.71 eA-3
C179 0.779 0.640 0.090 !       1.71 eA-3
C180 0.119 0.206 0.075 !       1.70 eA-3
C181 0.049 0.499 0.401 !       1.70 eA-3
C182 0.088 0.172 0.500 !       1.69 eA-3
C183 0.686 0.644 0.306 !       1.68 eA-3
C184 0.715 0.626 0.273 !       1.68 eA-3
C185 0.176 0.179 0.354 !       1.68 eA-3
Q186 0.174 0.582 0.182 !       1.67 eA-3
C187 0.769 0.155 0.455 !       1.67 eA-3
C188 0.600 0.861 0.478 !       1.66 eA-3
Q189 0.701 0.109 0.001 !       1.66 eA-3
Q190 0.207 0.720 0.248 !       1.66 eA-3
C191 0.359 0.774 0.392 !       1.66 eA-3
C192 0.218 0.394 0.166 !       1.66 eA-3
C193 0.325 0.844 0.088 !       1.65 eA-3
C194 0.655 0.951 0.476 !       1.64 eA-3
C195 0.349 0.414 0.266 !       1.63 eA-3
Q196 0.380 0.839 0.265 !       1.63 eA-3
C197 0.768 0.371 0.073 !       1.63 eA-3
Q198 0.405 0.064 0.345 !       1.63 eA-3
C199 0.250 0.728 0.123 !       1.61 eA-3
)
;
_shelx_shelxl_version_number     2014/7
_olex2_submission_special_instructions 'No special instructions were received'
loop_
_space_group_symop_operation_xyz
'x, y, z'
'-x, -y, z'
'-y, x, z'
'y, -x, z'
'-x+1/2, y+1/2, -z+1/2'
'x+1/2, -y+1/2, -z+1/2'
'y+1/2, x+1/2, -z+1/2'
'-y+1/2, -x+1/2, -z+1/2'
'-x, -y, -z'
'x, y, -z'
'y, -x, -z'
'-y, x, -z'
'x-1/2, -y-1/2, z-1/2'
'-x-1/2, y-1/2, z-1/2'
'-y-1/2, -x-1/2, z-1/2'
'y-1/2, x-1/2, z-1/2'
loop_
_atom_site_label
_atom_site_type_symbol
_atom_site_fract_x
_atom_site_fract_y
_atom_site_fract_z
_atom_site_U_iso_or_equiv
_atom_site_adp_type
_atom_site_occupancy
_atom_site_site_symmetry_order
_atom_site_calc_flag
_atom_site_refinement_flags_posn
_atom_site_refinement_flags_adp
_atom_site_refinement_flags_occupancy
_atom_site_disorder_assembly
_atom_site_disorder_group
Zr1 Zr 0.12426(17) 0.0446(2) 0.0000 0.0627(17) Uani 1 2 d S TU P . .
Zr2 Zr 0.0000 0.0000 0.07354(13) 0.0506(19) Uani 1 4 d S TU P . .
O5 O -0.0282(6) 0.0914(6) 0.1081(3) 0.105(4) Uani 1 1 d . U . . .
O2 O 0.1741(6) 0.0619(6) -0.0597(4) 0.116(5) Uani 1 1 d . U . . .
O4 O 0.0404(6) 0.0839(6) 0.0366(3) 0.108(4) Uani 1 1 d . U . . .
O3 O 0.1688(10) 0.1516(10) 0.0000 0.143(6) Uani 1 2 d S TU P . .
O1 O 0.2245(8) -0.0168(11) 0.0000 0.142(7) Uani 1 2 d S TU P . .
C11 C -0.0262(10) 0.4158(8) 0.2228(5) 0.150(7) Uani 1 1 d D U . . .
C3 C -0.0501(9) 0.1958(12) 0.1704(7) 0.213(7) Uani 1 1 d D U . . .
H3 H -0.0341 0.1503 0.1752 0.255 Uiso 1 1 calc R . . . .
C12 C -0.02803(19) 0.47197(19) 0.2500 0.132(8) Uani 1 2 d DS TU P . .
C1 C -0.0598(8) 0.1518(12) 0.1002(7) 0.153(7) Uani 1 1 d D U . . .
C4 C -0.0553(11) 0.2388(12) 0.2045(6) 0.206(7) Uani 1 1 d D U . . .
H4 H -0.0463 0.2254 0.2310 0.248 Uiso 1 1 calc R . . . .
C8 C -0.0795(8) 0.3657(11) 0.2211(6) 0.156(6) Uani 1 1 d D U . . .
C13 C 0.0343(10) 0.4124(10) 0.1931(6) 0.183(10) Uani 1 1 d D U . . .
H13A H 0.0425 0.4583 0.1820 0.275 Uiso 1 1 calc GR . . . .
H13B H 0.0228 0.3802 0.1718 0.275 Uiso 1 1 calc GR . . . .
H13C H 0.0759 0.3965 0.2067 0.275 Uiso 1 1 calc GR . . . .
C2 C -0.0656(6) 0.2113(11) 0.1302(7) 0.200(7) Uani 1 1 d D U . . .
C5 C -0.0763(10) 0.3057(12) 0.1917(7) 0.186(6) Uani 1 1 d D U . . .
C7 C -0.0866(11) 0.2784(12) 0.1181(7) 0.222(8) Uani 1 1 d D U . . .
H7 H -0.0955 0.2919 0.0916 0.266 Uiso 1 1 calc R . . . .
C9 C -0.1322(10) 0.3678(10) 0.2500 0.165(9) Uani 1 2 d DS TU P . .
C6 C -0.0922(11) 0.3220(12) 0.1517(7) 0.213(7) Uani 1 1 d D U . . .
H6 H -0.1084 0.3674 0.1469 0.255 Uiso 1 1 calc R . . . .
C10 C -0.1881(10) 0.3119(10) 0.2500 0.198(13) Uani 1 2 d DS TU P . .
H10A H -0.1795 0.2794 0.2284 0.298 Uiso 0.5 1 calc R . . A -1
H10B H -0.1872 0.2871 0.2752 0.298 Uiso 0.5 1 calc R . . A -1
H10C H -0.2334 0.3334 0.2464 0.298 Uiso 0.5 1 calc R . . A -1
loop_
_atom_site_aniso_label
_atom_site_aniso_U_11
_atom_site_aniso_U_22
_atom_site_aniso_U_33
_atom_site_aniso_U_23
_atom_site_aniso_U_13
_atom_site_aniso_U_12
Zr1 0.062(3) 0.093(3) 0.033(3) 0.000 0.000 -0.002(3)
Zr2 0.065(3) 0.065(3) 0.023(3) 0.000 0.000 0.000
O5 0.124(10) 0.114(8) 0.077(8) -0.033(6) 0.019(7) 0.016(8)
O2 0.112(9) 0.163(11) 0.073(8) 0.022(6) 0.014(6) -0.040(9)
O4 0.120(8) 0.124(9) 0.080(8) 0.037(6) 0.017(7) 0.026(8)
O3 0.154(14) 0.140(10) 0.134(13) 0.000 0.000 -0.039(9)
O1 0.102(10) 0.195(14) 0.128(14) 0.000 0.000 0.016(10)
C11 0.173(11) 0.165(12) 0.114(13) -0.043(9) 0.045(8) -0.001(11)
C3 0.321(17) 0.171(11) 0.146(12) -0.061(9) -0.023(12) 0.046(12)
C12 0.153(11) 0.153(11) 0.091(16) -0.028(9) 0.028(9) 0.006(13)
C1 0.211(14) 0.134(9) 0.115(11) -0.050(8) -0.008(11) 0.053(9)
C4 0.295(16) 0.171(11) 0.153(13) -0.063(9) -0.006(11) 0.028(12)
C8 0.177(11) 0.159(10) 0.133(12) -0.043(8) 0.041(8) -0.004(10)
C13 0.197(15) 0.215(19) 0.138(17) -0.061(15) 0.064(13) -0.017(15)
C2 0.306(15) 0.154(10) 0.140(12) -0.071(8) -0.023(11) 0.060(10)
C5 0.242(13) 0.170(10) 0.147(12) -0.053(8) 0.015(10) 0.018(10)
C7 0.347(17) 0.160(11) 0.157(13) -0.066(9) -0.020(11) 0.071(11)
C9 0.178(11) 0.178(11) 0.140(15) -0.045(9) 0.045(9) -0.011(13)
C6 0.316(16) 0.167(11) 0.156(13) -0.062(9) -0.005(11) 0.049(12)
C10 0.216(17) 0.216(17) 0.16(3) -0.070(16) 0.070(16) -0.048(19)
loop_
_atom_type_symbol
_atom_type_description
_atom_type_scat_dispersion_real
_atom_type_scat_dispersion_imag
_atom_type_scat_source
C C 0.0030 0.0010 'International Tables Vol C Tables 4.2.6.8 and 6.1.1.4'
H H 0.0000 0.0000 'International Tables Vol C Tables 4.2.6.8 and 6.1.1.4'
O O 0.0110 0.0060 'International Tables Vol C Tables 4.2.6.8 and 6.1.1.4'
Zr Zr -11.6050 0.5510 'International Tables Vol C Tables 4.2.6.8 and 6.1.1.4'
loop_
_geom_angle_atom_site_label_1
_geom_angle_atom_site_label_2
_geom_angle_atom_site_label_3
_geom_angle
_geom_angle_site_symmetry_1
_geom_angle_site_symmetry_3
Zr1 Zr1 Zr1 90.0 3 11
Zr2 Zr1 Zr1 59.53(4) 9 3
Zr2 Zr1 Zr1 59.53(4) 9 11
Zr2 Zr1 Zr1 59.53(4) . 11
Zr2 Zr1 Zr1 59.53(4) . 3
Zr2 Zr1 Zr2 88.37(12) 9 .
O2 Zr1 Zr1 108.8(3) 10 3
O2 Zr1 Zr1 108.5(4) . 11
O2 Zr1 Zr1 108.5(4) 10 11
O2 Zr1 Zr1 108.8(3) . 3
O2 Zr1 Zr2 72.7(3) 10 .
O2 Zr1 Zr2 161.0(4) . .
O2 Zr1 Zr2 161.0(4) 10 9
O2 Zr1 Zr2 72.7(3) . 9
O2 Zr1 O2 126.3(7) 10 .
O2 Zr1 O1 73.4(4) . .
O2 Zr1 O1 73.4(4) 10 .
O4 Zr1 Zr1 34.6(3) 10 3
O4 Zr1 Zr1 89.9(3) . 11
O4 Zr1 Zr1 89.9(3) 4 3
O4 Zr1 Zr1 89.9(3) 10 11
O4 Zr1 Zr1 34.2(3) 11 11
O4 Zr1 Zr1 89.9(3) 11 3
O4 Zr1 Zr1 34.2(3) 4 11
O4 Zr1 Zr1 34.6(3) . 3
O4 Zr1 Zr2 88.3(3) 4 9
O4 Zr1 Zr2 35.5(3) 10 9
O4 Zr1 Zr2 35.7(3) 4 .
O4 Zr1 Zr2 88.7(3) 10 .
O4 Zr1 Zr2 35.5(3) . .
O4 Zr1 Zr2 35.7(3) 11 9
O4 Zr1 Zr2 88.7(3) . 9
O4 Zr1 Zr2 88.3(3) 11 .
O4 Zr1 O2 140.6(5) 10 10
O4 Zr1 O2 139.8(5) 11 10
O4 Zr1 O2 76.2(4) 4 10
O4 Zr1 O2 76.1(4) 10 .
O4 Zr1 O2 139.8(5) 4 .
O4 Zr1 O2 76.1(4) . 10
O4 Zr1 O2 140.6(5) . .
O4 Zr1 O2 76.2(4) 11 .
O4 Zr1 O4 108.4(6) 10 4
O4 Zr1 O4 71.2(5) 10 11
O4 Zr1 O4 69.2(6) 10 .
O4 Zr1 O4 68.3(6) 11 4
O4 Zr1 O4 108.4(6) . 11
O4 Zr1 O4 71.2(5) . 4
O4 Zr1 O3 145.7(3) 4 .
O4 Zr1 O3 87.9(5) . .
O4 Zr1 O3 87.9(5) 10 .
O4 Zr1 O3 145.7(3) 11 .
O4 Zr1 O1 85.0(5) 11 .
O4 Zr1 O1 144.9(3) . .
O4 Zr1 O1 85.0(5) 4 .
O4 Zr1 O1 144.9(3) 10 .
O3 Zr1 Zr1 87.3(6) . 3
O3 Zr1 Zr1 177.3(6) . 11
O3 Zr1 Zr2 118.9(3) . .
O3 Zr1 Zr2 118.9(3) . 9
O3 Zr1 O2 72.5(4) . .
O3 Zr1 O2 72.5(4) . 10
O3 Zr1 O1 98.9(7) . .
O1 Zr1 Zr1 173.8(5) . 3
O1 Zr1 Zr1 83.8(5) . 11
O1 Zr1 Zr2 116.7(3) . 9
O1 Zr1 Zr2 116.7(3) . .
Zr1 Zr2 Zr1 60.94(7) 3 .
Zr1 Zr2 Zr1 60.94(7) 9 3
Zr1 Zr2 Zr1 60.94(7) 11 .
Zr1 Zr2 Zr1 60.94(7) 9 11
Zr1 Zr2 Zr1 91.63(12) 11 3
Zr1 Zr2 Zr1 91.63(12) 9 .
O5 Zr2 Zr1 76.5(3) 3 9
O5 Zr2 Zr1 110.2(3) 3 3
O5 Zr2 Zr1 167.9(4) . 11
O5 Zr2 Zr1 113.5(3) 4 3
O5 Zr2 Zr1 110.2(3) 2 9
O5 Zr2 Zr1 113.5(3) . 9
O5 Zr2 Zr1 113.5(3) 2 .
O5 Zr2 Zr1 167.9(4) 2 3
O5 Zr2 Zr1 113.5(3) 3 11
O5 Zr2 Zr1 167.9(4) 4 9
O5 Zr2 Zr1 110.2(3) . .
O5 Zr2 Zr1 167.9(4) 3 .
O5 Zr2 Zr1 110.2(3) 4 11
O5 Zr2 Zr1 76.5(3) . 3
O5 Zr2 Zr1 76.5(3) 4 .
O5 Zr2 Zr1 76.5(3) 2 11
O5 Zr2 O5 73.5(3) 3 2
O5 Zr2 O5 73.5(3) . 4
O5 Zr2 O5 115.5(7) . 2
O5 Zr2 O5 73.5(3) . 3
O5 Zr2 O5 115.5(7) 4 3
O5 Zr2 O5 73.5(3) 4 2
O5 Zr2 O4 141.0(4) 2 3
O5 Zr2 O4 144.4(5) 3 4
O5 Zr2 O4 78.1(4) 4 4
O5 Zr2 O4 144.4(5) 2 .
O5 Zr2 O4 78.1(4) 2 2
O5 Zr2 O4 144.4(5) . 2
O5 Zr2 O4 144.4(5) 4 3
O5 Zr2 O4 80.3(5) 4 .
O5 Zr2 O4 80.3(5) 3 2
O5 Zr2 O4 78.1(4) 3 3
O5 Zr2 O4 141.0(4) . 4
O5 Zr2 O4 78.1(4) . .
O5 Zr2 O4 141.0(4) 4 2
O5 Zr2 O4 80.2(5) . 3
O5 Zr2 O4 141.0(4) 3 .
O5 Zr2 O4 80.3(5) 2 4
O4 Zr2 Zr1 91.3(4) . 9
O4 Zr2 Zr1 35.2(3) 3 3
O4 Zr2 Zr1 35.9(3) 3 9
O4 Zr2 Zr1 35.2(3) . .
O4 Zr2 Zr1 91.3(4) 4 3
O4 Zr2 Zr1 91.0(3) . 11
O4 Zr2 Zr1 35.9(3) 4 .
O4 Zr2 Zr1 35.2(3) 2 9
O4 Zr2 Zr1 35.2(3) 4 11
O4 Zr2 Zr1 91.0(3) 3 .
O4 Zr2 Zr1 35.9(3) 2 11
O4 Zr2 Zr1 91.3(4) 3 11
O4 Zr2 Zr1 91.0(3) 4 9
O4 Zr2 Zr1 91.0(3) 2 3
O4 Zr2 Zr1 91.3(4) 2 .
O4 Zr2 Zr1 35.9(3) . 3
O4 Zr2 O4 71.1(3) . 4
O4 Zr2 O4 110.6(7) 3 4
O4 Zr2 O4 71.1(3) 2 4
O4 Zr2 O4 71.1(3) 2 3
O4 Zr2 O4 110.6(7) . 2
O4 Zr2 O4 71.1(3) . 3
C1 O5 Zr2 135.2(13) . .
C1 O2 Zr1 135.9(12) 11 .
Zr1 O4 Zr1 111.3(5) . 3
Zr1 O4 Zr2 109.3(5) . .
Zr2 O4 Zr1 108.4(5) . 3
C12 C11 C13 118.1(12) . .
C8 C11 C12 122.1(15) . .
C8 C11 C13 119.7(11) . .
C4 C3 H3 115.4 . .
C2 C3 H3 115.4 . .
C2 C3 C4 129(2) . .
C11 C12 C11 116.9(15) . 7_455
C11 C12 C12 121.5(7) . 2_565
C11 C12 C12 121.5(7) 7_455 2_565
O5 C1 O2 117.6(16) . 12
O5 C1 C2 124(2) . .
O2 C1 C2 114(2) 12 .
C3 C4 H4 126.1 . .
C5 C4 C3 108(2) . .
C5 C4 H4 126.1 . .
C11 C8 C5 121.2(13) . .
C9 C8 C11 119(2) . .
C9 C8 C5 119.9(16) . .
C11 C13 H13A 109.5 . .
C11 C13 H13B 109.5 . .
C11 C13 H13C 109.5 . .
H13A C13 H13B 109.5 . .
H13A C13 H13C 109.5 . .
H13B C13 H13C 109.5 . .
C3 C2 C1 117(2) . .
C7 C2 C3 122(2) . .
C7 C2 C1 121(2) . .
C4 C5 C8 120(2) . .
C6 C5 C4 124(2) . .
C6 C5 C8 116(2) . .
C2 C7 H7 125.2 . .
C6 C7 C2 110(2) . .
C6 C7 H7 125.2 . .
C8 C9 C8 121(3) 7_455 .
C8 C9 C10 119.4(14) . .
C8 C9 C10 119.4(14) 7_455 .
C5 C6 H6 116.1 . .
C7 C6 C5 128(2) . .
C7 C6 H6 116.1 . .
C9 C10 H10A 109.5 . .
C9 C10 H10B 109.5 . .
C9 C10 H10C 109.5 . .
H10A C10 H10B 109.5 . .
H10A C10 H10C 109.5 . .
H10B C10 H10C 109.5 . .
loop_
_geom_bond_atom_site_label_1
_geom_bond_atom_site_label_2
_geom_bond_distance
_geom_bond_site_symmetry_2
Zr1 Zr1 3.548(5) 11
Zr1 Zr1 3.548(5) 3
Zr1 Zr2 3.498(4) 9
Zr1 Zr2 3.498(4) .
Zr1 O2 2.219(12) .
Zr1 O2 2.219(12) 10
Zr1 O4 2.161(12) 4
Zr1 O4 2.138(11) .
Zr1 O4 2.138(11) 10
Zr1 O4 2.161(12) 11
Zr1 O3 2.203(18) .
Zr1 O1 2.232(17) .
Zr2 Zr1 3.498(4) 3
Zr2 Zr1 3.498(4) 11
Zr2 Zr1 3.498(4) 9
Zr2 O5 2.149(11) 2
Zr2 O5 2.149(11) 3
Zr2 O5 2.149(11) .
Zr2 O5 2.149(11) 4
Zr2 O4 2.152(10) 4
Zr2 O4 2.152(10) 2
Zr2 O4 2.152(10) .
Zr2 O4 2.152(10) 3
O5 C1 1.32(2) .
O2 C1 1.41(2) 11
O4 Zr1 2.161(12) 3
C11 C12 1.397(7) .
C11 C8 1.390(7) .
C11 C13 1.516(7) .
C3 H3 0.9300 .
C3 C4 1.399(10) .
C3 C2 1.396(7) .
C12 C11 1.397(7) 7_455
C12 C12 1.506(10) 2_565
C1 O2 1.41(2) 12
C1 C2 1.510(10) .
C4 H4 0.9300 .
C4 C5 1.397(7) .
C8 C5 1.502(10) .
C8 C9 1.387(7) .
C13 H13A 0.9600 .
C13 H13B 0.9600 .
C13 H13C 0.9600 .
C2 C7 1.396(7) .
C5 C6 1.397(7) .
C7 H7 0.9300 .
C7 C6 1.393(7) .
C9 C8 1.387(7) 7_455
C9 C10 1.502(10) .
C6 H6 0.9300 .
C10 H10A 0.9600 .
C10 H10B 0.9600 .
C10 H10C 0.9600 .
loop_
_geom_torsion_atom_site_label_1
_geom_torsion_atom_site_label_2
_geom_torsion_atom_site_label_3
_geom_torsion_atom_site_label_4
_geom_torsion
_geom_torsion_site_symmetry_1
_geom_torsion_site_symmetry_4
Zr2 O5 C1 O2 -20(2) . 12
Zr2 O5 C1 C2 -172.8(8) . .
O5 C1 C2 C3 -13.9(13) . .
O5 C1 C2 C7 167.0(16) . .
O2 C1 C2 C3 -167.7(13) 12 .
O2 C1 C2 C7 13.3(13) 12 .
C11 C8 C5 C4 101(3) . .
C11 C8 C5 C6 -76(3) . .
C11 C8 C9 C8 3.2(16) . 7_455
C11 C8 C9 C10 -176.8(16) . .
C3 C4 C5 C8 -173.9(15) . .
C3 C4 C5 C6 3(3) . .
C3 C2 C7 C6 -2.9(18) . .
C12 C11 C8 C5 -179.8(18) . .
C12 C11 C8 C9 -7(3) . .
C1 C2 C7 C6 176.1(11) . .
C4 C3 C2 C1 -175.6(13) . .
C4 C3 C2 C7 3.4(19) . .
C4 C5 C6 C7 -4(4) . .
C8 C11 C12 C11 3.4(17) . 7_455
C8 C11 C12 C12 -176.6(17) . 2_565
C8 C5 C6 C7 173.2(17) . .
C13 C11 C12 C11 -180(2) . 7_455
C13 C11 C12 C12 0(2) . 2_565
C13 C11 C8 C5 3(4) . .
C13 C11 C8 C9 176.6(18) . .
C2 C3 C4 C5 -3(2) . .
C2 C7 C6 C5 3(3) . .
C5 C8 C9 C8 177(2) . 7_455
C5 C8 C9 C10 -3(2) . .
C9 C8 C5 C4 -72(3) . .
C9 C8 C5 C6 111(2) . .
