#------------------------------------------------------------------------------
#$Date: 2019-11-25 20:12:42 +0200 (Mon, 25 Nov 2019) $
#$Revision: 241711 $
#$URL: file:///home/coder/svn-repositories/cod/cif/4/13/15/4131521.cif $
#------------------------------------------------------------------------------
#
# This file is available in the Crystallography Open Database (COD),
# http://www.crystallography.net/
#
# All data on this site have been placed in the public domain by the
# contributors.
#
data_4131521
loop_
_publ_author_name
'Patel, Hasmukh A.'
'Islamoglu, Timur'
'Liu, Zhichang'
'Nalluri, Siva Krishna Mohan'
'Samanta, Avik'
'Anamimoghadam, Ommid'
'Malliakas, Christos D.'
'Farha, Omar K.'
'Stoddart, J. Fraser'
_publ_section_title
;
 Noninvasive Substitution of K<sup>+</sup> Sites in Cyclodextrin
 Metal-Organic Frameworks by Li<sup>+</sup> Ions.
;
_journal_issue                   32
_journal_name_full               'Journal of the American Chemical Society'
_journal_page_first              11020
_journal_page_last               11023
_journal_paper_doi               10.1021/jacs.7b06287
_journal_volume                  139
_journal_year                    2017
_chemical_absolute_configuration ad
_chemical_formula_moiety         'C48 H80 K1.23 O40, 0.77(Li)'
_chemical_formula_sum            'C48 H80 K1.23 Li0.77 O40'
_chemical_formula_weight         1350.66
_space_group_crystal_system      trigonal
_space_group_IT_number           155
_space_group_name_Hall           'R 3 2"'
_space_group_name_H-M_alt        'R 3 2 :H'
_atom_sites_solution_hydrogens   mixed
_audit_creation_date             2017-01-23
_audit_creation_method
;
Olex2 1.2
(compiled 2015.09.30 svn.r3233 for OlexSys, GUI svn.r5103)
;
_cell_angle_alpha                90
_cell_angle_beta                 90
_cell_angle_gamma                120
_cell_formula_units_Z            18
_cell_length_a                   43.069(3)
_cell_length_b                   43.069(3)
_cell_length_c                   27.998(3)
_cell_measurement_reflns_used    9992
_cell_measurement_temperature    100
_cell_measurement_theta_max      62.772
_cell_measurement_theta_min      3.372
_cell_volume                     44977(7)
_computing_cell_refinement       'SAINT V8.34A (Bruker, 2013)'
_computing_data_collection       'APEX2 V2014.11-0 (Bruker, 2014)'
_computing_data_reduction        'Bruker SAINT'
_computing_molecular_graphics    'Olex2 (Dolomanov et al., 2009)'
_computing_publication_material  'Olex2 (Dolomanov et al., 2009)'
_computing_structure_refinement  'XL (Sheldrick, 2008)'
_diffrn_ambient_temperature      100.0
_diffrn_detector_area_resol_mean 8
_diffrn_measured_fraction_theta_full 0.973
_diffrn_measured_fraction_theta_max 0.973
_diffrn_measurement_device_type  'Bruker Kappa APEX CCD area detector'
_diffrn_measurement_method       '\w and \f scans'
_diffrn_radiation_monochromator  'QuazarTM optics'
_diffrn_radiation_type           CuK\a
_diffrn_radiation_wavelength     1.54178
_diffrn_reflns_av_R_equivalents  0.0731
_diffrn_reflns_av_unetI/netI     0.0472
_diffrn_reflns_Laue_measured_fraction_full 0.973
_diffrn_reflns_Laue_measured_fraction_max 0.973
_diffrn_reflns_limit_h_max       48
_diffrn_reflns_limit_h_min       -48
_diffrn_reflns_limit_k_max       49
_diffrn_reflns_limit_k_min       -47
_diffrn_reflns_limit_l_max       30
_diffrn_reflns_limit_l_min       -32
_diffrn_reflns_number            110303
_diffrn_reflns_point_group_measured_fraction_full 0.973
_diffrn_reflns_point_group_measured_fraction_max 0.973
_diffrn_reflns_theta_full        63.496
_diffrn_reflns_theta_max         63.496
_diffrn_reflns_theta_min         1.973
_diffrn_source                   microsource
_diffrn_standards_number         0
_exptl_absorpt_coefficient_mu    1.126
_exptl_absorpt_correction_T_max  0.7107
_exptl_absorpt_correction_T_min  0.6318
_exptl_absorpt_correction_type   psi-scan
_exptl_absorpt_process_details
;
SADABS-2014/5 (Bruker,2014/5) was used for absorption correction.
wR2(int) was 0.1263 before and 0.1022 after correction.
The Ratio of minimum to maximum transmission is 0.8890.
The \l/2 correction factor is Not present.
;
_exptl_crystal_colour            colourless
_exptl_crystal_colour_primary    colourless
_exptl_crystal_density_diffrn    0.898
_exptl_crystal_description       irregular
_exptl_crystal_F_000             12847
_exptl_crystal_size_max          0.21
_exptl_crystal_size_mid          0.15
_exptl_crystal_size_min          0.1
_refine_diff_density_max         0.664
_refine_diff_density_min         -0.403
_refine_diff_density_rms         0.083
_refine_ls_abs_structure_details
;
 Refined as an inversion twin.
;
_refine_ls_abs_structure_Flack   0.276(19)
_refine_ls_extinction_method     none
_refine_ls_goodness_of_fit_ref   0.974
_refine_ls_hydrogen_treatment    mixed
_refine_ls_matrix_type           full
_refine_ls_number_parameters     844
_refine_ls_number_reflns         15624
_refine_ls_number_restraints     704
_refine_ls_restrained_S_all      9.084
_refine_ls_R_factor_all          0.1147
_refine_ls_R_factor_gt           0.0998
_refine_ls_shift/su_max          0.002
_refine_ls_shift/su_mean         0.000
_refine_ls_structure_factor_coef Fsqd
_refine_ls_weighting_details
'w=1/[\s^2^(Fo^2^)+(0.2000P)^2^] where P=(Fo^2^+2Fc^2^)/3'
_refine_ls_weighting_scheme      calc
_refine_ls_wR_factor_gt          0.2625
_refine_ls_wR_factor_ref         0.2791
_reflns_Friedel_coverage         0.914
_reflns_Friedel_fraction_full    0.973
_reflns_Friedel_fraction_max     0.973
_reflns_number_gt                9899
_reflns_number_total             15624
_reflns_threshold_expression     'I > 2\s(I)'
_cod_data_source_file            ja7b06287_si_002.cif
_cod_data_source_block           cx0662_0m
_cod_original_cell_volume        44975(8)
_cod_original_sg_symbol_H-M      'R 3 2'
_cod_database_code               4131521
_shelx_space_group_comment
;
The symmetry employed for this shelxl refinement is uniquely defined
by the following loop, which should always be used as a source of
symmetry information in preference to the above space-group names.
They are only intended as comments.
;
_olex2_refinement_description
;
1. Twinned data refinement
 Scales: 0.724(19) 0.276(19)
2. Fixed Uiso
 At 1.2 times of:
  All C(H) groups, All C(H,H) groups
 At 1.5 times of:
  All O(H) groups
3. Shared sites
{K1, Li1}
4. Restrained distances
 C5-C1 = C6-C5 = C2-C1 = C3-C2 = C4-C3 = C12-C11 = C7-C11 = C8-C7 = C9-C8 = C9-
 C10 = C18-C17 = C17-C13 = C14-C13 = C15-C14 = C16-C15 = C24-C23 = C23-C19 =
 C20-C19 = C21-C20 = C22-C21 = C30-C29 = C29-C25 = C26-C25 = C27-C26 = C28-C27 =
  C36-C35 = C35-C31 = C32-C31 = C33-C32 = C34-C33 = C42-C41 = C41-C37 = C38-C37
 = C39-C38 = C40-C39 = C48-C47 = C47-C43 = C44-C43 = C45-C44 = C46-C45
 1.50726 with sigma of 0.02
 O26-O27
 2.6 with sigma of 0.02
 O26-O25
 2.9 with sigma of 0.02
 O4-C6 = O9-C12 = O19-C24 = O24-C30 = O29-C36 = O34-C42 = O39-C48
 1.4432 with sigma of 0.005
 O17-H17
 0.88821 with sigma of 0.01
 O6-H6
 0.87 with sigma of 0.01
 O7-H7
 0.87 with sigma of 0.01
 O36-H36
 0.87 with sigma of 0.01
 O16-H16
 0.84 with sigma of 0.02
 C4-H4A
 1 with sigma of 0.02
 H4A-O3 = H4A-C3 = H4A-O5
 1.9 with sigma of 0.02
 O4-H4
 0.87 with sigma of 0.01
 O34-H34
 0.87 with sigma of 0.01
 O37-H37
 0.87 with sigma of 0.01
 O34-H34 = O4-H4
 0.84 with sigma of 0.02
 C45-H45
 1 with sigma of 0.02
 O37-H45
 2 with sigma of 0.02
 H45-C44
 2 with sigma of 0.02
 H45-C46
 2 with sigma of 0.02
 C4-H4A
 1 with sigma of 0.02
 O3-H4A
 2 with sigma of 0.02
 H4A-O5
 2 with sigma of 0.02
 H4A-C3
 2 with sigma of 0.02
 O14-H14
 0.84 with sigma of 0.02
 H18A-H14
 2.2 with sigma of 0.02
 C21-H21A
 1 with sigma of 0.02
 H21A-C22
 2 with sigma of 0.02
 H21A-C20
 2 with sigma of 0.02
 H21A-O17
 2 with sigma of 0.02
 H18B-H14
 2.2 with sigma of 0.02
 C16-H16A
 1 with sigma of 0.02
 H16A-O13
 2 with sigma of 0.02
 H16A-O15
 2 with sigma of 0.02
 H16A-C15
 2 with sigma of 0.02
 H1A-H4
 2.5 with sigma of 0.02
 H34-H42A
 2.3 with sigma of 0.02
 H34-H42B
 2.3 with sigma of 0.02
 C42-H34
 1.9 with sigma of 0.02
 H34-H34A
 2.2 with sigma of 0.02
 H37A-H34
 3.2 with sigma of 0.02
 H44-H36
 2.3 with sigma of 0.02
 H7-H11
 2.3 with sigma of 0.02
 O12-H16
 2.4 with sigma of 0.02
 C20-H16
 2.1 with sigma of 0.02
 O1-C2 = O2-C3 = O3-C5 = O3-C4 = O5-C4 = O5-C7 = O6-C8 = O7-C9 = O8-C11 = O8-
 C10 = O10-C10 = O10-C13 = O11-C14 = O12-C15 = O13-C17 = O13-C16 = O15-C16 =
 O15-C19 = O16-C20 = O17-C21 = O18-C23 = O18-C22 = O20-C22 = O20-C25 = O21-C26 =
  O22-C27 = O23-C29 = O23-C28 = O25-C28 = O25-C31 = O26-C32 = O27-C33 = O28-C35
 = O28-C34 = O30-C34 = O30-C37 = O31-C38 = O32-C39 = O33-C41 = O33-C40 = O35-
 C40 = O35-C43 = O36-C44 = O37-C45 = O38-C47 = O38-C46 = O40-C46 = O40-C1
 1.42866 with sigma of 0.02
 O32-H32
 0.84 with sigma of 0.02
 H32-H32_$1
 2.6 with sigma of 0.02
 H17-H21
 2.4 with sigma of 0.02
 H21-H31_$2
 2.4 with sigma of 0.02
 H14_$3-H19_$4
 2.4 with sigma of 0.02
 H36-H32
 2.4 with sigma of 0.02
 H11_$3-H11
 2.4 with sigma of 0.02
 H28-H26_$5
 2.4 with sigma of 0.02
 H26-H27
 2.4 with sigma of 0.02
 C21-H17
 1.929918 with sigma of 0.02
 K2-H17
 3.489183 with sigma of 0.02
 C8-H6
 1.920938 with sigma of 0.02
 K1-H6
 3.789422 with sigma of 0.02
 C9-H7
 1.935867 with sigma of 0.02
 K1-H7
 3.903483 with sigma of 0.02
 C44-H36
 1.89566 with sigma of 0.02
 K2-H36
 3.564861 with sigma of 0.02
 C6-H4
 1.909787 with sigma of 0.02
 K2-H4
 3.460084 with sigma of 0.02
 C42-H34
 1.907846 with sigma of 0.02
 K2-H34
 3.475017 with sigma of 0.02
 C45-H37
 1.887575 with sigma of 0.02
 K2-H37
 3.495726 with sigma of 0.02
5. Restrained planarity
 O26, C32, C33, C34
 with sigma of 0.01
6. Uiso/Uaniso restraints and constraints
Uanis(O39) \\sim Ueq, Uanis(C1) \\sim Ueq, Uanis(C2) \\sim Ueq, Uanis(C5) \\sim
Ueq, Uanis(O40) \\sim Ueq, Uanis(C3) \\sim Ueq, Uanis(O1) \\sim Ueq, Uanis(C6)
\\sim Ueq, Uanis(O3) \\sim Ueq, Uanis(C46) \\sim Ueq, Uanis(C4) \\sim Ueq,
Uanis(O2) \\sim Ueq, Uanis(O4) \\sim Ueq, Uanis(C45) \\sim Ueq, Uanis(O38)
\\sim Ueq, Uanis(O5) \\sim Ueq, Uanis(C44) \\sim Ueq, Uanis(O37) \\sim Ueq,
Uanis(C47) \\sim Ueq, Uanis(Li3) \\sim Ueq, Uanis(C7) \\sim Ueq, Uanis(C43)
\\sim Ueq, Uanis(O36) \\sim Ueq, Uanis(C48) \\sim Ueq, Uanis(C8) \\sim Ueq,
Uanis(C11) \\sim Ueq, Uanis(O35) \\sim Ueq, Uanis(C9) \\sim Ueq, Uanis(O6)
\\sim Ueq, Uanis(C12) \\sim Ueq, Uanis(O8) \\sim Ueq, Uanis(C40) \\sim Ueq,
Uanis(C10) \\sim Ueq, Uanis(O7) \\sim Ueq, Uanis(K1) \\sim Ueq, Uanis(O9) \\sim
Ueq, Uanis(C39) \\sim Ueq, Uanis(O33) \\sim Ueq, Uanis(O10) \\sim Ueq,
Uanis(C38) \\sim Ueq, Uanis(O32) \\sim Ueq, Uanis(C41) \\sim Ueq, Uanis(C13)
\\sim Ueq, Uanis(C37) \\sim Ueq, Uanis(O31) \\sim Ueq, Uanis(C42) \\sim Ueq,
Uanis(C14) \\sim Ueq, Uanis(C17) \\sim Ueq, Uanis(O30) \\sim Ueq, Uanis(O34)
\\sim Ueq, Uanis(C15) \\sim Ueq, Uanis(O11) \\sim Ueq, Uanis(C18) \\sim Ueq,
Uanis(O13) \\sim Ueq, Uanis(C34) \\sim Ueq, Uanis(C16) \\sim Ueq, Uanis(O12)
\\sim Ueq, Uanis(C33) \\sim Ueq, Uanis(O28) \\sim Ueq, Uanis(O15) \\sim Ueq,
Uanis(C32) \\sim Ueq, Uanis(O27) \\sim Ueq, Uanis(C35) \\sim Ueq, Uanis(C19)
\\sim Ueq, Uanis(C31) \\sim Ueq, Uanis(O26) \\sim Ueq, Uanis(C36) \\sim Ueq,
Uanis(C20) \\sim Ueq, Uanis(C23) \\sim Ueq, Uanis(O25) \\sim Ueq, Uanis(O29)
\\sim Ueq, Uanis(C21) \\sim Ueq, Uanis(O16) \\sim Ueq, Uanis(C24) \\sim Ueq,
Uanis(O18) \\sim Ueq, Uanis(C28) \\sim Ueq, Uanis(C22) \\sim Ueq, Uanis(K2)
\\sim Ueq, Uanis(O17) \\sim Ueq, Uanis(O19) \\sim Ueq, Uanis(C27) \\sim Ueq,
Uanis(O23) \\sim Ueq, Uanis(O20) \\sim Ueq, Uanis(C26) \\sim Ueq, Uanis(O22)
\\sim Ueq, Uanis(C29) \\sim Ueq, Uanis(C25) \\sim Ueq, Uanis(O21) \\sim Ueq,
Uanis(C30) \\sim Ueq, Uanis(O24) \\sim Ueq: with sigma of 0.005 and sigma for
terminal atoms of 0.01
Uanis(K1) = Uanis(Li1)
Uanis(O27) = Uanis(O26)
Uanis(O22) = Uanis(O26) = Uanis(O32)
7. Others
 Sof(Li1)=0.5*(1-FVAR(2))
 Sof(K1)=0.5*FVAR(2)
 Fixed Uiso: H14(0.2)
8.a Fixed occupancy and ADP/Uiso:
 O29, C36
8.b Ternary CH refined with riding coordinates:
 C1(H1A), C2(H2A), C3(H3), C5(H5), C7(H7A), C8(H8), C9(H9A), C10(H10),
 C11(H11A), C13(H13), C14(H14A), C15(H15), C17(H17A), C19(H19A), C20(H20),
 C22(H22A), C23(H23), C25(H25), C26(H26A), C27(H27A), C28(H28), C29(H29A),
 C31(H31A), C32(H32A), C33(H33), C34(H34A), C35(H35), C37(H37A), C38(H38),
 C39(H39A), C40(H40), C41(H41), C43(H43), C44(H44), C46(H46), C47(H47)
8.c Secondary CH2 refined with riding coordinates:
 C6(H6A,H6B), C12(H12A,H12B), C18(H18A,H18B), C24(H24A,H24B), C30(H30A,H30B),
 C36(H36A,H36B), C42(H42A,H42B), C48(H48A,H48B)
8.d Idealised tetrahedral OH refined as rotating group:
 O1(H1), O2(H2), O9(H9), O11(H11), O12(H12), O19(H19), O21(H21), O22(H22),
 O24(H24), O26(H26), O27(H27), O29(H29), O31(H31), O39(H39)
;
_shelx_res_file
;
    cx0662_0m.res created by SHELXL-2014/7

TITL cx0662_a.res in R32
REM Old TITL cx0662 in R32 #155
REM SHELXT solution in R32
REM R1 0.330, Rweak 0.193, Alpha 0.047, Orientation as input
REM Flack x = 0.346 ( 0.007 ) from Parsons' quotients
REM Formula found by SHELXT: C128 O58 Li3
CELL 1.54178 43.0686 43.0686 27.9976 90 90 120
ZERR 18 0.0033 0.0033 0.0026 0 0 0
LATT -3
SYMM -Y,+X-Y,+Z
SYMM +Y-X,-X,+Z
SYMM +Y,+X,-Z
SYMM -Y+X,-Y,-Z
SYMM -X,-X+Y,-Z
SFAC C H K Li O
UNIT 864 1440 22.2 13.8 720
EQIV $1 -0.333+Y,0.333+X,0.333-Z
EQIV $2 1.667-Y,1.333+X-Y,0.333+Z
EQIV $3 +Y,+X,1-Z
EQIV $4 1.333-Y,0.667+X-Y,-0.333+Z
EQIV $5 1-Y+X,2-Y,1-Z
DFIX 31 C5 C1 C6 C5 C2 C1 C3 C2 C4 C3 C12 C11 C7 C11 C8 C7 C9 C8 C9 C10 C18 =
 C17 C17 C13 C14 C13 C15 C14 C16 C15 C24 C23 C23 C19 C20 C19 C21 C20 C22 C21 =
 C30 C29 C29 C25 C26 C25 C27 C26 C28 C27 C36 C35 C35 C31 C32 C31 C33 C32 C34 =
 C33 C42 C41 C41 C37 C38 C37 C39 C38 C40 C39 C48 C47 C47 C43 C44 C43 C45 C44 =
 C46 C45
DFIX 2.6 O26 O27
DFIX 2.9 O26 O25
DFIX 1.4432 0.005 O4 C6 O9 C12 O19 C24 O24 C30 O29 C36 O34 C42 O39 C48
DFIX 51 0.01 O17 H17
DFIX 0.87 0.01 O6 H6
DFIX 0.87 0.01 O7 H7
DFIX 0.87 0.01 O36 H36
DFIX 0.84 O16 H16
DFIX 1 C4 H4a
DFIX 1.9 H4a O3 H4a C3 H4a O5
DFIX 0.87 0.01 O4 H4
DFIX 0.87 0.01 O34 H34
DFIX 0.87 0.01 O37 H37
DFIX 0.84 O34 H34 O4 H4
DFIX 1 C45 H45
DFIX 2 O37 H45
DFIX 2 H45 C44
DFIX 2 H45 C46
DFIX 1 C4 H4a
DFIX 2 O3 H4a
DFIX 2 H4a O5
DFIX 2 H4a C3
DFIX 0.84 O14 H14
DFIX 2.2 H18a H14
DFIX 1 C21 H21a
DFIX 2 H21a C22
DFIX 2 H21a C20
DFIX 2 H21a O17
DFIX 2.2 H18b H14
DFIX 1 C16 H16a
DFIX 2 H16a O13
DFIX 2 H16a O15
DFIX 2 H16a C15
DFIX 2.5 H1a H4
DFIX 2.3 H34 H42a
DFIX 2.3 H34 H42b
DFIX 1.9 C42 H34
DFIX 2.2 H34 H34a
DFIX 3.2 H37a H34
DFIX 2.3 H44 H36
DFIX 2.3 H7 H11
DFIX 2.4 O12 H16
DFIX 2.1 C20 H16
DFIX 41 O1 C2 O2 C3 O3 C5 O3 C4 O5 C4 O5 C7 O6 C8 O7 C9 O8 C11 O8 C10 O10 =
 C10 O10 C13 O11 C14 O12 C15 O13 C17 O13 C16 O15 C16 O15 C19 O16 C20 O17 C21 =
 O18 C23 O18 C22 O20 C22 O20 C25 O21 C26 O22 C27 O23 C29 O23 C28 O25 C28 O25 =
 C31 O26 C32 O27 C33 O28 C35 O28 C34 O30 C34 O30 C37 O31 C38 O32 C39 O33 C41 =
 O33 C40 O35 C40 O35 C43 O36 C44 O37 C45 O38 C47 O38 C46 O40 C46 O40 C1
DFIX 0.84 O32 H32
DFIX 2.6 H32 H32_$1
DFIX 2.4 H17 H21
DFIX 2.4 H21 H31_$2
DFIX 2.4 H14_$3 H19_$4
DFIX 2.4 H36 H32
DFIX 2.4 H11_$3 H11
DFIX 2.4 H28 H26_$5
DFIX 2.4 H26 H27
DANG 1.929918 0.02 C21 H17
DANG 3.489183 0.02 K2 H17
DANG 1.920938 0.02 C8 H6
DANG 3.789422 0.02 K1 H6
DANG 1.935867 0.02 C9 H7
DANG 3.903483 0.02 K1 H7
DANG 1.89566 0.02 C44 H36
DANG 3.564861 0.02 K2 H36
DANG 1.909787 0.02 C6 H4
DANG 3.460084 0.02 K2 H4
DANG 1.907846 0.02 C42 H34
DANG 3.475017 0.02 K2 H34
DANG 1.887575 0.02 C45 H37
DANG 3.495726 0.02 K2 H37
FLAT 0.01 O26 C32 C33 C34
ISOR 0.005 0.01 O39 C1 C2 C5 O40 C3 O1 C6 O3 C46 C4 O2 O4 C45 O38 O5 C44 O37 =
 C47 LI3 C7 C43 O36 C48 C8 C11 O35 C9 O6 C12 O8 C40 C10 O7 K1 O9 C39 O33 O10 =
 C38 O32 C41 C13 C37 O31 C42 C14 C17 O30 O34 C15 O11 C18 O13 C34 C16 O12 C33 =
 O28 O15 C32 O27 C35 C19 C31 O26 C36 C20 C23 O25 O29 C21 O16 C24 O18 C28 C22 =
 K2 O17 O19 C27 O23 O20 C26 O22 C29 C25 O21 C30 O24
EADP K1 Li1
EADP O27 O26
EADP O22 O26 O32
EXYZ K1 Li1

L.S. 50
PLAN  1
TEMP -173.15
BOND $H
LIST 6
MORE -1
CONF
DAMP 800
fmap 2
acta
TWIN -1 0 0 0 -1 0 0 0 -1 2
OMIT -2 127
OMIT 0 0 3
OMIT 0 9 0
OMIT -7 7 4
REM <olex2.extras>
REM <HklSrc "%.\\cx0662_0m-mask.hkl">
REM </olex2.extras>

WGHT    0.200000
BASF   0.27553
FVAR       0.05724   0.46650   1.50726   1.42866   0.88821
K1    3    0.666667    0.637969    0.333333    20.50000    0.09102    0.08536 =
         0.07032   -0.01576   -0.03152    0.04551
K2    3    0.792100    0.894728    0.581577    11.00000    0.09651    0.04981 =
         0.10195    0.01089    0.03778    0.03888
O1    5    0.549120    0.696876    0.219994    11.00000    0.07769    0.12685 =
         0.15993    0.03001    0.00663    0.07323
AFIX 147
H1    2    0.542118    0.680772    0.199083    11.00000   -1.50000
AFIX   0
O2    5    0.569596    0.656608    0.280242    11.00000    0.10792    0.10088 =
         0.17486   -0.01516   -0.00186    0.04896
AFIX 147
H2    2    0.576612    0.665902    0.307326    11.00000   -1.50000
AFIX   0
O3    5    0.477771    0.620682    0.307841    11.00000    0.10005    0.07666 =
         0.07087    0.00710   -0.01821    0.03998
O4    5    0.417868    0.614710    0.267804    11.00000    0.10242    0.12872 =
         0.09886    0.00249   -0.01411    0.05223
H4    2    0.431649    0.605122    0.277062    11.00000   -1.50000
O5    5    0.530882    0.648362    0.354092    11.00000    0.11135    0.07782 =
         0.10225    0.00546   -0.01453    0.05577
O6    5    0.589739    0.630724    0.351621    11.00000    0.14285    0.13427 =
         0.15718   -0.00303   -0.02776    0.09367
H6    2    0.570400    0.615576    0.335729    11.00000   -1.50000
O7    5    0.624560    0.637548    0.433271    11.00000    0.17126    0.18737 =
         0.19869    0.00324   -0.04372    0.11476
H7    2    0.635867    0.657441    0.452419    11.00000   -1.50000
O8    5    0.533348    0.619460    0.476863    11.00000    0.15580    0.12074 =
         0.13223    0.03311   -0.02700    0.06313
O9    5    0.465745    0.588040    0.437524    11.00000    0.19565    0.17455 =
         0.10572   -0.00807    0.00133    0.07266
AFIX 147
H9    2    0.444699    0.582552    0.430167    11.00000   -1.50000
AFIX   0
O10   5    0.591239    0.668868    0.489278    11.00000    0.12090    0.08159 =
         0.11762   -0.01240   -0.01491    0.06923
O11   5    0.666812    0.701867    0.477387    11.00000    0.15225    0.12112 =
         0.10463    0.02313    0.01879    0.09532
AFIX 147
H11   2    0.689087    0.715793    0.476329    11.00000   -1.50000
AFIX   0
O12   5    0.706626    0.759833    0.547483    11.00000    0.13180    0.09427 =
         0.18581   -0.02466    0.00325    0.07808
AFIX 147
H12   2    0.723813    0.759116    0.560551    11.00000   -1.50000
AFIX   0
O13   5    0.621119    0.706298    0.606723    11.00000    0.10900    0.06570 =
         0.09115    0.00656    0.00101    0.04238
O14   5    0.571841    0.631719    0.609159    11.00000    0.17574    0.15346 =
         0.17861    0.02754    0.00416    0.07276
H14   2    0.553640    0.615429    0.621899    11.00000   10.20000
O15   5    0.650276    0.766010    0.577725    11.00000    0.07805    0.05283 =
         0.06785   -0.00009   -0.01430    0.03857
O16   5    0.721356    0.825670    0.576516    11.00000    0.07904    0.06446 =
         0.07844    0.00401    0.00324    0.04711
H16   2    0.728904    0.813935    0.592182    11.00000   -1.50000
O17   5    0.727609    0.893262    0.588170    11.00000    0.12254    0.08722 =
         0.11823    0.00529   -0.01568    0.06464
H17   2    0.717655    0.906530    0.581626    11.00000   -1.50000
O18   5    0.644159    0.833534    0.649032    11.00000    0.09277    0.08292 =
         0.10092   -0.03320    0.00279    0.05232
O19   5    0.615871    0.764754    0.692100    11.00000    0.17113    0.15503 =
         0.14060   -0.00764    0.01803    0.07476
AFIX 147
H19   2    0.637378    0.780966    0.695060    11.00000   -1.50000
AFIX   0
O20   5    0.652902    0.869510    0.585458    11.00000    0.10203    0.06292 =
         0.07507   -0.02880   -0.03496    0.04926
O21   5    0.705975    0.935351    0.538885    11.00000    0.18593    0.17816 =
         0.20154   -0.00456    0.02719    0.13413
AFIX 147
H21   2    0.710540    0.932946    0.510404    11.00000   -1.50000
AFIX   0
O22   5    0.668952    0.966231    0.494957    11.00000    0.17921    0.14722 =
         0.18570   -0.01374   -0.00665    0.07305
AFIX 147
H22   2    0.687473    0.965499    0.487533    11.00000   -1.50000
AFIX   0
O23   5    0.607057    0.920885    0.587981    11.00000    0.12560    0.11372 =
         0.14371   -0.01828    0.00282    0.07938
O24   5    0.603850    0.891694    0.676596    11.00000    0.27115    0.14913 =
         0.24265   -0.02122    0.00094    0.11884
AFIX 147
H24   2    0.592634    0.880444    0.701122    11.00000   -1.50000
AFIX   0
O25   5    0.595340    0.915545    0.503341    11.00000    0.11191    0.09376 =
         0.12809   -0.03615   -0.04024    0.05743
O26   5    0.616375    0.980345    0.452237    11.00000    0.17921    0.14722 =
         0.18570   -0.01374   -0.00665    0.07305
AFIX 147
H26   2    0.615675    0.992409    0.429115    11.00000   -1.50000
AFIX   0
O27   5    0.580599    0.963440    0.376788    11.00000    0.17921    0.14722 =
         0.18570   -0.01374   -0.00665    0.07305
AFIX 147
H27   2    0.588041    0.950032    0.366420    11.00000   -1.50000
AFIX   0
O28   5    0.505750    0.894145    0.455462    11.00000    0.16975    0.16886 =
         0.19346   -0.00845    0.00141    0.09958
AFIX   2
O29   5    0.491898    0.882446    0.545704    11.00000    0.19256    0.17469 =
         0.18571   -0.00991    0.00141    0.09423
AFIX 147
H29   2    0.479181    0.882617    0.523072    11.00000   -1.50000
AFIX   0
O30   5    0.534184    0.896394    0.371572    11.00000    0.18879    0.18100 =
         0.20126   -0.00969   -0.01305    0.10122
O31   5    0.579216    0.921552    0.255225    11.00000    0.07898    0.09902 =
         0.11704   -0.00331    0.00057    0.05571
AFIX 147
H31   2    0.572128    0.935220    0.244743    11.00000   -1.50000
AFIX   0
O32   5    0.545393    0.865565    0.197574    11.00000    0.17921    0.14722 =
         0.18570   -0.01374   -0.00665    0.07305
H32   2    0.567508    0.876031    0.199255    11.00000   -1.50000
O33   5    0.471924    0.841236    0.283381    11.00000    0.05134    0.07763 =
         0.10123   -0.01850   -0.02944    0.03649
O34   5    0.455467    0.878889    0.344683    11.00000    0.11899    0.09932 =
         0.09998   -0.00690   -0.01486    0.06605
H34   2    0.455311    0.889189    0.372646    11.00000   -1.50000
O35   5    0.503078    0.810096    0.256609    11.00000    0.05742    0.07646 =
         0.11655   -0.01440   -0.02234    0.04012
O36   5    0.528981    0.796422    0.172770    11.00000    0.07959    0.06102 =
         0.10261   -0.00136    0.00168    0.03800
H36   2    0.550379    0.814245    0.188465    11.00000   -1.50000
O37   5    0.513911    0.724327    0.162388    11.00000    0.07527    0.06318 =
         0.05636   -0.00438   -0.00307    0.03735
H37   2    0.532654    0.734313    0.185889    11.00000   -1.50000
O38   5    0.444972    0.713843    0.246983    11.00000    0.06926    0.07919 =
         0.08548   -0.00411   -0.01941    0.04164
O39   5    0.409356    0.751977    0.264942    11.00000    0.17485    0.12832 =
         0.15511   -0.05263   -0.03065    0.07943
AFIX 147
H39   2    0.394053    0.754352    0.280647    11.00000   -1.50000
AFIX   0
O40   5    0.491588    0.702911    0.256525    11.00000    0.05455    0.05154 =
         0.07684    0.00678   -0.02120    0.03086
C1    1    0.492291    0.670579    0.262248    11.00000    0.04642    0.04967 =
         0.06769   -0.00376   -0.00827    0.02943
AFIX  13
H1A   2    0.479881    0.653807    0.235078    11.00000   -1.20000
AFIX   0
C2    1    0.531791    0.681710    0.263673    11.00000    0.09070    0.06622 =
         0.10487    0.00390   -0.00855    0.05590
AFIX  13
H2A   2    0.543919    0.699285    0.290152    11.00000   -1.20000
AFIX   0
C3    1    0.533470    0.648110    0.273253    11.00000    0.10199    0.09983 =
         0.10575   -0.00467    0.00583    0.05768
AFIX  13
H3    2    0.524576    0.632946    0.243866    11.00000   -1.20000
AFIX   0
C4    1    0.512014    0.625441    0.314031    11.00000    0.08334    0.08841 =
         0.09645   -0.00584   -0.00698    0.04616
H4A   2    0.513593    0.604823    0.314002    11.00000    0.20527
C5    1    0.475568    0.653361    0.309210    11.00000    0.07598    0.07117 =
         0.07201    0.00505   -0.02595    0.02592
AFIX  13
H5    2    0.487630    0.668887    0.337568    11.00000   -1.20000
AFIX   0
C6    1    0.435897    0.639956    0.306694    11.00000    0.09522    0.10782 =
         0.09517    0.00999   -0.00108    0.04819
AFIX  23
H6A   2    0.424725    0.628167    0.337317    11.00000   -1.20000
H6B   2    0.432190    0.660716    0.302716    11.00000   -1.20000
AFIX   0
C7    1    0.541109    0.633465    0.393786    11.00000    0.10000    0.08564 =
         0.11843    0.01195   -0.02129    0.06302
AFIX  13
H7A   2    0.525802    0.607069    0.388439    11.00000   -1.20000
AFIX   0
C8    1    0.577716    0.638191    0.396260    11.00000    0.11113    0.09329 =
         0.10630   -0.02368   -0.00148    0.05715
AFIX  13
H8    2    0.593908    0.664478    0.401491    11.00000   -1.20000
AFIX   0
C9    1    0.585337    0.620596    0.437545    11.00000    0.13639    0.13279 =
         0.12711    0.00367   -0.00490    0.06031
AFIX  13
H9A   2    0.573211    0.593985    0.433592    11.00000   -1.20000
AFIX   0
C10   1    0.569417    0.631038    0.477825    11.00000    0.13817    0.12498 =
         0.13847    0.00945    0.00827    0.07361
AFIX  13
H10   2    0.572275    0.618620    0.506241    11.00000   -1.20000
AFIX   0
C11   1    0.526835    0.638746    0.441242    11.00000    0.09918    0.10634 =
         0.10021   -0.00066   -0.01954    0.05232
AFIX  13
H11A  2    0.540226    0.664807    0.449615    11.00000   -1.20000
AFIX   0
C12   1    0.487665    0.626310    0.440093    11.00000    0.11296    0.13314 =
         0.10439    0.00479   -0.00180    0.06439
AFIX  23
H12A  2    0.481234    0.634935    0.469165    11.00000   -1.20000
H12B  2    0.482538    0.637071    0.412101    11.00000   -1.20000
AFIX   0
C13   1    0.615422    0.681999    0.529422    11.00000    0.07966    0.06939 =
         0.10566   -0.01593   -0.01517    0.04324
AFIX  13
H13   2    0.619790    0.662626    0.541344    11.00000   -1.20000
AFIX   0
C14   1    0.651473    0.714451    0.512135    11.00000    0.07911    0.04956 =
         0.06673   -0.00149   -0.00848    0.04539
AFIX  13
H14A  2    0.647625    0.733755    0.498606    11.00000   -1.20000
AFIX   0
C15   1    0.674159    0.727144    0.556550    11.00000    0.11392    0.10513 =
         0.12387   -0.00021   -0.00548    0.05766
AFIX  13
H15   2    0.679084    0.708340    0.569297    11.00000   -1.20000
AFIX   0
C17   1    0.596546    0.691494    0.568180    11.00000    0.12709    0.12382 =
         0.12789   -0.00752   -0.00155    0.06909
AFIX  13
H17A  2    0.589051    0.708616    0.556120    11.00000   -1.20000
AFIX   0
C18   1    0.566485    0.660410    0.594328    11.00000    0.15490    0.16049 =
         0.15482    0.00135    0.00530    0.08842
AFIX  23
H18A  2    0.560834    0.670024    0.623094    11.00000   -1.20000
H18B  2    0.545031    0.650195    0.573522    11.00000   -1.20000
AFIX   0
C19   1    0.662229    0.795904    0.609706    11.00000    0.08855    0.07033 =
         0.06897   -0.00569    0.00677    0.04641
AFIX  13
H19A  2    0.672765    0.791933    0.639316    11.00000   -1.20000
AFIX   0
C20   1    0.690288    0.828847    0.582700    11.00000    0.05597    0.05337 =
         0.06557   -0.00685   -0.02393    0.02798
AFIX  13
H20   2    0.680805    0.831632    0.551362    11.00000   -1.20000
AFIX   0
C22   1    0.669695    0.864908    0.626886    11.00000    0.10019    0.08391 =
         0.09952   -0.00287   -0.00674    0.06046
AFIX  13
H22A  2    0.677109    0.885663    0.649031    11.00000   -1.20000
AFIX   0
C23   1    0.631184    0.802051    0.622056    11.00000    0.09423    0.06034 =
         0.07810   -0.00818   -0.01198    0.04874
AFIX  13
H23   2    0.621118    0.805405    0.591569    11.00000   -1.20000
AFIX   0
C24   1    0.601419    0.770253    0.648313    11.00000    0.08958    0.07926 =
         0.10029    0.01042   -0.00095    0.04738
AFIX  23
H24A  2    0.581645    0.774936    0.655667    11.00000   -1.20000
H24B  2    0.591785    0.748530    0.628082    11.00000   -1.20000
AFIX   0
C25   1    0.647484    0.899425    0.588551    11.00000    0.08913    0.08393 =
         0.07673   -0.00174   -0.01224    0.05771
AFIX  13
H25   2    0.660316    0.913477    0.617629    11.00000   -1.20000
AFIX   0
C26   1    0.668617    0.921185    0.544246    11.00000    0.13075    0.13357 =
         0.11139    0.01436   -0.00013    0.06832
AFIX  13
H26A  2    0.657381    0.904745    0.516416    11.00000   -1.20000
AFIX   0
C27   1    0.656159    0.949408    0.540476    11.00000    0.11680    0.09893 =
         0.10137    0.03099   -0.02148    0.05602
AFIX  13
H27A  2    0.668386    0.967799    0.566043    11.00000   -1.20000
AFIX   0
C28   1    0.616224    0.936227    0.542475    11.00000    0.11608    0.11099 =
         0.12996   -0.02218   -0.01099    0.06701
AFIX  13
H28   2    0.613781    0.958119    0.543481    11.00000   -1.20000
AFIX   0
C29   1    0.608383    0.888770    0.593294    11.00000    0.11479    0.10005 =
         0.12629   -0.00638    0.00167    0.06633
AFIX  13
H29A  2    0.595784    0.873484    0.564958    11.00000   -1.20000
AFIX   0
C30   1    0.587336    0.869889    0.634750    11.00000    0.15275    0.15105 =
         0.15905   -0.00211   -0.00246    0.07574
AFIX  23
H30A  2    0.562529    0.865329    0.631199    11.00000   -1.20000
H30B  2    0.586372    0.846535    0.638031    11.00000   -1.20000
AFIX   0
C31   1    0.567133    0.922754    0.491629    11.00000    0.17193    0.17031 =
         0.17726   -0.01104    0.00170    0.08957
AFIX  13
H31A  2    0.564684    0.938115    0.516411    11.00000   -1.20000
AFIX   0
C32   1    0.587509    0.944472    0.448520    11.00000    0.10755    0.09160 =
         0.10722   -0.00253   -0.00378    0.04737
AFIX  13
H32A  2    0.595769    0.930255    0.429597    11.00000   -1.20000
AFIX   0
C33   1    0.559484    0.947837    0.419581    11.00000    0.11917    0.10591 =
         0.11112    0.01371   -0.00773    0.06895
AFIX  13
H33   2    0.552768    0.964557    0.435129    11.00000   -1.20000
AFIX   0
C34   1    0.527932    0.911558    0.413564    11.00000    0.09987    0.09821 =
         0.09722    0.00686    0.01593    0.05407
AFIX  13
H34A  2    0.511764    0.919190    0.398483    11.00000   -1.20000
AFIX   0
C35   1    0.532992    0.890915    0.481742    11.00000    0.10444    0.10632 =
         0.11984   -0.01201    0.00362    0.06050
AFIX  13
H35   2    0.538084    0.873901    0.463731    11.00000   -1.20000
AFIX   2
C36   1    0.518558    0.874939    0.527508    11.00000    0.09570    0.09893 =
         0.10655    0.01071   -0.00091    0.04429
AFIX  23
H36A  2    0.507898    0.848633    0.524771    11.00000   -1.20000
H36B  2    0.538467    0.883641    0.550814    11.00000   -1.20000
AFIX   0
C37   1    0.526314    0.888949    0.320246    11.00000    0.10685    0.08961 =
         0.11827   -0.00643   -0.02162    0.05520
AFIX  13
H37A  2    0.518416    0.906327    0.310823    11.00000   -1.20000
AFIX   0
C38   1    0.550043    0.891676    0.280365    11.00000    0.17451    0.18359 =
         0.19238    0.00500   -0.00823    0.10497
AFIX  13
H38   2    0.561231    0.877572    0.292001    11.00000   -1.20000
AFIX   0
C39   1    0.527805    0.870114    0.238707    11.00000    0.10417    0.09583 =
         0.13080   -0.00129    0.00525    0.07946
AFIX  13
H39A  2    0.519295    0.886157    0.225584    11.00000   -1.20000
AFIX   0
C40   1    0.493322    0.836498    0.247214    11.00000    0.06630    0.08255 =
         0.09074   -0.01028   -0.01275    0.05088
AFIX  13
H40   2    0.479421    0.829882    0.216677    11.00000   -1.20000
AFIX   0
C41   1    0.491340    0.854360    0.325868    11.00000    0.08448    0.06264 =
         0.09009   -0.00979   -0.01534    0.04211
AFIX  13
H41   2    0.497812    0.836095    0.336236    11.00000   -1.20000
AFIX   0
C42   1    0.463211    0.851268    0.360266    11.00000    0.11596    0.11682 =
         0.09779    0.00178   -0.01995    0.05482
AFIX  23
H42A  2    0.441520    0.827226    0.358472    11.00000   -1.20000
H42B  2    0.472383    0.855664    0.393447    11.00000   -1.20000
AFIX   0
C43   1    0.483939    0.777219    0.233337    11.00000    0.08986    0.08210 =
         0.09879   -0.01224   -0.01326    0.05843
AFIX  13
H43   2    0.467063    0.778076    0.209550    11.00000   -1.20000
AFIX   0
C44   1    0.510685    0.769649    0.208373    11.00000    0.06524    0.07800 =
         0.07320    0.00972    0.00816    0.04508
AFIX  13
H44   2    0.528091    0.769454    0.231839    11.00000   -1.20000
AFIX   0
C45   1    0.489182    0.733072    0.184214    11.00000    0.07386    0.04900 =
         0.06191    0.02408    0.00931    0.03663
H45   2    0.472637    0.733678    0.163560    11.00000   -1.20000
C46   1    0.468451    0.705278    0.222263    11.00000    0.06803    0.04997 =
         0.06851    0.00188   -0.01165    0.02465
AFIX  13
H46   2    0.453937    0.681379    0.206564    11.00000   -1.20000
AFIX   0
C47   1    0.463095    0.747690    0.270346    11.00000    0.07857    0.08761 =
         0.09014   -0.01377    0.00003    0.04743
AFIX  13
H47   2    0.480429    0.747468    0.293916    11.00000   -1.20000
AFIX   0
C48   1    0.432646    0.747432    0.297098    11.00000    0.09089    0.09855 =
         0.09856    0.00513    0.00527    0.06231
AFIX  23
H48A  2    0.418875    0.724418    0.314368    11.00000   -1.20000
H48B  2    0.442362    0.767026    0.320950    11.00000   -1.20000
AFIX   0
C16   1    0.654030    0.736313    0.592010    11.00000    0.05740    0.06583 =
         0.06140    0.00040   -0.01479    0.02871
H16A  2    0.670713    0.744602    0.621305    11.00000   -1.20000
C21   1    0.701961    0.861439    0.614138    11.00000    0.06350    0.04597 =
         0.06414    0.00346   -0.00470    0.03508
H21A  2    0.711624    0.857994    0.642528    11.00000   -1.20000

LI3   4    0.382145    0.666667    0.166667    10.50000    0.22183    0.21275 =
         0.21471    0.00202    0.00101    0.10638
LI1   4    0.666667    0.637969    0.333333   -20.50000    0.09102    0.08536 =
         0.07032   -0.01576   -0.03152    0.04551
HKLF 4

REM  cx0662_a.res in R32
REM R1 =  0.0998 for    9899 Fo > 4sig(Fo)  and  0.1147 for all   15624 data
REM    844 parameters refined using    704 restraints

END

WGHT      0.2000      0.0000

REM Highest difference peak  0.664,  deepest hole -0.403,  1-sigma level  0.083
Q1    1   0.3477  0.6370  0.1607  11.00000  0.05    0.48
;
_shelx_res_checksum              91980
_shelx_hkl_file
;
 -42  -3  -3    1.85    1.70
 -42  -2  -4    2.02    1.02
 -42  -2  -1    2.10    0.78
 -42  -2   2    0.83    1.26
 -42  -2   5    1.21    1.11
 -42  -1  -8    0.67    1.33
 -42  -1  -5    1.00    1.03
 -42  -1  -2    1.36    0.75
 -42  -1   1    0.56    0.57
 -42  -1   4    4.61    2.93
 -42  -1   7    0.71    1.09
 -41  -4  -4    0.18    0.96
 -41  -4  -1    3.03    1.08
 -41  -4   2    0.06    0.74
 -41  -4   5    1.62    1.37
 -41  -3  -5    0.04    1.02
 -41  -3  -2    2.01    1.25
 -41  -3   1    1.17    0.65
 -41  -3   4    1.74    0.61
 -41  -3   7    2.00    1.17
 -41  -2  -9    1.47    1.16
 -41  -2  -6    2.30    1.10
 -41  -2  -3    0.02    0.77
 -41  -2   0    0.09    0.57
 -41  -2   3    1.11    0.62
 -41  -2   6    0.32    0.83
 -41  -1 -10    0.35    0.97
 -41  -1  -7    1.25    1.08
 -41  -1  -4    0.89    0.74
 -41  -1  -1    1.66    0.60
 -41  -1   2    0.92    0.61
 -41  -1   5    8.84    1.65
 -41  -1   8    0.04    0.78
 -40  -6  -4    2.09    1.11
 -40  -6  -1    0.90    0.95
 -40  -6   2    0.68    0.77
 -40  -5  -5    0.82    1.03
 -40  -5  -2    0.63    0.87
 -40  -5   1    0.45    0.72
 -40  -5   4    0.52    0.60
 -40  -5   7    0.26    1.51
 -40  -4  -6    0.40    1.04
 -40  -4  -3    0.53    0.79
 -40  -4   0    0.46    0.63
 -40  -4   3    0.53    0.60
 -40  -4   6    0.11    0.78
 -40  -3 -10    3.39    1.19
 -40  -3  -7    0.49    1.00
 -40  -3  -4    2.92    0.87
 -40  -3  -1    0.03    0.70
 -40  -3   2    1.35    0.58
 -40  -3   5    2.14    0.67
 -40  -3   8    0.16    0.77
 -40  -2 -11    0.82    1.09
 -40  -2  -8    0.18    1.04
 -40  -2  -5    5.23    0.92
 -40  -2  -2    4.06    0.88
 -40  -2   1    0.34    0.58
 -40  -2   4    0.86    0.60
 -40  -2   7    0.61    0.79
 -40  -2  10    0.87    0.80
 -40  -1 -12    0.59    1.07
 -40  -1  -9    1.66    1.17
 -40  -1  -6    0.46    0.88
 -40  -1  -3    1.34    0.73
 -40  -1   0    0.45    0.57
 -40  -1   3    0.92    0.61
 -40  -1   6    1.72    0.70
 -40  -1   9    0.25    0.80
 -40  -1  12    0.69    1.55
 -39  -8  -1    0.95    1.04
 -39  -7  -5    0.52    0.97
 -39  -7  -2    0.61    1.06
 -39  -7   1    0.54    0.70
 -39  -7   4    0.23    0.76
 -39  -6  -6    1.67    1.00
 -39  -6  -3    0.98    0.87
 -39  -6   0    1.83    0.82
 -39  -6   3    0.99    0.57
 -39  -6   6    0.39    1.15
 -39  -5  -7    0.86    1.08
 -39  -5  -4    0.35    1.07
 -39  -5  -1    2.30    1.39
 -39  -5   2    1.96    0.69
 -39  -5   5    0.53    0.59
 -39  -5   8    0.27    0.75
 -39  -4  -8    0.00    1.04
 -39  -4  -5    0.04    0.95
 -39  -4  -2    1.22    0.69
 -39  -4   1    2.04    1.06
 -39  -4   4    0.18    0.56
 -39  -4   7    0.80    0.82
 -39  -4  10    0.15    0.76
 -39  -3  -9    2.14    1.13
 -39  -3  -6    1.60    0.89
 -39  -3  -3    1.76    0.73
 -39  -3   0    0.19    0.57
 -39  -3   3    2.66    0.60
 -39  -3   6    0.26    0.59
 -39  -3   9    1.15    1.72
 -39  -2 -10    0.54    1.07
 -39  -2  -7    2.12    1.43
 -39  -2  -4    0.69    0.73
 -39  -2  -1    9.34    1.19
 -39  -2   2    0.72    0.65
 -39  -2   5    0.71    0.60
 -39  -2   8    3.25    0.90
 -39  -2  11    0.69    0.82
 -39  -1 -11    0.25    1.03
 -39  -1  -8    0.28    0.97
 -39  -1  -5    2.39    1.21
 -39  -1  -2    5.66    1.00
 -39  -1   1    4.35    0.65
 -39  -1   4    0.76    0.59
 -39  -1   7    0.07    0.77
 -39  -1  10    1.05    1.16
 -39  -1  13    0.53    1.07
 -38  -9  -5    1.78    1.08
 -38  -9  -2    4.01    1.01
 -38  -9   1    0.59    1.00
 -38  -9   4    0.62    1.43
 -38  -8  -6    0.73    1.02
 -38  -8  -3    1.35    1.11
 -38  -8   0    0.46    0.74
 -38  -8   3    0.28    0.76
 -38  -8   6    0.27    0.80
 -38  -7  -7    0.30    0.96
 -38  -7  -4    1.41    1.15
 -38  -7  -1    2.82    0.78
 -38  -7   2    0.62    0.56
 -38  -7   5    0.22    0.59
 -38  -7   8    0.10    0.73
 -38  -6  -8    1.32    1.13
 -38  -6  -5    0.60    1.09
 -38  -6  -2    3.83    0.88
 -38  -6   1    1.37    0.56
 -38  -6   4    2.25    0.62
 -38  -6   7    0.37    0.60
 -38  -6  10    2.02    0.78
 -38  -5  -9    0.44    1.10
 -38  -5  -6    1.15    0.96
 -38  -5  -3    0.15    0.71
 -38  -5   0    1.21    0.63
 -38  -5   3    5.34    0.92
 -38  -5   6    0.24    0.70
 -38  -5   9    0.44    1.13
 -38  -4 -10    4.60    1.15
 -38  -4  -7    1.23    0.90
 -38  -4  -4    1.86    0.90
 -38  -4  -1    0.15    0.56
 -38  -4   2    1.09    0.60
 -38  -4   5    1.58    0.73
 -38  -4   8    0.67    1.32
 -38  -4  11    1.62    0.78
 -38  -3 -11    3.59    1.19
 -38  -3  -8    0.64    1.28
 -38  -3  -5    3.53    0.76
 -38  -3  -2    0.56    0.72
 -38  -3   1    0.32    0.59
 -38  -3   4    0.68    0.58
 -38  -3   7    1.17    0.70
 -38  -3  10    0.16    1.13
 -38  -3  13    0.81    1.06
 -38  -2 -12    0.43    1.02
 -38  -2  -9    2.16    1.58
 -38  -2  -6    0.86    0.93
 -38  -2  -3    7.67    1.46
 -38  -2   0    0.25    0.64
 -38  -2   3    1.35    0.63
 -38  -2   6    0.27    0.68
 -38  -2   9    1.80    0.92
 -38  -2  12    2.50    1.72
 -38  -1 -13    0.44    1.05
 -38  -1 -10    1.31    1.09
 -38  -1  -7    0.31    0.91
 -38  -1  -4   10.86    1.24
 -38  -1  -1    0.41    0.59
 -38  -1   2    3.39    1.22
 -38  -1   5    0.15    0.70
 -38  -1   8    0.82    0.98
 -38  -1  11    1.50    3.31
 -38  -1  14    0.05    0.86
 -37 -11  -2    0.26    0.97
 -37 -11   1    0.44    0.95
 -37 -10  -6    1.07    0.98
 -37 -10  -3    0.46    1.01
 -37 -10   0    2.46    0.76
 -37 -10   3    0.20    0.68
 -37 -10   6    0.27    1.27
 -37  -9  -7    3.57    1.59
 -37  -9  -4    0.35    1.08
 -37  -9  -1    0.48    0.76
 -37  -9   2    0.20    0.58
 -37  -9   5    0.21    0.59
 -37  -9   8    0.05    0.93
 -37  -8  -8    0.16    0.97
 -37  -8  -5    0.93    1.17
 -37  -8  -2    0.69    0.76
 -37  -8   1    1.31    0.86
 -37  -8   4    0.74    0.60
 -37  -8   7    1.27    0.77
 -37  -8  10    0.88    1.52
 -37  -7  -9    0.71    1.05
 -37  -7  -6    1.10    1.01
 -37  -7  -3    2.72    0.74
 -37  -7   0    2.38    0.58
 -37  -7   3    1.71    0.59
 -37  -7   6    0.32    0.74
 -37  -7   9    0.36    1.02
 -37  -6 -10    0.34    1.09
 -37  -6  -7    0.99    1.04
 -37  -6  -4    4.58    0.80
 -37  -6  -1    1.79    0.71
 -37  -6   2    2.05    0.60
 -37  -6   5    0.02    0.68
 -37  -6   8    0.15    0.72
 -37  -6  11    0.37    1.02
 -37  -5 -11    0.44    1.00
 -37  -5  -8    1.00    0.94
 -37  -5  -5    1.58    0.99
 -37  -5  -2    0.48    0.76
 -37  -5   1    0.32    0.66
 -37  -5   4    0.06    0.81
 -37  -5   7    0.92    0.97
 -37  -5  10    0.21    1.12
 -37  -5  13    0.28    1.06
 -37  -4 -12    1.14    1.17
 -37  -4  -9    0.82    1.02
 -37  -4  -6    1.31    0.94
 -37  -4  -3    1.23    0.98
 -37  -4   0    0.36    0.61
 -37  -4   3    0.35    0.69
 -37  -4   6    0.04    0.71
 -37  -4   9    0.36    1.22
 -37  -4  12    0.38    1.09
 -37  -3 -13    2.89    1.74
 -37  -3 -10    1.35    2.20
 -37  -3  -7    0.84    0.93
 -37  -3  -4    2.39    0.94
 -37  -3  -1    0.33    0.74
 -37  -3   2    1.36    0.67
 -37  -3   5    0.20    0.76
 -37  -3   8    0.80    1.01
 -37  -3  11    1.06    1.17
 -37  -3  14    0.17    0.79
 -37  -2 -14    0.96    0.99
 -37  -2 -11    0.39    1.01
 -37  -2  -8    0.78    0.90
 -37  -2  -5    2.54    0.76
 -37  -2  -2    3.80    0.63
 -37  -2   1    2.33    1.20
 -37  -2   4    0.32    0.67
 -37  -2   7    0.25    0.67
 -37  -2  10    0.34    1.24
 -37  -2  13    0.09    1.17
 -37  -1 -15    0.12    0.99
 -37  -1 -12    0.10    1.02
 -37  -1  -9    0.81    0.92
 -37  -1  -6    2.93    0.77
 -37  -1  -3    1.94    0.62
 -37  -1   0    1.05    0.64
 -37  -1   3    0.00    0.69
 -37  -1   6    2.32    0.78
 -37  -1   9    1.03    1.09
 -37  -1  12    0.75    1.22
 -37  -1  15    3.38    1.06
 -36 -12  -3    1.39    1.03
 -36 -12   0    0.04    0.97
 -36 -12   3    0.45    0.96
 -36 -11  -7    0.16    1.11
 -36 -11  -4    1.29    1.05
 -36 -11  -1    1.04    0.79
 -36 -11   2    0.58    0.70
 -36 -11   5    0.78    0.67
 -36 -10  -8    1.38    0.95
 -36 -10  -5    0.20    1.13
 -36 -10  -2    0.37    0.73
 -36 -10   1    0.32    0.69
 -36 -10   4    0.15    0.75
 -36 -10   7    1.22    0.73
 -36  -9  -9    0.31    1.01
 -36  -9  -6    1.70    1.03
 -36  -9  -3    3.05    0.72
 -36  -9   0    3.78    0.73
 -36  -9   3    2.25    0.72
 -36  -9   6    1.02    0.73
 -36  -9   9    0.12    1.02
 -36  -8 -10    0.07    1.00
 -36  -8  -7    1.82    1.38
 -36  -8  -4    3.50    1.59
 -36  -8  -1    1.40    1.13
 -36  -8   2    1.00    0.80
 -36  -8   5    0.79    0.69
 -36  -8   8    2.47    0.71
 -36  -8  11    0.16    0.98
 -36  -7 -11    0.68    1.09
 -36  -7  -8    1.17    1.58
 -36  -7  -5    2.64    1.35
 -36  -7  -2    4.35    2.29
 -36  -7   1    0.33    0.73
 -36  -7   4    0.38    0.76
 -36  -7   7    0.20    0.68
 -36  -7  10    0.74    1.10
 -36  -6 -12    0.43    1.01
 -36  -6  -9    0.03    4.04
 -36  -6  -6    4.66    2.14
 -36  -6  -3    0.07    0.72
 -36  -6   0    6.78    1.03
 -36  -6   3    4.81    0.97
 -36  -6   6    2.62    0.73
 -36  -6   9    0.27    1.16
 -36  -6  12    0.50    1.03
 -36  -5 -13    1.46    1.01
 -36  -5 -10    2.36    2.86
 -36  -5  -7    0.18    1.01
 -36  -5  -4    1.31    0.76
 -36  -5  -1    4.36    0.79
 -36  -5   2    1.65    1.04
 -36  -5   5    0.52    0.70
 -36  -5   8    2.26    0.73
 -36  -5  11    0.61    1.19
 -36  -5  14    0.89    1.48
 -36  -4 -14    1.57    1.01
 -36  -4 -11    0.62    1.39
 -36  -4  -8    1.96    1.15
 -36  -4  -5    0.22    0.87
 -36  -4  -2    4.64    0.78
 -36  -4   1    1.44    0.70
 -36  -4   4    1.28    0.74
 -36  -4   7    0.17    0.82
 -36  -4  10    1.85    1.39
 -36  -4  13    0.00    1.09
 -36  -3 -15    4.16    1.58
 -36  -3 -12    1.27    1.45
 -36  -3  -9    0.27    0.93
 -36  -3  -6    2.92    0.76
 -36  -3  -3    3.29    0.78
 -36  -3   0    3.14    0.89
 -36  -3   3    2.70    0.77
 -36  -3   6    1.97    0.81
 -36  -3   9    0.64    1.27
 -36  -3  12    0.37    1.25
 -36  -3  15    1.11    0.77
 -36  -2 -16    1.12    0.93
 -36  -2 -13    0.44    1.33
 -36  -2 -10    1.12    1.01
 -36  -2  -7    0.82    0.97
 -36  -2  -4    1.58    0.79
 -36  -2  -1    4.73    0.68
 -36  -2   2    2.50    0.75
 -36  -2   5    4.50    0.79
 -36  -2   8    2.19    0.70
 -36  -2  11    0.31    1.27
 -36  -2  14    1.63    1.26
 -36  -1 -14    0.23    1.03
 -36  -1 -11    0.44    1.00
 -36  -1  -8    0.96    0.93
 -36  -1  -5    2.65    0.78
 -36  -1  -2   17.91    1.95
 -36  -1   1    0.11    0.75
 -36  -1   4    5.01    1.39
 -36  -1   7    0.44    0.70
 -36  -1  10    1.53    1.19
 -36  -1  13    2.79    1.24
 -36  -1  16    0.36    1.01
 -35 -14   0    0.09    0.93
 -35 -13  -4    0.08    0.94
 -35 -13  -1    0.88    1.03
 -35 -13   2    0.22    0.68
 -35 -13   5    0.44    0.83
 -35 -12  -5    1.43    1.06
 -35 -12  -2    0.89    1.04
 -35 -12   1    0.26    0.70
 -35 -12   4    0.85    0.70
 -35 -12   7    1.06    0.95
 -35 -11  -9    0.61    0.95
 -35 -11  -6    0.31    1.05
 -35 -11  -3    0.23    0.88
 -35 -11   0    0.40    0.67
 -35 -11   3    1.60    0.83
 -35 -11   6    0.47    0.72
 -35 -11   9    0.13    0.97
 -35 -10 -10    3.13    1.07
 -35 -10  -7    0.39    1.02
 -35 -10  -4    0.99    0.92
 -35 -10  -1    0.36    0.71
 -35 -10   2    2.11    0.78
 -35 -10   5    0.53    0.68
 -35 -10   8    2.83    0.94
 -35 -10  11    0.20    1.05
 -35  -9 -11    4.15    1.09
 -35  -9  -8    0.22    1.38
 -35  -9  -5    3.75    1.01
 -35  -9  -2    1.03    0.73
 -35  -9   1    1.29    0.79
 -35  -9   4    1.93    0.71
 -35  -9   7    1.92    0.81
 -35  -9  10    0.33    1.02
 -35  -8 -12    3.17    1.57
 -35  -8  -9    1.74    1.08
 -35  -8  -6    0.56    0.97
 -35  -8  -3    2.02    0.77
 -35  -8   0    1.77    0.77
 -35  -8   3    0.51    0.74
 -35  -8   6    0.41    0.74
 -35  -8   9    2.06    0.82
 -35  -8  12    1.07    1.05
 -35  -7 -13    1.82    1.08
 -35  -7 -10    0.75    1.03
 -35  -7  -7    9.05    1.08
 -35  -7  -4    1.17    1.41
 -35  -7  -1    6.98    0.85
 -35  -7   2    4.20    0.83
 -35  -7   5    4.40    1.12
 -35  -7   8    2.45    0.85
 -35  -7  11    0.03    1.14
 -35  -6 -14    0.20    0.98
 -35  -6 -11    0.25    0.98
 -35  -6  -8    2.54    0.95
 -35  -6  -5    3.75    0.90
 -35  -6  -2    4.40    0.76
 -35  -6   1    2.43    1.19
 -35  -6   4    4.80    1.65
 -35  -6   7    1.41    0.71
 -35  -6  10    0.08    1.24
 -35  -6  13    1.47    1.12
 -35  -5 -15    1.03    0.96
 -35  -5 -12    0.58    1.06
 -35  -5  -9    1.33    0.97
 -35  -5  -6    1.09    0.97
 -35  -5  -3    2.90    0.72
 -35  -5   0    0.69    0.74
 -35  -5   3    0.48    0.64
 -35  -5   6    1.40    1.45
 -35  -5   9    4.13    0.85
 -35  -5  12    0.53    1.22
 -35  -5  15    1.71    1.16
 -35  -4 -13    0.10    1.02
 -35  -4 -10    1.55    1.07
 -35  -4  -7    3.86    1.17
 -35  -4  -4    2.80    0.81
 -35  -4  -1    1.83    0.72
 -35  -4   2    0.16    0.77
 -35  -4   5    0.30    0.73
 -35  -4   8    0.62    0.76
 -35  -4  11    4.30    1.43
 -35  -4  14    0.22    1.09
 -35  -3 -14    2.77    1.06
 -35  -3 -11    2.09    1.13
 -35  -3  -8    2.48    1.41
 -35  -3  -5    0.10    0.74
 -35  -3  -2    0.80    0.64
 -35  -3   1    3.24    0.82
 -35  -3   4    0.59    0.96
 -35  -3   7    6.51    1.34
 -35  -3  10    1.59    1.48
 -35  -3  13    0.23    1.30
 -35  -2 -15    0.18    0.95
 -35  -2 -12    0.71    1.03
 -35  -2  -9    1.01    0.93
 -35  -2  -6    6.82    1.37
 -35  -2  -3   11.93    1.26
 -35  -2   0   11.71    1.33
 -35  -2   3    0.59    0.71
 -35  -2   6    1.46    0.71
 -35  -2   9    2.34    1.35
 -35  -2  12    1.56    1.35
 -35  -2  15    0.53    1.23
 -35  -1 -16    2.87    0.96
 -35  -1 -13    0.28    1.79
 -35  -1 -10    3.10    1.10
 -35  -1  -7    9.10    1.31
 -35  -1  -4   12.20    3.16
 -35  -1  -1   28.96    2.24
 -35  -1   2    9.70    1.69
 -35  -1   5   10.26    1.35
 -35  -1   8    6.13    0.93
 -35  -1  11    0.05    1.23
 -35  -1  14    2.76    1.28
 -35  -1  17    0.50    1.01
 -34 -15  -1    0.18    1.07
 -34 -15   2    0.85    0.93
 -34 -14  -5    0.87    0.94
 -34 -14  -2    0.28    1.04
 -34 -14   1    0.36    0.71
 -34 -14   4    0.53    0.68
 -34 -13  -6    0.81    1.13
 -34 -13  -3    0.71    1.12
 -34 -13   0    0.55    0.72
 -34 -13   3    0.31    0.73
 -34 -13   6    0.11    0.72
 -34 -13   9    1.07    1.37
 -34 -12  -7    0.27    1.08
 -34 -12  -4    1.86    0.94
 -34 -12  -1    1.22    0.71
 -34 -12   2    1.23    0.68
 -34 -12   5    1.20    0.81
 -34 -12   8    0.55    0.71
 -34 -11  -8    2.47    1.81
 -34 -11  -5    0.06    0.91
 -34 -11  -2    1.22    0.75
 -34 -11   1    0.10    0.77
 -34 -11   4    1.88    0.75
 -34 -11   7    1.69    0.79
 -34 -11  10    0.42    1.00
 -34 -10 -12    0.54    1.34
 -34 -10  -9    2.19    1.05
 -34 -10  -6    4.73    1.26
 -34 -10  -3    2.68    0.91
 -34 -10   0    4.43    0.95
 -34 -10   3    0.57    0.72
 -34 -10   6    0.42    0.69
 -34 -10   9    0.68    0.77
 -34 -10  12    0.17    0.98
 -34  -9 -13    0.17    1.23
 -34  -9 -10    2.10    1.08
 -34  -9  -7    1.19    0.93
 -34  -9  -4    2.54    1.24
 -34  -9  -1    3.14    0.76
 -34  -9   2    2.18    0.83
 -34  -9   5    0.33    0.74
 -34  -9   8    3.16    0.90
 -34  -9  11    0.29    1.10
 -34  -8 -11    0.99    2.01
 -34  -8  -8    0.93    1.07
 -34  -8  -5    3.26    1.34
 -34  -8  -2    2.42    0.69
 -34  -8   1    4.93    0.81
 -34  -8   4    0.09    0.73
 -34  -8   7    0.57    0.74
 -34  -8  10    0.42    0.69
 -34  -8  13    1.16    1.08
 -34  -7 -12    1.10    1.02
 -34  -7  -9    0.55    2.76
 -34  -7  -6    3.47    1.11
 -34  -7  -3    1.82    0.77
 -34  -7   0    1.27    0.72
 -34  -7   3    1.66    0.79
 -34  -7   6    2.30    0.73
 -34  -7   9    0.27    0.81
 -34  -7  12    0.25    1.14
 -34  -7  15    0.01    1.39
 -34  -6 -13    0.38    1.82
 -34  -6 -10    1.41    1.05
 -34  -6  -7   10.37    2.39
 -34  -6  -4    0.13    0.72
 -34  -6  -1    0.16    0.73
 -34  -6   2    1.44    0.97
 -34  -6   5    0.16    0.75
 -34  -6   8    1.66    0.83
 -34  -6  11    1.62    1.35
 -34  -6  14    0.15    1.10
 -34  -5 -14    0.50    0.97
 -34  -5 -11    2.41    1.56
 -34  -5  -8    3.69    2.56
 -34  -5  -5    1.29    0.72
 -34  -5  -2    0.39    0.70
 -34  -5   1    9.37    1.00
 -34  -5   4    0.12    0.69
 -34  -5   7    4.57    0.88
 -34  -5  10    0.20    1.25
 -34  -5  13    2.51    1.33
 -34  -5  16    3.21    1.33
 -34  -4 -15    3.31    2.44
 -34  -4 -12    0.95    3.26
 -34  -4  -9    7.69    1.26
 -34  -4  -6    1.00    0.72
 -34  -4  -3   15.09    1.20
 -34  -4   0    9.01    1.76
 -34  -4   3    5.94    1.47
 -34  -4   6    0.62    1.13
 -34  -4   9    3.25    0.77
 -34  -4  12    2.70    1.40
 -34  -4  15    4.40    1.75
 -34  -3 -16    2.74    0.92
 -34  -3 -13    0.97    1.19
 -34  -3 -10   12.43    1.65
 -34  -3  -7    0.36    0.95
 -34  -3  -4    7.16    0.85
 -34  -3  -1    3.10    0.83
 -34  -3   2   10.03    1.34
 -34  -3   5    0.31    0.65
 -34  -3   8    0.25    0.85
 -34  -3  11    1.10    1.42
 -34  -3  14    1.63    1.36
 -34  -2 -17    1.39    0.89
 -34  -2 -14    0.88    1.07
 -34  -2 -11    0.69    1.36
 -34  -2  -8    1.45    1.13
 -34  -2  -5    2.36    0.92
 -34  -2  -2    7.56    1.20
 -34  -2   1    0.07    0.84
 -34  -2   4    4.76    1.23
 -34  -2   7    1.83    0.86
 -34  -2  10    2.33    1.49
 -34  -2  13    1.02    1.30
 -34  -2  19    0.11    1.04
 -34  -1 -18    0.25    1.21
 -34  -1 -15    1.44    1.26
 -34  -1 -12    0.84    1.21
 -34  -1  -9    1.13    0.91
 -34  -1  -6    5.00    1.21
 -34  -1  -3   28.14    1.96
 -34  -1   0    9.89    1.01
 -34  -1   3    0.30    0.68
 -34  -1   6    2.92    1.54
 -34  -1   9    8.86    3.08
 -34  -1  12    0.46    1.27
 -34  -1  15    1.58    2.02
 -34  -1  18    0.70    0.94
 -33 -16  -2    0.60    1.01
 -33 -16   1    0.93    1.00
 -33 -16   4    0.59    0.97
 -33 -15  -6    0.23    0.95
 -33 -15  -3    0.82    1.07
 -33 -15   0    0.57    0.59
 -33 -15   3    0.23    0.68
 -33 -15   6    0.36    0.66
 -33 -14  -7    0.35    1.01
 -33 -14  -4    0.54    1.02
 -33 -14  -1    0.59    0.64
 -33 -14   2    0.27    0.71
 -33 -14   5    0.37    0.75
 -33 -14   8    0.12    0.67
 -33 -13  -8    0.54    1.09
 -33 -13  -5    3.88    1.55
 -33 -13  -2    1.40    0.89
 -33 -13   1    0.68    0.69
 -33 -13   4    0.60    0.73
 -33 -13   7    2.99    0.77
 -33 -13  10    0.12    0.98
 -33 -12  -9    0.05    1.11
 -33 -12  -6    3.61    1.02
 -33 -12  -3    3.59    1.05
 -33 -12   0    0.56    0.74
 -33 -12   3    2.60    0.73
 -33 -12   6    2.53    0.72
 -33 -12   9    5.79    1.19
 -33 -12  12    0.30    0.99
 -33 -11 -10    0.82    1.01
 -33 -11  -7    0.46    0.98
 -33 -11  -4    0.14    0.90
 -33 -11  -1    3.72    0.83
 -33 -11   2    1.24    0.74
 -33 -11   5    0.10    0.72
 -33 -11   8    0.15    0.76
 -33 -11  11    0.03    0.76
 -33 -10 -11    0.61    0.98
 -33 -10  -8    5.14    1.06
 -33 -10  -5    0.25    0.91
 -33 -10  -2    3.74    2.18
 -33 -10   1    3.67    1.15
 -33 -10   4    3.90    1.31
 -33 -10   7    1.29    0.75
 -33 -10  10    1.21    0.74
 -33 -10  13    2.04    1.21
 -33  -9 -12    1.30    0.96
 -33  -9  -9    4.20    1.11
 -33  -9  -6    2.02    0.90
 -33  -9  -3    4.99    0.84
 -33  -9   0    0.37    1.88
 -33  -9   3    0.25    0.74
 -33  -9   6    1.54    0.77
 -33  -9   9    1.39    0.77
 -33  -9  12    1.15    1.18
 -33  -8 -13    0.38    0.95
 -33  -8 -10    1.56    1.08
 -33  -8  -7    2.26    1.30
 -33  -8  -4    0.70    0.92
 -33  -8  -1    0.61    0.73
 -33  -8   2    0.14    0.71
 -33  -8   5    3.58    1.26
 -33  -8   8    1.86    0.87
 -33  -8  11    1.70    1.28
 -33  -8  14    0.88    1.13
 -33  -7 -14    9.49    1.48
 -33  -7 -11    0.04    1.01
 -33  -7  -8    5.19    1.00
 -33  -7  -5    1.40    0.70
 -33  -7  -2   14.86    1.34
 -33  -7   1    0.08    0.81
 -33  -7   4    8.62    1.33
 -33  -7   7    0.56    0.89
 -33  -7  10    1.84    0.77
 -33  -7  13    1.39    1.34
 -33  -7  16    1.15    1.47
 -33  -6 -15    0.86    0.97
 -33  -6 -12    0.57    1.04
 -33  -6  -9    6.42    1.82
 -33  -6  -6    1.67    0.96
 -33  -6  -3    1.93    0.73
 -33  -6   0    6.04    1.33
 -33  -6   3    1.89    0.73
 -33  -6   6    0.87    0.75
 -33  -6   9    1.34    0.86
 -33  -6  12    0.76    1.27
 -33  -6  15    2.87    1.16
 -33  -5 -16    0.01    0.94
 -33  -5 -13    0.56    1.03
 -33  -5 -10    0.62    0.92
 -33  -5  -7    3.17    0.92
 -33  -5  -4    0.27    0.72
 -33  -5  -1    0.08    0.72
 -33  -5   2    5.83    1.05
 -33  -5   5    8.77    1.10
 -33  -5   8    0.34    0.82
 -33  -5  11    1.23    1.29
 -33  -5  14    0.96    1.28
 -33  -4 -17    4.13    1.71
 -33  -4 -14    0.64    1.07
 -33  -4 -11    4.27    1.70
 -33  -4  -8    1.23    2.02
 -33  -4  -5   20.66    2.41
 -33  -4  -2    7.66    2.44
 -33  -4   1   19.09    1.67
 -33  -4   4    3.20    0.70
 -33  -4   7    3.90    0.82
 -33  -4  10    5.15    1.40
 -33  -4  13    6.49    2.13
 -33  -4  16    0.56    1.21
 -33  -3 -15    2.45    1.10
 -33  -3 -12    0.41    1.06
 -33  -3  -9    8.64    1.40
 -33  -3  -6   16.29    2.16
 -33  -3  -3   16.85    1.54
 -33  -3   0    6.98    1.33
 -33  -3   3    0.87    0.67
 -33  -3   6    1.67    2.12
 -33  -3   9   10.03    0.91
 -33  -3  12    3.18    1.33
 -33  -3  15    2.30    1.24
 -33  -2 -16    0.49    1.03
 -33  -2 -13    0.91    2.80
 -33  -2 -10    0.38    0.92
 -33  -2  -7    2.82    0.77
 -33  -2  -4   22.46    2.08
 -33  -2  -1    7.77    1.48
 -33  -2   2    4.76    0.70
 -33  -2   5    1.18    0.74
 -33  -2   8    4.09    1.86
 -33  -2  11   15.79    3.61
 -33  -2  14    1.80    1.42
 -33  -2  20    0.59    0.94
 -33  -1 -17    1.03    0.94
 -33  -1 -14    1.64    1.05
 -33  -1 -11    1.32    3.32
 -33  -1  -8    1.84    1.25
 -33  -1  -5   14.73    1.44
 -33  -1  -2    0.75    0.70
 -33  -1   1    3.72    1.52
 -33  -1   4    2.80    1.34
 -33  -1   7    2.76    0.82
 -33  -1  10    0.30    1.23
 -33  -1  13    0.13    1.11
 -32 -17  -3    0.85    0.99
 -32 -17   0    0.25    0.99
 -32 -17   3    1.76    1.06
 -32 -16  -4    4.21    1.19
 -32 -16  -1    0.14    1.08
 -32 -16   2    3.75    1.20
 -32 -16   5    0.23    0.74
 -32 -16   8    5.31    2.02
 -32 -15  -8    0.25    1.00
 -32 -15  -5    3.63    1.59
 -32 -15  -2    4.93    0.91
 -32 -15   1    0.66    0.68
 -32 -15   4    1.09    0.76
 -32 -15   7    0.78    1.33
 -32 -15  10    2.54    1.23
 -32 -14  -9    0.85    1.06
 -32 -14  -6    0.14    0.93
 -32 -14  -3    2.04    0.98
 -32 -14   0    4.02    0.85
 -32 -14   3    1.95    0.74
 -32 -14   6    0.08    0.77
 -32 -14   9    1.33    0.82
 -32 -13 -10    0.45    0.99
 -32 -13  -7    6.98    1.30
 -32 -13  -4    1.52    1.09
 -32 -13  -1    3.90    0.77
 -32 -13   2    5.69    0.80
 -32 -13   5    2.30    0.70
 -32 -13   8    2.73    0.76
 -32 -13  11    1.15    0.72
 -32 -12 -11    2.55    0.99
 -32 -12  -8    2.69    0.98
 -32 -12  -5    0.95    1.59
 -32 -12  -2    0.29    0.71
 -32 -12   1    6.77    0.80
 -32 -12   4    1.14    0.77
 -32 -12   7    5.93    1.19
 -32 -12  10    1.49    0.79
 -32 -12  13    1.82    1.04
 -32 -11 -12    0.02    1.00
 -32 -11  -9    1.49    0.97
 -32 -11  -6    2.58    1.01
 -32 -11  -3    5.86    1.27
 -32 -11   0    0.03    0.74
 -32 -11   3    5.53    0.88
 -32 -11   6    1.80    0.70
 -32 -11   9    2.10    0.84
 -32 -11  12    0.17    1.09
 -32 -10 -13    3.63    1.65
 -32 -10 -10    4.14    1.63
 -32 -10  -7    5.00    1.17
 -32 -10  -4    1.44    0.71
 -32 -10  -1    4.77    2.40
 -32 -10   2    1.98    0.75
 -32 -10   5    1.00    0.85
 -32 -10   8    3.00    0.84
 -32 -10  11    8.18    1.21
 -32 -10  14    2.00    1.06
 -32  -9 -14    1.11    0.91
 -32  -9 -11    0.45    1.42
 -32  -9  -8    6.72    1.40
 -32  -9  -5    1.65    0.82
 -32  -9  -2   13.00    2.07
 -32  -9   1    1.62    0.76
 -32  -9   4    0.14    0.73
 -32  -9   7    2.71    0.94
 -32  -9  10    1.09    0.79
 -32  -9  13    3.32    1.24
 -32  -8 -15    2.02    1.04
 -32  -8 -12    0.72    0.98
 -32  -8  -9    3.10    1.06
 -32  -8  -6    6.18    0.94
 -32  -8  -3    0.78    0.72
 -32  -8   0    5.39    1.22
 -32  -8   3   10.42    2.11
 -32  -8   6    7.03    1.06
 -32  -8   9    1.57    0.83
 -32  -8  12    1.08    1.22
 -32  -8  15    5.50    1.23
 -32  -7 -16    6.50    3.03
 -32  -7 -13    0.16    1.02
 -32  -7 -10    1.70    1.01
 -32  -7  -7    4.57    1.12
 -32  -7  -4    2.75    0.81
 -32  -7  -1    6.05    0.86
 -32  -7   2    7.57    1.29
 -32  -7   5   14.25    1.63
 -32  -7   8    1.46    0.85
 -32  -7  11    0.50    1.22
 -32  -7  14    6.38    1.88
 -32  -6 -14    0.31    1.01
 -32  -6 -11    0.54    1.08
 -32  -6  -8    0.47    0.94
 -32  -6  -5    5.81    0.84
 -32  -6  -2    2.35    1.61
 -32  -6   1    8.97    1.39
 -32  -6   4    0.55    0.68
 -32  -6   7    2.82    2.00
 -32  -6  10    2.32    0.79
 -32  -6  13    1.74    1.31
 -32  -6  16    4.88    1.69
 -32  -5 -15    0.83    1.03
 -32  -5 -12    0.83    1.13
 -32  -5  -9    2.05    1.03
 -32  -5  -6    1.67    1.13
 -32  -5  -3    6.09    0.77
 -32  -5   0    0.65    0.89
 -32  -5   3    4.33    0.72
 -32  -5   6    0.11    0.94
 -32  -5   9    4.05    0.84
 -32  -5  12    0.68    1.31
 -32  -5  15    2.07    1.31
 -32  -4 -16    0.21    0.94
 -32  -4 -13    1.79    1.14
 -32  -4 -10    1.45    0.97
 -32  -4  -7    3.73    1.47
 -32  -4  -4   20.61    2.19
 -32  -4  -1    3.47    0.69
 -32  -4   2    2.00    0.82
 -32  -4   5    5.25    0.67
 -32  -4   8    5.47    0.97
 -32  -4  11    0.16    1.27
 -32  -4  14    0.52    1.30
 -32  -4  20    1.29    1.06
 -32  -3 -17    1.42    0.99
 -32  -3 -14    0.80    1.83
 -32  -3 -11    6.73    1.23
 -32  -3  -8    2.13    0.97
 -32  -3  -5   26.63    4.24
 -32  -3  -2   12.26    1.88
 -32  -3   1    4.24    0.81
 -32  -3   4    3.95    0.85
 -32  -3   7    2.48    1.55
 -32  -3  10    3.54    1.33
 -32  -3  13    7.15    2.23
 -32  -3  16    1.96    1.20
 -32  -2 -18    2.67    1.38
 -32  -2 -15    2.05    1.07
 -32  -2 -12    0.87    1.01
 -32  -2  -9    1.43    1.24
 -32  -2  -6    8.89    1.36
 -32  -2  -3    6.35    1.81
 -32  -2   0   47.63    2.39
 -32  -2   3   16.78    1.53
 -32  -2   6    3.41    0.80
 -32  -2   9    8.18    2.15
 -32  -2  12    6.33    1.16
 -32  -2  15    1.49    1.11
 -32  -2  21    0.17    0.91
 -32  -1 -19    0.18    2.30
 -32  -1 -16    0.01    2.02
 -32  -1 -13    0.75    2.62
 -32  -1 -10    2.08    1.32
 -32  -1  -7   14.86    2.23
 -32  -1  -4    0.52    0.72
 -32  -1  -1    1.54    0.75
 -32  -1   2    4.12    1.57
 -32  -1   5    4.17    1.55
 -32  -1   8    4.76    1.34
 -32  -1  11    3.21    1.98
 -32  -1  14    4.37    1.31
 -32  -1  20    0.59    1.19
 -31 -19   0    0.03    1.04
 -31 -18  -4    1.42    1.43
 -31 -18  -1    0.31    0.66
 -31 -18   2    0.16    1.00
 -31 -18   5    0.15    1.01
 -31 -17  -5    4.20    1.05
 -31 -17  -2    0.37    1.02
 -31 -17   1    2.29    0.65
 -31 -17   4    2.23    0.95
 -31 -17   7    3.37    0.70
 -31 -16  -6    8.13    1.66
 -31 -16  -3    2.71    0.91
 -31 -16   0    2.44    0.66
 -31 -16   3    3.50    0.85
 -31 -16   6    6.81    3.36
 -31 -16   9    2.09    0.71
 -31 -15 -10    0.48    1.04
 -31 -15  -7    0.60    0.94
 -31 -15  -4    4.30    1.00
 -31 -15  -1    0.43    0.75
 -31 -15   2    4.45    1.05
 -31 -15   5    0.49    0.66
 -31 -15   8    3.17    1.55
 -31 -15  11    0.47    0.96
 -31 -14 -11    0.23    0.93
 -31 -14  -8    0.17    0.91
 -31 -14  -5    0.70    0.93
 -31 -14  -2    7.52    0.80
 -31 -14   1    6.32    1.40
 -31 -14   4    1.59    0.70
 -31 -14   7    1.18    0.80
 -31 -14  10    4.40    0.98
 -31 -13 -12    2.65    1.78
 -31 -13  -9    0.34    0.98
 -31 -13  -6    8.34    1.92
 -31 -13  -3    2.81    0.75
 -31 -13   0    6.85    2.24
 -31 -13   3    5.83    0.76
 -31 -13   6    3.34    0.74
 -31 -13   9    3.01    0.82
 -31 -13  12    1.76    0.69
 -31 -12 -13    1.19    1.12
 -31 -12 -10    0.31    0.96
 -31 -12  -7    0.42    0.91
 -31 -12  -4    3.13    1.04
 -31 -12  -1    4.45    0.86
 -31 -12   2    3.76    1.12
 -31 -12   5    0.73    0.69
 -31 -12   8    4.71    2.05
 -31 -12  11    1.51    0.73
 -31 -12  14    0.35    1.04
 -31 -11 -11    1.84    1.15
 -31 -11  -8    5.77    1.00
 -31 -11  -5    0.91    0.84
 -31 -11  -2    6.12    0.81
 -31 -11   1    3.49    1.64
 -31 -11   4    0.99    0.73
 -31 -11   7    0.04    0.87
 -31 -11  10    2.24    0.86
 -31 -11  13    1.75    1.90
 -31 -10 -12    0.94    1.07
 -31 -10  -9    1.78    0.99
 -31 -10  -6    5.23    0.89
 -31 -10  -3    2.69    0.90
 -31 -10   0    0.99    0.66
 -31 -10   3    4.71    1.10
 -31 -10   6    0.17    0.72
 -31 -10   9    2.46    1.09
 -31 -10  12    2.87    0.93
 -31 -10  15    1.58    1.06
 -31  -9 -13    2.22    0.99
 -31  -9 -10    0.66    1.02
 -31  -9  -7    0.02    0.81
 -31  -9  -4   13.29    1.29
 -31  -9  -1    4.42    0.72
 -31  -9   2    6.59    1.22
 -31  -9   5    2.70    1.86
 -31  -9   8    3.26    0.94
 -31  -9  11    0.03    0.77
 -31  -9  14    0.58    1.15
 -31  -8 -14    2.37    0.98
 -31  -8 -11    2.08    1.52
 -31  -8  -8    0.38    0.92
 -31  -8  -5    1.73    0.69
 -31  -8  -2    9.85    0.95
 -31  -8   1    3.12    0.71
 -31  -8   4    3.74    0.95
 -31  -8   7    0.26    0.82
 -31  -8  10    1.24    0.91
 -31  -8  13    0.83    1.30
 -31  -8  16    2.70    1.19
 -31  -7 -15    2.09    1.02
 -31  -7 -12    3.99    1.09
 -31  -7  -9    0.92    0.89
 -31  -7  -6    4.42    1.43
 -31  -7  -3    0.84    1.06
 -31  -7   0    6.87    0.77
 -31  -7   3    5.69    0.70
 -31  -7   6    1.82    0.80
 -31  -7   9    1.79    0.93
 -31  -7  12    0.06    1.27
 -31  -7  15    0.13    1.20
 -31  -6 -16    3.91    1.47
 -31  -6 -13    1.66    1.22
 -31  -6 -10   15.52    1.19
 -31  -6  -7   11.16    2.54
 -31  -6  -4    0.37    0.71
 -31  -6  -1    0.10    0.72
 -31  -6   2    1.10    1.17
 -31  -6   5    1.77    1.00
 -31  -6   8    0.76    0.93
 -31  -6  11    0.18    1.01
 -31  -6  14    0.14    1.37
 -31  -5 -17    0.91    2.42
 -31  -5 -14    0.30    1.01
 -31  -5 -11   12.11    1.85
 -31  -5  -8    1.06    0.97
 -31  -5  -5    6.03    2.14
 -31  -5  -2   19.13    1.50
 -31  -5   1    6.97    1.59
 -31  -5   4    4.52    0.93
 -31  -5   7    0.71    0.69
 -31  -5  10    0.96    1.32
 -31  -5  13    0.72    1.34
 -31  -5  16    0.23    1.22
 -31  -4 -18    1.65    2.33
 -31  -4 -15    1.66    1.37
 -31  -4 -12    0.44    1.58
 -31  -4  -9   14.18    1.12
 -31  -4  -6    5.71    0.79
 -31  -4  -3    3.34    1.46
 -31  -4   0    2.32    0.76
 -31  -4   3    6.96    1.47
 -31  -4   6   11.59    4.32
 -31  -4   9    5.91    0.92
 -31  -4  12    0.37    1.39
 -31  -4  15    2.15    2.02
 -31  -4  21    0.04    0.94
 -31  -3 -19    4.43    2.50
 -31  -3 -16    0.40    1.02
 -31  -3 -13    0.47    1.05
 -31  -3 -10    7.16    1.05
 -31  -3  -7   11.22    1.71
 -31  -3  -4    3.63    1.84
 -31  -3  -1   24.72    1.79
 -31  -3   2    2.00    0.85
 -31  -3   5   24.15    2.09
 -31  -3   8    1.56    0.93
 -31  -3  11    1.30    1.05
 -31  -3  14    0.19    1.06
 -31  -2 -20    0.69    2.25
 -31  -2 -17    0.20    1.04
 -31  -2 -14    1.53    1.13
 -31  -2 -11    1.38    1.37
 -31  -2  -8    4.05    1.24
 -31  -2  -5   12.60    0.80
 -31  -2  -2   14.09    2.62
 -31  -2   1   13.41    1.85
 -31  -2   4    9.00    1.04
 -31  -2   7    0.42    0.81
 -31  -2  10    8.01    2.59
 -31  -2  13    1.85    1.25
 -31  -2  16    0.80    1.61
 -31  -2  22    0.48    1.01
 -31  -1 -18    1.73    1.52
 -31  -1 -15    1.85    0.94
 -31  -1 -12   12.35    2.09
 -31  -1  -9   18.46    1.72
 -31  -1  -6   27.42    1.81
 -31  -1  -3   54.29    4.26
 -31  -1   0    8.24    0.71
 -31  -1   3   59.85    2.29
 -31  -1   6    0.50    0.96
 -31  -1   9   37.47    4.77
 -31  -1  12    3.68    1.07
 -31  -1  15   13.57    2.21
 -31  -1  21    0.68    1.04
 -30 -20  -1    0.75    1.10
 -30 -20   2    5.01    1.51
 -30 -19  -5    9.12    1.73
 -30 -19  -2    0.18    0.70
 -30 -19   1    5.03    1.50
 -30 -19   4    0.46    0.75
 -30 -18  -6    0.35    0.95
 -30 -18  -3    2.04    1.05
 -30 -18   0    0.27    0.57
 -30 -18   3    1.73    0.84
 -30 -18   6    2.93    1.21
 -30 -17  -7    1.67    1.08
 -30 -17  -4    0.04    0.85
 -30 -17  -1    4.37    1.01
 -30 -17   2    2.98    0.62
 -30 -17   5    0.46    0.72
 -30 -17   8    1.87    0.73
 -30 -16  -8    4.28    1.37
 -30 -16  -5    1.47    0.89
 -30 -16  -2    3.98    1.08
 -30 -16   1    7.90    1.10
 -30 -16   4    2.07    0.70
 -30 -16   7    1.68    0.78
 -30 -16  10    2.17    0.80
 -30 -15  -9    1.27    1.08
 -30 -15  -6    2.22    1.22
 -30 -15  -3    4.74    0.99
 -30 -15   0    4.05    1.24
 -30 -15   3    2.80    0.70
 -30 -15   6    2.58    0.72
 -30 -15   9    0.23    0.80
 -30 -15  12    2.06    0.81
 -30 -14 -10    0.07    0.94
 -30 -14  -7    3.31    0.95
 -30 -14  -4    0.35    1.16
 -30 -14  -1    2.61    0.84
 -30 -14   2    0.63    0.74
 -30 -14   5    0.09    0.70
 -30 -14   8    5.34    0.86
 -30 -14  11    0.27    0.75
 -30 -13 -11    0.54    1.00
 -30 -13  -8    4.10    1.71
 -30 -13  -5    3.79    1.04
 -30 -13  -2    8.12    1.73
 -30 -13   1    0.30    0.91
 -30 -13   4    1.65    0.79
 -30 -13   7    0.73    0.86
 -30 -13  10    7.07    1.28
 -30 -13  13    0.29    1.10
 -30 -12 -12    0.55    1.03
 -30 -12  -9    0.14    1.00
 -30 -12  -6    0.58    0.94
 -30 -12  -3    1.14    0.69
 -30 -12   0    0.40    0.78
 -30 -12   3    1.84    0.75
 -30 -12   6    0.11    0.76
 -30 -12   9    1.13    1.24
 -30 -12  12    2.65    0.83
 -30 -12  15    1.34    1.11
 -30 -11 -13    0.47    1.04
 -30 -11 -10    0.27    2.72
 -30 -11  -7    1.06    0.89
 -30 -11  -4    0.54    0.71
 -30 -11  -1    0.23    0.66
 -30 -11   2    0.06    0.78
 -30 -11   5    1.95    1.40
 -30 -11   8    0.05    1.31
 -30 -11  11    0.85    1.12
 -30 -11  14    0.35    1.13
 -30 -10 -14    3.89    1.18
 -30 -10 -11    1.75    1.46
 -30 -10  -8    2.13    1.17
 -30 -10  -5    4.43    1.36
 -30 -10  -2    4.47    0.73
 -30 -10   1    5.46    0.72
 -30 -10   4    0.03    0.73
 -30 -10   7    8.67    2.34
 -30 -10  10    0.57    1.23
 -30 -10  13    0.89    1.29
 -30 -10  16    1.40    1.12
 -30  -9 -15    1.39    1.57
 -30  -9 -12    4.23    1.09
 -30  -9  -9    0.37    0.94
 -30  -9  -6    1.97    1.22
 -30  -9  -3    2.98    0.78
 -30  -9   0    6.99    1.00
 -30  -9   3    2.63    0.78
 -30  -9   6    5.05    2.50
 -30  -9   9    1.73    1.33
 -30  -9  12    1.11    1.26
 -30  -9  15    1.09    1.23
 -30  -8 -16    0.01    2.30
 -30  -8 -13    3.81    3.12
 -30  -8 -10    3.65    0.98
 -30  -8  -7   14.46    1.58
 -30  -8  -4    1.99    0.74
 -30  -8  -1   35.05    1.95
 -30  -8   2    4.28    0.90
 -30  -8   5   28.70    3.03
 -30  -8  11    0.70    1.34
 -30  -8  14    3.11    1.27
 -30  -8  17    2.69    1.77
 -30  -7 -17    0.58    2.32
 -30  -7 -14    4.14    1.55
 -30  -7 -11    0.76    1.03
 -30  -7  -8    7.03    3.86
 -30  -7  -5    2.98    1.56
 -30  -7  -2   31.36    2.51
 -30  -7   1    4.80    1.93
 -30  -7   4    2.62    1.53
 -30  -7   7    0.06    1.05
 -30  -7  10    2.71    1.27
 -30  -7  13    4.27    1.48
 -30  -7  16    2.92    1.99
 -30  -6 -18    1.96    2.28
 -30  -6 -15    0.01    0.97
 -30  -6 -12    5.49    1.88
 -30  -6  -9    0.42    0.97
 -30  -6  -6   11.44    1.39
 -30  -6  -3   12.26    0.83
 -30  -6   0    9.08    1.74
 -30  -6   3   11.31    1.01
 -30  -6   6   12.09    2.22
 -30  -6   9    1.10    2.35
 -30  -6  12    0.30    1.32
 -30  -6  15    2.10    1.41
 -30  -6  21    1.37    0.98
 -30  -5 -19    0.03    2.10
 -30  -5 -16    0.06    0.97
 -30  -5 -13    3.87    2.36
 -30  -5 -10   10.71    1.83
 -30  -5  -7   12.07    1.43
 -30  -5  -4   28.54    1.85
 -30  -5  -1   27.01    1.96
 -30  -5   2    0.95    2.38
 -30  -5   5    6.23    3.61
 -30  -5   8    2.52    1.28
 -30  -5  11    4.07    1.28
 -30  -4 -20    1.48    2.17
 -30  -4 -17    0.56    1.03
 -30  -4 -14    0.23    1.05
 -30  -4 -11   26.50    3.36
 -30  -4  -8   11.22    1.85
 -30  -4  -5   43.45    1.99
 -30  -4  -2   34.42    1.86
 -30  -4   1   36.00    1.90
 -30  -4   4   11.21    1.93
 -30  -4   7   14.10    1.87
 -30  -4  10    8.32    1.68
 -30  -4  13    0.75    1.23
 -30  -4  16    1.11    1.16
 -30  -4  22    0.20    0.94
 -30  -3 -18    0.05    2.36
 -30  -3 -15    0.38    1.07
 -30  -3 -12    1.76    2.42
 -30  -3  -9   18.57    1.83
 -30  -3  -6   15.40    1.15
 -30  -3  -3    3.54    1.25
 -30  -3   0   29.73    2.97
 -30  -3   3   21.79    2.46
 -30  -3   6   18.66    2.50
 -30  -3   9    1.92    1.96
 -30  -3  12    0.94    1.05
 -30  -3  15    1.14    1.14
 -30  -3  18    1.41    1.61
 -30  -3  21    0.14    1.07
 -30  -2 -19    0.37    2.42
 -30  -2 -16    0.10    1.01
 -30  -2 -13    9.89    1.81
 -30  -2 -10    3.59    2.59
 -30  -2  -7   32.73    1.91
 -30  -2  -4   17.63    1.72
 -30  -2  -1    9.52    2.59
 -30  -2   2   38.89    4.62
 -30  -2   5    4.60    1.32
 -30  -2   8   13.44    3.29
 -30  -2  11   11.88    2.15
 -30  -2  14    2.19    1.08
 -30  -2  17    0.03    1.16
 -30  -2  20    2.76    2.46
 -30  -2  23    0.76    1.18
 -30  -1 -20    3.30    2.39
 -30  -1 -17    0.40    1.58
 -30  -1 -14    3.77    2.86
 -30  -1 -11   10.88    1.28
 -30  -1  -8    7.16    1.64
 -30  -1  -5   25.96    2.05
 -30  -1  -2  104.25    5.49
 -30  -1   1   13.15    2.53
 -30  -1   4    3.06    0.69
 -30  -1   7   11.14    1.92
 -30  -1  10    1.10    1.87
 -30  -1  13    2.60    1.38
 -30  -1  16    2.94    1.06
 -30  -1  19    2.13    1.90
 -30  -1  22    0.98    1.82
 -29 -21  -2    0.09    1.25
 -29 -21   1    0.55    0.97
 -29 -21   4    0.10    1.13
 -29 -20  -3    0.17    1.03
 -29 -20   0    1.08    0.93
 -29 -20   3    0.11    0.96
 -29 -20   6    1.76    0.97
 -29 -19  -7    0.21    0.98
 -29 -19  -4    1.25    1.09
 -29 -19  -1    1.99    1.34
 -29 -19   2    1.06    0.55
 -29 -19   5   11.20    1.55
 -29 -19   8    1.71    1.01
 -29 -18  -8    0.56    0.99
 -29 -18  -5    0.66    0.88
 -29 -18  -2    1.42    0.97
 -29 -18   1    0.91    0.67
 -29 -18   4    4.68    0.69
 -29 -18   7    6.48    2.22
 -29 -18  10    0.71    0.89
 -29 -17  -9    2.66    1.20
 -29 -17  -6    0.35    0.83
 -29 -17  -3    2.36    0.99
 -29 -17   0    1.21    0.75
 -29 -17   3    0.54    0.55
 -29 -17   6    0.86    0.69
 -29 -17   9    9.03    1.29
 -29 -16 -10    1.00    1.05
 -29 -16  -7    3.65    1.24
 -29 -16  -4    3.88    1.04
 -29 -16  -1    7.36    1.09
 -29 -16   2    1.56    0.75
 -29 -16   5   10.27    1.47
 -29 -16   8    0.47    0.92
 -29 -16  11    6.79    1.17
 -29 -15 -11    0.38    0.89
 -29 -15  -8    0.01    0.84
 -29 -15  -5    0.85    1.91
 -29 -15  -2    4.30    1.29
 -29 -15   1    1.60    1.19
 -29 -15   4    4.89    0.76
 -29 -15   7    3.93    0.99
 -29 -15  10    6.25    1.99
 -29 -15  13    0.57    0.67
 -29 -14 -12    1.00    0.95
 -29 -14  -9    2.67    1.16
 -29 -14  -6    0.49    0.92
 -29 -14  -3    1.21    1.23
 -29 -14   0    0.90    0.76
 -29 -14   3    0.82    0.76
 -29 -14   6    7.45    1.36
 -29 -14   9    5.87    1.96
 -29 -14  12    0.28    0.72
 -29 -13 -13    0.61    2.41
 -29 -13 -10    3.46    1.05
 -29 -13  -7    0.80    0.81
 -29 -13  -4   19.92    1.57
 -29 -13  -1    0.38    0.98
 -29 -13   2    0.37    0.77
 -29 -13   5    1.71    0.91
 -29 -13   8    8.51    2.06
 -29 -13  11    2.20    1.22
 -29 -13  14    1.33    1.12
 -29 -12 -14    2.99    2.34
 -29 -12 -11    2.74    1.11
 -29 -12  -8    2.86    0.81
 -29 -12  -5    3.34    1.28
 -29 -12  -2    4.07    0.77
 -29 -12   1    1.04    0.77
 -29 -12   4    2.05    1.10
 -29 -12   7    4.05    1.56
 -29 -12  10    1.57    1.22
 -29 -12  13    0.81    1.18
 -29 -11 -15    0.09    2.28
 -29 -11 -12    0.14    1.22
 -29 -11  -9    1.14    0.84
 -29 -11  -6    6.54    0.95
 -29 -11  -3    0.01    0.68
 -29 -11   0    2.10    0.73
 -29 -11   3    0.32    1.20
 -29 -11   6    4.27    2.75
 -29 -11   9    2.16    2.17
 -29 -11  12    1.85    2.01
 -29 -11  15    1.40    1.21
 -29 -10 -16    2.03    2.45
 -29 -10 -13    3.10    1.54
 -29 -10 -10    1.66    0.92
 -29 -10  -7    3.52    1.52
 -29 -10  -4    2.34    0.72
 -29 -10  -1   16.13    1.53
 -29 -10   2    0.49    0.63
 -29 -10   5    8.03    3.16
 -29 -10   8    1.19    1.20
 -29 -10  11    1.16    1.27
 -29 -10  14    2.28    1.87
 -29  -9 -17    2.14    2.46
 -29  -9 -14    7.06    2.96
 -29  -9 -11    2.51    2.59
 -29  -9  -8    8.53    1.10
 -29  -9  -5    2.23    1.76
 -29  -9  -2   13.30    0.83
 -29  -9   1    0.99    0.79
 -29  -9   4   15.18    1.45
 -29  -9   7    5.76    1.13
 -29  -9  10    0.72    1.31
 -29  -9  13    0.56    1.22
 -29  -9  16    2.01    1.28
 -29  -8 -18    0.01    2.22
 -29  -8 -15    1.97    1.10
 -29  -8 -12    3.41    1.21
 -29  -8  -9   14.99    3.12
 -29  -8  -6    2.20    1.06
 -29  -8  -3   21.18    2.11
 -29  -8   0    3.88    0.64
 -29  -8   3   13.26    1.26
 -29  -8   6   10.00    3.36
 -29  -8   9   17.63    3.76
 -29  -8  12    0.84    1.32
 -29  -8  15    2.79    1.44
 -29  -8  21    1.65    1.09
 -29  -7 -19    0.51    2.20
 -29  -7 -16    2.46    1.08
 -29  -7 -13    1.03    1.44
 -29  -7 -10   36.34    5.35
 -29  -7  -7   18.85    1.83
 -29  -7  -4   17.67    1.40
 -29  -7  -1    0.44    0.93
 -29  -7   2    8.60    3.01
 -29  -7   5    2.71    1.26
 -29  -7   8    0.30    1.16
 -29  -7  11    1.96    1.42
 -29  -7  14    1.72    1.31
 -29  -7  17    3.19    1.29
 -29  -6 -17    0.90    2.58
 -29  -6 -14    2.09    1.03
 -29  -6 -11    8.05    2.24
 -29  -6  -8    6.64    1.30
 -29  -6  -5    6.68    1.55
 -29  -6  -2    5.75    1.58
 -29  -6   1    4.63    0.89
 -29  -6   4   16.98    1.85
 -29  -6   7   16.36    1.66
 -29  -6  10    4.62    3.71
 -29  -6  13    5.71    1.38
 -29  -6  16    9.28    1.34
 -29  -6  22    2.68    1.09
 -29  -5 -18    0.47    2.41
 -29  -5 -15    4.57    1.96
 -29  -5 -12   11.09    2.02
 -29  -5  -9   12.78    1.77
 -29  -5  -6   22.39    1.84
 -29  -5  -3   26.54    3.30
 -29  -5   0   16.80    1.89
 -29  -5   3    2.07    1.16
 -29  -5   6   21.04    3.10
 -29  -5   9    0.59    0.99
 -29  -5  12   20.98    2.05
 -29  -5  15    0.25    1.08
 -29  -5  18    6.23    1.59
 -29  -4 -19    2.43    2.37
 -29  -4 -16    2.32    1.02
 -29  -4 -13    2.60    0.98
 -29  -4 -10    2.22    0.93
 -29  -4  -7   48.29    2.76
 -29  -4  -4    4.15    2.00
 -29  -4  -1    1.82    1.22
 -29  -4   2   10.61    1.47
 -29  -4   5   28.40    2.98
 -29  -4   8   13.37    2.71
 -29  -4  11   19.48    1.60
 -29  -4  14    1.11    1.05
 -29  -4  17    0.07    1.23
 -29  -4  20    1.10    1.56
 -29  -4  23    3.08    1.14
 -29  -3 -20    1.15    2.53
 -29  -3 -17    4.58    1.67
 -29  -3 -14    1.97    1.41
 -29  -3 -11   17.96    1.86
 -29  -3  -8    6.76    1.16
 -29  -3  -5   17.53    1.83
 -29  -3  -2    8.84    1.12
 -29  -3   1   33.81    1.72
 -29  -3   4   50.51    3.01
 -29  -3   7   37.95    3.25
 -29  -3  10   15.30    2.89
 -29  -3  13   10.26    0.96
 -29  -3  16    8.66    1.56
 -29  -3  19    0.63    1.65
 -29  -3  22    0.54    0.90
 -29  -2 -21    0.25    2.30
 -29  -2 -18    1.64    0.98
 -29  -2 -15    4.75    3.16
 -29  -2 -12    7.58    1.35
 -29  -2  -9   39.56    2.72
 -29  -2  -6    2.34    0.92
 -29  -2  -3   68.81    2.84
 -29  -2   0   26.61    1.75
 -29  -2   3   24.23    2.22
 -29  -2   6    4.98    1.16
 -29  -2   9   28.04    3.11
 -29  -2  12    6.80    2.82
 -29  -2  15    1.45    0.98
 -29  -2  18    2.32    1.26
 -29  -2  21    2.83    1.53
 -29  -1 -22    0.35    2.44
 -29  -1 -19    1.04    2.36
 -29  -1 -16    0.08    0.96
 -29  -1 -13   15.31    1.56
 -29  -1 -10    1.10    0.87
 -29  -1  -7   21.21    2.56
 -29  -1  -4   37.11    1.71
 -29  -1  -1    7.08    1.85
 -29  -1   2   12.23    1.47
 -29  -1   5   16.96    1.73
 -29  -1   8    3.48    3.35
 -29  -1  11    2.36    2.54
 -29  -1  14    1.35    1.08
 -29  -1  17    0.18    1.26
 -29  -1  20    2.09    1.59
 -29  -1  23    0.28    0.89
 -28 -22  -3    0.73    1.06
 -28 -22   0    4.31    1.47
 -28 -22   3    0.26    0.89
 -28 -21  -4    1.68    0.99
 -28 -21  -1    0.00    0.69
 -28 -21   2    1.47    0.72
 -28 -21   5    3.25    1.48
 -28 -20  -5    0.54    1.00
 -28 -20  -2    0.82    0.90
 -28 -20   1    1.15    0.71
 -28 -20   4    1.15    0.60
 -28 -20   7    1.46    1.11
 -28 -19  -6    1.67    2.15
 -28 -19  -3    1.06    0.88
 -28 -19   0    3.90    0.74
 -28 -19   3    0.99    0.55
 -28 -19   6    5.47    1.22
 -28 -19   9    1.00    1.00
 -28 -18  -7    0.99    0.89
 -28 -18  -4    3.41    1.34
 -28 -18  -1    4.67    1.53
 -28 -18   2    0.76    0.56
 -28 -18   5    6.72    1.06
 -28 -18   8    4.29    1.24
 -28 -18  11    1.67    1.62
 -28 -17  -8    2.00    0.86
 -28 -17  -5    0.48    1.62
 -28 -17  -2    8.85    1.40
 -28 -17   1    2.09    0.94
 -28 -17   4    1.71    0.60
 -28 -17   7    2.96    0.98
 -28 -17  10    5.57    1.90
 -28 -16  -9    3.03    1.96
 -28 -16  -6    1.05    1.86
 -28 -16  -3    8.80    1.06
 -28 -16   0    2.46    0.76
 -28 -16   3    9.08    1.04
 -28 -16   6    0.10    0.93
 -28 -16   9    2.32    1.32
 -28 -16  12    2.16    1.17
 -28 -15 -10    0.22    0.94
 -28 -15  -7    1.72    1.03
 -28 -15  -4    0.73    1.37
 -28 -15  -1    6.35    0.85
 -28 -15   2    2.72    1.02
 -28 -15   5    7.60    1.99
 -28 -15   8    1.28    1.35
 -28 -15  11    2.35    1.28
 -28 -14 -11    1.15    1.04
 -28 -14  -8    2.29    0.78
 -28 -14  -5    2.44    0.86
 -28 -14  -2    0.04    0.83
 -28 -14   1    2.60    0.75
 -28 -14   4    6.50    2.25
 -28 -14   7    7.94    1.66
 -28 -14  10    2.38    1.35
 -28 -14  13    0.36    1.14
 -28 -13 -12    3.02    1.11
 -28 -13  -9    4.93    0.89
 -28 -13  -6    1.69    0.86
 -28 -13  -3    5.73    0.71
 -28 -13   0    0.87    0.78
 -28 -13   3    2.40    1.06
 -28 -13   6    2.65    1.35
 -28 -13   9    8.72    2.40
 -28 -13  12    0.11    1.20
 -28 -13  15    2.14    1.09
 -28 -12 -13    2.59    2.56
 -28 -12 -10    0.81    0.89
 -28 -12  -7    1.28    0.93
 -28 -12  -4    1.75    0.84
 -28 -12  -1    0.19    0.68
 -28 -12   2    0.89    1.06
 -28 -12   5    6.74    1.68
 -28 -12   8    2.98    1.23
 -28 -12  11    2.72    1.29
 -28 -12  14    2.49    1.36
 -28 -11 -14    0.91    1.16
 -28 -11 -11    0.23    1.07
 -28 -11  -8    7.28    2.30
 -28 -11  -5    1.51    0.81
 -28 -11  -2    0.18    0.74
 -28 -11   1    3.25    0.95
 -28 -11   4    2.13    1.15
 -28 -11   7   13.10    1.86
 -28 -11  10    0.83    1.27
 -28 -11  13    2.36    1.96
 -28 -11  16    0.83    1.19
 -28 -10 -15    0.90    2.45
 -28 -10 -12    2.83    1.08
 -28 -10  -9    3.32    1.55
 -28 -10  -6    7.61    1.47
 -28 -10  -3   18.55    1.51
 -28 -10   0    9.67    1.49
 -28 -10   3    9.26    1.12
 -28 -10   6   12.52    1.30
 -28 -10   9    1.24    1.62
 -28 -10  12    0.34    1.25
 -28 -10  15    4.25    1.35
 -28  -9 -16    5.32    2.76
 -28  -9 -13    4.73    2.61
 -28  -9 -10    0.30    1.53
 -28  -9  -7    4.17    0.96
 -28  -9  -4    6.99    0.71
 -28  -9  -1    3.00    1.14
 -28  -9   2    0.31    0.79
 -28  -9   5   14.18    1.62
 -28  -9   8   15.10    2.83
 -28  -9  11    4.82    1.44
 -28  -9  14    2.90    1.28
 -28  -9  17    0.67    1.25
 -28  -8 -17    0.20    2.32
 -28  -8 -14    0.62    3.00
 -28  -8 -11    1.24    1.01
 -28  -8  -8    6.74    1.24
 -28  -8  -5    4.55    1.04
 -28  -8  -2    3.52    1.23
 -28  -8   1    2.67    0.91
 -28  -8   4    5.10    1.66
 -28  -8   7    4.10    1.43
 -28  -8  10    8.20    1.27
 -28  -8  13    0.23    1.41
 -28  -8  16    0.45    1.29
 -28  -7 -18    3.67    2.73
 -28  -7 -15    1.68    1.00
 -28  -7 -12    4.02    6.46
 -28  -7  -9   19.13    1.97
 -28  -7  -6    5.60    1.29
 -28  -7  -3    6.32    1.21
 -28  -7   0    4.90    0.76
 -28  -7   3   31.61    2.75
 -28  -7   6    0.29    1.02
 -28  -7   9    4.85    2.37
 -28  -7  12    2.95    1.41
 -28  -7  15    1.57    1.26
 -28  -7  18    7.80    2.26
 -28  -6 -19    1.71    2.26
 -28  -6 -16    1.91    1.32
 -28  -6 -13    8.97   11.33
 -28  -6 -10   13.60    2.35
 -28  -6  -7    0.68    1.38
 -28  -6  -4    3.24    1.26
 -28  -6  -1    1.43    0.83
 -28  -6   2    9.17    1.40
 -28  -6   5   37.23    3.05
 -28  -6   8    3.61    1.21
 -28  -6  11   11.12    2.16
 -28  -6  14   16.01    1.67
 -28  -6  17    3.99    1.46
 -28  -6  20    1.34    1.45
 -28  -6  23    1.13    1.60
 -28  -5 -20    0.26    2.18
 -28  -5 -17    2.78    1.21
 -28  -5 -14    4.62    2.06
 -28  -5 -11   13.44    2.65
 -28  -5  -8   23.42    2.08
 -28  -5  -5   35.54    2.04
 -28  -5  -2   10.00    1.73
 -28  -5   1   15.23    1.48
 -28  -5   4    8.67    2.10
 -28  -5   7    4.62    2.02
 -28  -5  10    6.55    1.21
 -28  -5  13   14.45    1.73
 -28  -5  16    5.38    3.29
 -28  -5  19    2.39    1.65
 -28  -5  22    1.06    0.86
 -28  -4 -21    0.08    2.34
 -28  -4 -18    3.78    2.60
 -28  -4 -15    0.55    0.95
 -28  -4 -12   12.23    2.11
 -28  -4  -9   25.07    1.73
 -28  -4  -6   11.74    1.16
 -28  -4  -3    5.59    2.36
 -28  -4   0    5.44    1.04
 -28  -4   3   21.87    1.52
 -28  -4   6    8.97    1.39
 -28  -4   9    6.24    1.98
 -28  -4  12    2.29    0.87
 -28  -4  15    2.64    0.96
 -28  -4  18    0.67    1.27
 -28  -4  21    2.42    1.53
 -28  -3 -22    0.33    2.34
 -28  -3 -19    2.14    2.45
 -28  -3 -16   13.11    2.14
 -28  -3 -13   22.06    2.72
 -28  -3 -10    6.64    1.18
 -28  -3  -7    5.53    1.20
 -28  -3  -4   14.51    1.59
 -28  -3  -1   90.48    2.83
 -28  -3   2   45.45    3.39
 -28  -3   5    2.34    1.34
 -28  -3   8   14.96    0.96
 -28  -3  11   43.44    4.51
 -28  -3  14   22.01    2.51
 -28  -3  17    6.10    1.75
 -28  -3  20    2.46    1.67
 -28  -3  23    0.65    0.86
 -28  -2 -20    0.58    2.38
 -28  -2 -17    2.44    1.04
 -28  -2 -14    0.33    0.89
 -28  -2 -11    2.02    0.83
 -28  -2  -8   21.00    1.45
 -28  -2  -5   16.98    1.44
 -28  -2  -2    5.08    0.63
 -28  -2   1    3.06    1.10
 -28  -2   4    8.02    2.27
 -28  -2   7   12.21    2.53
 -28  -2  10    9.50    0.91
 -28  -2  13   17.10    1.84
 -28  -2  16    7.01    1.03
 -28  -2  19    0.22    1.29
 -28  -2  22    2.49    0.92
 -28  -1 -21    1.76    2.37
 -28  -1 -18    9.46    1.49
 -28  -1 -15    4.70    2.08
 -28  -1 -12    6.77    0.80
 -28  -1  -9    5.99    1.90
 -28  -1  -6   71.13    4.73
 -28  -1  -3   11.29    3.81
 -28  -1   0    8.77    1.43
 -28  -1   3    2.09    0.82
 -28  -1   6   21.26    1.96
 -28  -1   9    1.57    1.70
 -28  -1  12    1.93    1.33
 -28  -1  15    6.05    2.00
 -28  -1  18    5.18    1.40
 -28  -1  21    0.53    1.51
 -28  -1  24    1.37    1.36
 -27 -23  -4    0.09    1.03
 -27 -23  -1    0.53    0.64
 -27 -23   2    2.24    0.99
 -27 -23   5    0.23    1.46
 -27 -22  -5    1.87    0.98
 -27 -22  -2    0.62    0.68
 -27 -22   1    0.48    0.69
 -27 -22   4    5.57    1.01
 -27 -22   7    0.80    0.91
 -27 -21  -6    2.33    0.97
 -27 -21  -3    0.39    0.86
 -27 -21   0    0.14    0.64
 -27 -21   3    5.94    1.00
 -27 -21   6    1.56    1.05
 -27 -21   9    0.12    0.90
 -27 -20  -7    0.07    0.98
 -27 -20  -4    0.40    0.89
 -27 -20  -1    1.03    0.88
 -27 -20   2    3.16    0.61
 -27 -20   5    2.32    0.82
 -27 -20  11    0.16    1.29
 -27 -19  -8    0.22    0.88
 -27 -19  -5    3.36    1.55
 -27 -19  -2    0.48    0.94
 -27 -19   1    0.17    0.67
 -27 -19   4    2.17    0.60
 -27 -19   7    1.67    1.28
 -27 -18  -9    0.81    0.87
 -27 -18  -6    0.82    1.03
 -27 -18  -3    8.33    1.92
 -27 -18   0    1.17    0.79
 -27 -18   3    4.87    1.32
 -27 -18   6    2.67    1.22
 -27 -18   9    0.15    1.10
 -27 -17 -10    2.76    1.14
 -27 -17  -7    1.62    6.12
 -27 -17  -4    8.17    1.56
 -27 -17  -1    3.11    0.79
 -27 -17   2    0.73    0.73
 -27 -17   5    0.80    0.68
 -27 -17   8    1.56    1.14
 -27 -17  11    0.57    1.13
 -27 -16 -11    1.65    1.02
 -27 -16  -8    0.25    0.83
 -27 -16  -5    4.59    1.32
 -27 -16  -2    4.54    1.18
 -27 -16   1    1.09    0.72
 -27 -16   4    6.63    1.06
 -27 -16   7    3.72    1.12
 -27 -16  10    0.84    1.24
 -27 -16  13    0.64    1.06
 -27 -15 -12    0.60    1.20
 -27 -15  -9    0.09    0.79
 -27 -15  -6    2.48    0.80
 -27 -15  -3    1.82    0.81
 -27 -15   0    0.92    0.87
 -27 -15   3    3.95    1.03
 -27 -15   6    1.65    0.93
 -27 -15   9    5.27    2.23
 -27 -15  12    1.05    1.16
 -27 -14 -13    2.17    2.20
 -27 -14 -10    1.63    0.84
 -27 -14  -7    0.64    0.83
 -27 -14  -4    1.65    1.05
 -27 -14  -1    2.39    2.81
 -27 -14   2    1.86    1.66
 -27 -14   5   14.53    1.97
 -27 -14   8    2.24    1.18
 -27 -14  11    0.54    1.18
 -27 -14  14    1.09    1.11
 -27 -13 -14    1.52    2.27
 -27 -13 -11    1.38    1.81
 -27 -13  -8    4.58    0.87
 -27 -13  -5    3.14    1.56
 -27 -13  -2    4.35    1.92
 -27 -13   1    0.19    0.99
 -27 -13   4    3.48    3.32
 -27 -13   7    0.10    1.17
 -27 -13  10    5.94    1.42
 -27 -13  13    0.38    1.37
 -27 -12 -15    3.61    2.53
 -27 -12 -12    1.61    1.05
 -27 -12  -9    2.38    1.32
 -27 -12  -6    6.09    1.32
 -27 -12  -3    8.71    1.37
 -27 -12   0    4.93    1.51
 -27 -12   3   15.70    1.75
 -27 -12   6    2.50    1.15
 -27 -12   9    3.11    1.45
 -27 -12  12    0.99    1.23
 -27 -12  15    0.39    1.22
 -27 -11 -16    1.98    2.44
 -27 -11 -13    1.83    1.05
 -27 -11 -10    0.76    1.15
 -27 -11  -7    2.52    0.85
 -27 -11  -4    4.51    0.65
 -27 -11  -1    2.11    0.71
 -27 -11   2    0.64    0.73
 -27 -11   5    8.76    1.60
 -27 -11   8   11.57    1.71
 -27 -11  11    0.15    1.30
 -27 -11  14    0.45    1.34
 -27 -11  17    1.57    1.15
 -27 -10 -17    0.79    2.40
 -27 -10 -14    0.75    1.05
 -27 -10 -11   14.41    2.28
 -27 -10  -8    0.73    0.97
 -27 -10  -5    0.65    0.82
 -27 -10  -2    4.54    1.23
 -27 -10   1   28.28    2.74
 -27 -10   4   10.46    1.78
 -27 -10   7    7.11    1.94
 -27 -10  10   14.23    2.79
 -27 -10  13    0.28    1.28
 -27 -10  16    0.99    1.31
 -27  -9 -18    0.93    2.41
 -27  -9 -15    4.41    1.69
 -27  -9 -12   10.72    2.22
 -27  -9  -9   10.39    2.62
 -27  -9  -6   14.18    1.78
 -27  -9  -3   25.64    1.69
 -27  -9   0   33.48    1.91
 -27  -9   3   10.82    1.65
 -27  -9   6   18.94    1.60
 -27  -9   9    1.25    1.15
 -27  -9  12   14.12    2.44
 -27  -9  15    0.22    1.24
 -27  -8 -19    0.59    2.30
 -27  -8 -16    2.67    2.66
 -27  -8 -13    2.52    1.08
 -27  -8 -10   21.23    2.00
 -27  -8  -7    1.10    0.85
 -27  -8  -4    1.71    0.65
 -27  -8  -1    5.39    1.29
 -27  -8   2   31.37    2.33
 -27  -8   5    2.36    0.92
 -27  -8   8    3.66    2.17
 -27  -8  11   11.96    2.10
 -27  -8  14    5.51    2.42
 -27  -8  17    2.25    0.93
 -27  -8  20    0.67    1.36
 -27  -7 -20    1.03    2.18
 -27  -7 -17    2.84    2.90
 -27  -7 -14    2.70    1.73
 -27  -7 -11    1.73    0.88
 -27  -7  -8    8.91    1.22
 -27  -7  -5    4.62    1.32
 -27  -7  -2    1.58    0.90
 -27  -7   1   10.39    1.65
 -27  -7   4    2.08    1.68
 -27  -7   7    5.90    0.93
 -27  -7  10   32.01    4.20
 -27  -7  13    1.48    0.90
 -27  -7  16    0.03    0.83
 -27  -7  19    5.67    1.69
 -27  -7  22    0.27    0.85
 -27  -6 -21    0.97    2.23
 -27  -6 -18    1.57    2.41
 -27  -6 -15    7.77    1.07
 -27  -6 -12   30.06    2.99
 -27  -6  -9    1.41    1.10
 -27  -6  -6    9.91    1.31
 -27  -6  -3    0.90    0.70
 -27  -6   0   28.74    2.15
 -27  -6   3    0.69    0.95
 -27  -6   6    1.18    1.03
 -27  -6   9    1.67    0.88
 -27  -6  12    1.15    1.42
 -27  -6  15    7.88    1.89
 -27  -6  18    1.82    1.10
 -27  -6  21    0.42    1.38
 -27  -5 -22    0.27    2.49
 -27  -5 -19    0.18    2.45
 -27  -5 -16    4.73    0.96
 -27  -5 -13    7.77    1.54
 -27  -5 -10   10.19    1.54
 -27  -5  -7   14.89    1.67
 -27  -5  -4   58.03    4.10
 -27  -5  -1   24.98    2.10
 -27  -5   2   10.84    1.64
 -27  -5   5   16.62    1.82
 -27  -5   8   15.04    3.07
 -27  -5  11   17.27    2.46
 -27  -5  14    9.79    1.45
 -27  -5  17    2.08    1.06
 -27  -5  20    0.16    1.54
 -27  -5  23    1.20    0.82
 -27  -4 -20    1.57    2.55
 -27  -4 -17    0.34    0.94
 -27  -4 -14    4.29    1.02
 -27  -4 -11    6.06    0.86
 -27  -4  -8   39.97    2.23
 -27  -4  -5   14.27    1.32
 -27  -4  -2   10.35    1.98
 -27  -4   1    3.89    1.25
 -27  -4   4    5.27    1.06
 -27  -4   7    2.17    2.60
 -27  -4  10    3.09    1.89
 -27  -4  13   10.68    0.91
 -27  -4  16    1.64    1.34
 -27  -4  19    0.17    1.26
 -27  -4  22    0.73    0.95
 -27  -3 -21    0.83    2.29
 -27  -3 -18    1.91    2.38
 -27  -3 -15    0.11    0.86
 -27  -3 -12   16.28    2.40
 -27  -3  -9   26.57    3.17
 -27  -3  -6   42.62    5.43
 -27  -3  -3   18.71    1.55
 -27  -3   0    2.14    1.60
 -27  -3   3   19.67    1.58
 -27  -3   6   46.15    3.17
 -27  -3   9   49.90    1.93
 -27  -3  12    1.01    1.83
 -27  -3  15    8.40    2.18
 -27  -3  18    1.35    1.19
 -27  -3  21    3.30    1.83
 -27  -3  24    0.10    0.85
 -27  -2 -22    0.98    2.56
 -27  -2 -19    0.17    2.55
 -27  -2 -16    0.03    1.07
 -27  -2 -13   11.57    1.41
 -27  -2 -10    5.25    1.12
 -27  -2  -7   61.46    4.11
 -27  -2  -4   19.41    1.33
 -27  -2  -1   13.27    1.14
 -27  -2   2    2.65    0.72
 -27  -2   5   57.21    2.65
 -27  -2   8   47.43    3.33
 -27  -2  11   14.66    3.48
 -27  -2  14   13.76    1.85
 -27  -2  17   16.02    2.37
 -27  -2  20    0.58    1.15
 -27  -2  23    0.70    0.88
 -27  -1 -23    0.81    2.29
 -27  -1 -20    2.84    2.01
 -27  -1 -17    1.97    0.82
 -27  -1 -14    6.82    0.80
 -27  -1 -11    3.23    0.92
 -27  -1  -8   35.78    2.17
 -27  -1  -5    6.18    1.11
 -27  -1  -2    2.07    0.62
 -27  -1   1    4.16    0.73
 -27  -1   4    1.61    0.83
 -27  -1   7    0.38    0.84
 -27  -1  10   46.90    3.39
 -27  -1  13    2.67    1.86
 -27  -1  16    4.05    1.35
 -27  -1  19    8.01    1.44
 -27  -1  22    1.49    0.98
 -27  -1  25    0.42    0.80
 -26 -24  -5    3.94    1.77
 -26 -24  -2    0.05    0.93
 -26 -24   1    0.65    0.76
 -26 -24   4    3.63    1.40
 -26 -23  -3    1.79    0.73
 -26 -23   0    0.47    0.72
 -26 -23   3    0.35    0.66
 -26 -23   6    1.66    0.94
 -26 -22  -7    1.27    1.11
 -26 -22  -4    0.17    0.99
 -26 -22  -1    1.61    0.67
 -26 -22   2    0.76    0.62
 -26 -22   5    2.34    0.91
 -26 -22   8    0.10    0.96
 -26 -21  -8    0.54    0.95
 -26 -21  -5    3.79    1.20
 -26 -21  -2    1.09    0.86
 -26 -21   1    0.09    0.57
 -26 -21   4    6.17    0.85
 -26 -20  -6    1.79    1.00
 -26 -20  -3    5.87    1.93
 -26 -20   0    1.71    0.93
 -26 -20   3    1.08    0.66
 -26 -20   6    2.45    1.20
 -26 -19 -10    0.06    2.24
 -26 -19  -7    0.21    0.87
 -26 -19  -4    8.87    2.42
 -26 -19  -1    7.97    2.41
 -26 -19   2    1.66    0.96
 -26 -19   5    0.59    0.65
 -26 -19   8    5.20    3.26
 -26 -18 -11    2.81    1.93
 -26 -18  -8    1.03    0.88
 -26 -18  -5    0.43    0.91
 -26 -18  -2    8.06    1.32
 -26 -18   1    0.80    0.99
 -26 -18   4    5.48    0.92
 -26 -18   7    0.23    0.90
 -26 -18  10    0.72    1.24
 -26 -17 -12    1.16    1.98
 -26 -17  -9    1.29    0.85
 -26 -17  -6    2.71    0.92
 -26 -17  -3    0.18    0.90
 -26 -17   0   11.33    1.55
 -26 -17   3    7.32    1.06
 -26 -17   6    0.98    0.89
 -26 -17   9    0.39    1.12
 -26 -17  12    3.37    1.82
 -26 -16 -13    3.21    2.06
 -26 -16 -10    1.54    0.93
 -26 -16  -7    1.46    0.95
 -26 -16  -4    0.89    0.87
 -26 -16  -1    7.45    1.61
 -26 -16   2   10.50    2.22
 -26 -16   5    4.94    0.92
 -26 -16   8    1.13    1.06
 -26 -16  11    0.75    1.25
 -26 -15 -14    2.74    3.00
 -26 -15 -11    0.93    0.85
 -26 -15  -8    2.42    0.85
 -26 -15  -5   10.44    1.42
 -26 -15  -2    0.17    0.99
 -26 -15   1   17.94    1.94
 -26 -15   4    3.82    1.72
 -26 -15   7    5.72    1.15
 -26 -15  10    1.07    1.18
 -26 -15  13    2.04    1.33
 -26 -14 -15    6.18    3.33
 -26 -14 -12    3.42    1.29
 -26 -14  -9    6.97    2.03
 -26 -14  -6    1.14    0.85
 -26 -14  -3    9.66    1.34
 -26 -14   0    2.44    0.99
 -26 -14   3   11.66    1.89
 -26 -14   6    0.15    2.64
 -26 -14   9    6.45    1.90
 -26 -14  12    0.01    1.24
 -26 -14  15    0.63    1.11
 -26 -13 -16    1.47    2.32
 -26 -13 -13    7.21    1.14
 -26 -13 -10    3.47    0.89
 -26 -13  -7    3.47    0.88
 -26 -13  -4    3.12    0.97
 -26 -13  -1   20.40    2.06
 -26 -13   2    1.20    1.21
 -26 -13   5   14.12    1.85
 -26 -13   8    3.75    1.23
 -26 -13  11    3.79    1.49
 -26 -13  14    0.96    1.27
 -26 -12 -17    2.50    2.37
 -26 -12 -14    6.81    3.30
 -26 -12 -11   12.10    1.87
 -26 -12  -8    1.19    0.85
 -26 -12  -5    4.56    0.82
 -26 -12  -2   20.24    1.31
 -26 -12   1   16.27    1.43
 -26 -12   4    5.98    1.05
 -26 -12   7    3.47    1.93
 -26 -12  10   18.77    4.30
 -26 -12  13    4.47    2.10
 -26 -12  16    3.36    1.88
 -26 -11 -18    0.16    2.28
 -26 -11 -15    0.96    2.53
 -26 -11 -12    4.16    0.98
 -26 -11  -9    4.31    1.28
 -26 -11  -6    5.44    1.33
 -26 -11  -3    3.46    0.97
 -26 -11   0   18.42    1.18
 -26 -11   3    6.88    0.77
 -26 -11   6    5.99    2.32
 -26 -11   9    3.10    1.78
 -26 -11  12    2.73    1.48
 -26 -11  15    2.78    2.03
 -26 -10 -19    0.22    2.23
 -26 -10 -16    4.96    2.67
 -26 -10 -13   10.77    1.75
 -26 -10 -10    9.01    1.60
 -26 -10  -7    0.95    1.70
 -26 -10  -4   23.36    1.63
 -26 -10  -1   20.38    1.50
 -26 -10   2    1.39    0.91
 -26 -10   5    3.63    1.51
 -26 -10   8   15.82    2.02
 -26 -10  11    0.18    1.20
 -26 -10  14    3.56    1.46
 -26 -10  17    1.10    1.21
 -26  -9 -20    0.60    2.11
 -26  -9 -17    5.14    2.48
 -26  -9 -14    5.44    3.13
 -26  -9 -11   19.52    1.74
 -26  -9  -8    1.34    0.95
 -26  -9  -5   24.15    1.62
 -26  -9  -2    1.18    0.78
 -26  -9   1   16.24    1.65
 -26  -9   4    4.89    1.66
 -26  -9   7    1.50    1.00
 -26  -9  10    0.76    1.49
 -26  -9  13    2.67    1.41
 -26  -9  16    1.67    0.99
 -26  -9  19    4.05    2.32
 -26  -8 -21    0.13    3.29
 -26  -8 -18    1.69    2.68
 -26  -8 -15    1.98    1.10
 -26  -8 -12    9.16    1.50
 -26  -8  -9    4.77    1.23
 -26  -8  -6    4.50    0.99
 -26  -8  -3    4.39    0.63
 -26  -8   0   10.58    1.64
 -26  -8   3   16.06    2.21
 -26  -8   6    1.43    0.82
 -26  -8   9    1.44    1.46
 -26  -8  12    2.96    2.27
 -26  -8  15    1.45    1.19
 -26  -8  18    0.47    1.60
 -26  -8  21    0.06    1.36
 -26  -7 -19    0.88    2.33
 -26  -7 -16    1.59    1.16
 -26  -7 -13   24.68    2.96
 -26  -7 -10   16.57    1.52
 -26  -7  -7   16.99    1.78
 -26  -7  -4    3.41    0.66
 -26  -7  -1   20.53    1.42
 -26  -7   2   12.51    1.51
 -26  -7   5   30.23    2.77
 -26  -7   8    8.87    2.33
 -26  -7  11   12.31    1.60
 -26  -7  14    0.18    0.88
 -26  -7  17    2.50    0.89
 -26  -7  20    2.78    1.66
 -26  -7  23    0.11    0.79
 -26  -6 -20    5.25    3.70
 -26  -6 -17    8.64    2.45
 -26  -6 -14    4.41    1.03
 -26  -6 -11   14.87    2.64
 -26  -6  -8    4.00    1.00
 -26  -6  -5    6.83    0.97
 -26  -6  -2    1.65    0.69
 -26  -6   1   73.81    2.79
 -26  -6   4    1.75    0.90
 -26  -6   7   40.55    3.11
 -26  -6  10    3.00    0.92
 -26  -6  13    6.24    0.96
 -26  -6  16    4.32    1.03
 -26  -6  19    1.52    3.00
 -26  -6  22    0.35    1.41
 -26  -5 -21    4.32    2.55
 -26  -5 -18    0.08    2.44
 -26  -5 -15    7.18    1.76
 -26  -5 -12   14.90    1.61
 -26  -5  -9   22.54    1.38
 -26  -5  -6    8.22    0.88
 -26  -5  -3   17.13    2.40
 -26  -5   0   18.70    1.97
 -26  -5   3   12.91    1.57
 -26  -5   6   38.32    3.63
 -26  -5   9   18.80    1.19
 -26  -5  12   25.29    1.91
 -26  -5  15   11.63    2.11
 -26  -5  18    5.52    2.00
 -26  -5  21    0.21    1.50
 -26  -5  24    2.12    0.86
 -26  -4 -22    0.02    2.34
 -26  -4 -19    7.23    2.91
 -26  -4 -16    0.40    0.98
 -26  -4 -13    5.93    1.46
 -26  -4 -10   53.10    4.00
 -26  -4  -7   23.59    1.88
 -26  -4  -4   11.45    2.69
 -26  -4  -1   42.73    2.96
 -26  -4   2   24.67    3.74
 -26  -4   5   47.72    1.68
 -26  -4   8    8.38    1.14
 -26  -4  11    1.85    2.61
 -26  -4  14    2.76    1.33
 -26  -4  17    0.00    1.64
 -26  -4  20    2.49    1.31
 -26  -4  23    0.40    0.90
 -26  -3 -23    1.58    2.43
 -26  -3 -20    5.43    2.42
 -26  -3 -17    4.37    0.91
 -26  -3 -14   40.03    2.43
 -26  -3 -11   12.30    1.28
 -26  -3  -8   91.17    3.58
 -26  -3  -5   16.09    1.86
 -26  -3  -2   32.51    1.85
 -26  -3   1    9.81    1.16
 -26  -3   4   85.86    4.50
 -26  -3   7    4.86    1.39
 -26  -3  10   11.33    1.54
 -26  -3  13    2.82    1.92
 -26  -3  16   30.55    2.57
 -26  -3  19    0.19    1.18
 -26  -3  22    2.94    1.04
 -26  -3  25    0.31    0.81
 -26  -2 -24    0.53    2.42
 -26  -2 -21    2.56    3.02
 -26  -2 -18    1.43    0.84
 -26  -2 -15    7.59    1.65
 -26  -2 -12   42.51    2.55
 -26  -2  -9   36.74    2.44
 -26  -2  -6    6.02    0.71
 -26  -2  -3    1.42    0.87
 -26  -2   0    4.39    1.05
 -26  -2   3    0.11    1.02
 -26  -2   6   21.07    1.26
 -26  -2   9   50.93    4.58
 -26  -2  12   16.49    1.46
 -26  -2  15    9.98    1.84
 -26  -2  18    4.15    1.44
 -26  -2  21    0.73    1.52
 -26  -2  24    0.93    0.93
 -26  -1 -22    7.48    2.73
 -26  -1 -19    0.55    1.51
 -26  -1 -16    1.42    0.79
 -26  -1 -13    6.64    0.78
 -26  -1 -10   56.89    2.37
 -26  -1  -7    4.20    0.61
 -26  -1  -4   22.96    1.53
 -26  -1  -1   17.69    0.85
 -26  -1   2   14.29    1.60
 -26  -1   5   12.23    1.49
 -26  -1   8    4.54    2.55
 -26  -1  11    6.71    3.32
 -26  -1  14    4.76    1.39
 -26  -1  17    0.91    1.36
 -26  -1  20    7.65    1.50
 -26  -1  23    0.79    0.91
 -26  -1  26    0.23    0.85
 -25 -25  -3    0.20    0.89
 -25 -25   0    1.66    1.01
 -25 -24  -4    1.43    0.72
 -25 -24  -1    0.45    0.71
 -25 -24   2    0.25    0.67
 -25 -24   5    3.05    1.13
 -25 -24   8    2.26    1.18
 -25 -23  -5    0.56    1.04
 -25 -23  -2    0.60    0.68
 -25 -23   1    1.64    0.71
 -25 -23   4    2.53    0.80
 -25 -22  -6    0.39    0.83
 -25 -22  -3    0.18    0.87
 -25 -22   0    1.12    0.69
 -25 -22   3    0.29    0.59
 -25 -22   6    9.30    4.45
 -25 -21  -7    0.04    0.85
 -25 -21  -4    0.34    0.84
 -25 -21  -1    0.35    0.94
 -25 -21   2    0.41    0.67
 -25 -21   5    1.06    0.66
 -25 -20  -8    0.96    0.88
 -25 -20  -5    2.09    1.01
 -25 -20  -2    4.01    1.21
 -25 -20   1    3.63    1.55
 -25 -20   4    0.24    0.68
 -25 -20   7    0.58    0.88
 -25 -19  -9    0.74    0.87
 -25 -19  -6    0.12    0.87
 -25 -19  -3    8.54    1.27
 -25 -19   0    9.02    0.95
 -25 -19   3    0.58    0.73
 -25 -19   6    1.21    1.50
 -25 -19   9    2.26    1.17
 -25 -18 -10    0.48    0.92
 -25 -18  -7    1.68    0.85
 -25 -18  -4    2.57    0.98
 -25 -18  -1    8.84    1.27
 -25 -18   2    3.50    1.13
 -25 -18   5    0.25    0.72
 -25 -18   8    0.29    1.02
 -25 -18  11    2.52    1.26
 -25 -17 -11    0.80    1.29
 -25 -17  -8    1.47    1.84
 -25 -17  -5    1.15    0.85
 -25 -17  -2   13.56    2.18
 -25 -17   1    2.15    1.08
 -25 -17   4    3.57    1.60
 -25 -17   7    1.70    1.04
 -25 -17  10    0.10    1.16
 -25 -17  13    2.65    1.19
 -25 -16  -9    1.49    0.80
 -25 -16  -6    0.46    0.75
 -25 -16  -3    3.54    0.66
 -25 -16   0    9.50    2.10
 -25 -16   3    1.92    1.05
 -25 -16   6    3.92    1.02
 -25 -16   9    0.44    1.08
 -25 -16  12    0.32    1.44
 -25 -15 -10    2.05    0.84
 -25 -15  -7    0.21    0.77
 -25 -15  -4    5.82    0.67
 -25 -15  -1   12.25    1.98
 -25 -15   2    0.50    0.95
 -25 -15   5    3.66    1.49
 -25 -15   8    0.25    1.09
 -25 -15  11    1.73    1.20
 -25 -15  14    0.39    1.25
 -25 -14 -11    0.65    0.84
 -25 -14  -8    0.33    0.80
 -25 -14  -5    6.25    1.53
 -25 -14  -2    2.07    1.06
 -25 -14   1    2.18    1.19
 -25 -14   4    0.16    0.90
 -25 -14   7    0.03    1.14
 -25 -14  10    1.22    1.40
 -25 -14  13    0.36    1.20
 -25 -13 -12    0.18    1.39
 -25 -13  -9    6.68    1.10
 -25 -13  -6    0.04    0.65
 -25 -13  -3   10.69    1.07
 -25 -13   0    3.05    1.02
 -25 -13   3    1.52    0.95
 -25 -13   6    0.94    1.21
 -25 -13   9    0.70    1.13
 -25 -13  12    0.52    1.19
 -25 -13  15    3.66    1.40
 -25 -12 -13    0.01    1.19
 -25 -12 -10    5.11    1.60
 -25 -12  -7   13.40    1.61
 -25 -12  -4   13.19    0.64
 -25 -12  -1    1.72    0.68
 -25 -12   2    0.86    1.19
 -25 -12   5    1.57    1.91
 -25 -12   8    2.03    1.18
 -25 -12  11    1.15    1.38
 -25 -12  14    0.97    1.28
 -25 -12  17    4.15    1.99
 -25 -11 -17    2.10    2.44
 -25 -11 -14    1.64    1.35
 -25 -11 -11   16.56    1.52
 -25 -11  -8   36.67    2.76
 -25 -11  -5    3.47    1.16
 -25 -11  -2    3.81    1.11
 -25 -11   1   23.48    1.86
 -25 -11   4    2.54    0.95
 -25 -11   7    1.50    1.69
 -25 -11  10    2.15    1.37
 -25 -11  13    0.53    1.27
 -25 -11  16    3.70    1.41
 -25 -10 -18    1.01    2.34
 -25 -10 -15    7.04    2.85
 -25 -10 -12    4.16    1.16
 -25 -10  -9   26.32    2.64
 -25 -10  -6   10.21    0.79
 -25 -10  -3    1.37    0.57
 -25 -10   0   17.47    1.61
 -25 -10   3   34.51    3.17
 -25 -10   6   28.86    1.97
 -25 -10   9    2.57    1.72
 -25 -10  12    0.58    1.27
 -25 -10  15    6.83    2.03
 -25 -10  18    0.09    0.97
 -25 -10  21    2.24    1.61
 -25  -9 -19    0.85    3.84
 -25  -9 -16    4.61    2.37
 -25  -9 -13    4.73    1.07
 -25  -9 -10   11.97    1.43
 -25  -9  -7    1.67    0.80
 -25  -9  -4   21.33    1.29
 -25  -9  -1    0.87    0.78
 -25  -9   2    9.63    1.21
 -25  -9   5   33.87    2.24
 -25  -9   8    3.96    1.09
 -25  -9  11    1.36    2.18
 -25  -9  14    7.40    2.59
 -25  -9  17    0.38    1.34
 -25  -9  20    0.45    1.43
 -25  -9  23    0.31    0.97
 -25  -8 -20    0.29    2.21
 -25  -8 -17    4.61    4.20
 -25  -8 -14   16.21    3.28
 -25  -8 -11    2.46    1.73
 -25  -8  -8   10.98    1.07
 -25  -8  -5    3.35    0.81
 -25  -8  -2   12.10    1.45
 -25  -8   1   11.51    2.68
 -25  -8   4   16.99    2.23
 -25  -8   7   11.27    0.98
 -25  -8  10    2.07    1.94
 -25  -8  13    9.25    1.29
 -25  -8  16    5.66    1.64
 -25  -8  19    4.19    2.43
 -25  -8  22    1.53    1.34
 -25  -7 -21    0.52    2.18
 -25  -7 -18    0.45    2.43
 -25  -7 -15   13.35    1.87
 -25  -7 -12    0.21    1.63
 -25  -7  -9    9.78    3.16
 -25  -7  -6   41.29    6.04
 -25  -7  -3    2.74    0.48
 -25  -7   0   50.44    4.54
 -25  -7   3   27.81    1.96
 -25  -7   6   40.59    3.05
 -25  -7   9    1.04    1.42
 -25  -7  12   60.84    5.44
 -25  -7  15    1.71    0.87
 -25  -7  18    1.45    1.15
 -25  -7  21    2.01    1.51
 -25  -7  24    0.36    0.85
 -25  -6 -22    0.14    2.30
 -25  -6 -19    2.74    2.61
 -25  -6 -16   10.05    1.74
 -25  -6 -13   15.76    2.05
 -25  -6 -10   86.10    5.55
 -25  -6  -7    3.83    1.41
 -25  -6  -4    6.59    1.04
 -25  -6  -1    4.24    1.08
 -25  -6   2   44.38    3.40
 -25  -6   5   15.88    1.51
 -25  -6   8    1.34    1.31
 -25  -6  11    3.74    0.98
 -25  -6  14    4.56    0.91
 -25  -6  17    3.02    1.44
 -25  -6  20    6.07    2.60
 -25  -6  23    1.26    0.84
 -25  -5 -23    0.97    2.48
 -25  -5 -20    3.15    2.61
 -25  -5 -17    0.94    1.41
 -25  -5 -14   10.52    1.42
 -25  -5 -11    4.64    1.12
 -25  -5  -8   26.25    1.53
 -25  -5  -5    8.95    1.55
 -25  -5  -2    2.48    0.91
 -25  -5   1    3.87    0.96
 -25  -5   4    8.99    1.38
 -25  -5   7    5.56    0.77
 -25  -5  10    3.25    1.06
 -25  -5  13   12.09    1.86
 -25  -5  16    0.70    0.79
 -25  -5  19    1.03    1.17
 -25  -5  22    0.06    1.45
 -25  -5  25    3.06    1.17
 -25  -4 -21    2.19    2.74
 -25  -4 -18    1.24    1.58
 -25  -4 -15    5.91    0.96
 -25  -4 -12    4.33    1.69
 -25  -4  -9   17.25    1.79
 -25  -4  -6   16.67    0.99
 -25  -4  -3    8.35    1.04
 -25  -4   0   24.39    1.58
 -25  -4   3   18.72    1.49
 -25  -4   6    7.64    0.86
 -25  -4   9   15.48    2.83
 -25  -4  12    3.15    1.64
 -25  -4  15    4.94    1.02
 -25  -4  18    5.12    1.65
 -25  -4  21    2.86    1.49
 -25  -4  24    1.21    0.90
 -25  -3 -22    2.44    2.62
 -25  -3 -19    2.18    1.63
 -25  -3 -16    6.08    1.38
 -25  -3 -13    0.17    0.73
 -25  -3 -10   35.35    2.01
 -25  -3  -7   33.54    2.28
 -25  -3  -4    8.00    1.52
 -25  -3  -1    0.95    1.13
 -25  -3   2    1.20    0.66
 -25  -3   5   39.30    2.06
 -25  -3   8   10.09    1.14
 -25  -3  11   46.95    1.91
 -25  -3  14   10.76    1.17
 -25  -3  17   12.82    1.04
 -25  -3  20    0.40    1.20
 -25  -3  23    0.64    0.95
 -25  -3  26    0.05    0.77
 -25  -2 -23    1.08    2.63
 -25  -2 -20    1.18    1.86
 -25  -2 -17    0.26    0.79
 -25  -2 -14    1.39    1.48
 -25  -2 -11   19.55    2.28
 -25  -2  -8   44.76    2.07
 -25  -2  -5   42.16    2.30
 -25  -2  -2   36.76    1.03
 -25  -2   1    3.33    0.66
 -25  -2   4   19.67    1.72
 -25  -2   7    4.19    0.82
 -25  -2  10    5.93    4.22
 -25  -2  13    1.48    1.14
 -25  -2  16   25.55    2.66
 -25  -2  19    2.09    1.06
 -25  -2  22    3.04    1.61
 -25  -2  25    0.17    0.84
 -25  -1 -24    1.91    2.58
 -25  -1 -21    1.32    1.98
 -25  -1 -18    3.62    1.29
 -25  -1 -15    1.95    1.08
 -25  -1 -12    2.34    0.65
 -25  -1  -9    3.22    0.70
 -25  -1  -6   53.40    1.24
 -25  -1  -3    6.32    0.92
 -25  -1   0   12.22    1.24
 -25  -1   3    1.28    0.61
 -25  -1   6   12.64    0.66
 -25  -1   9    6.50    1.09
 -25  -1  12   16.25    1.22
 -25  -1  15   11.97    1.58
 -25  -1  18    8.26    1.88
 -25  -1  21    1.91    1.81
 -25  -1  24    0.25    0.96
 -24 -24  -6    0.76    0.99
 -24 -24  -3    0.44    0.75
 -24 -24   0    1.38    0.93
 -24 -23  -7    1.92    0.91
 -24 -23  -4    0.40    0.82
 -24 -23  -1    0.62    0.73
 -24 -23   2    3.95    0.76
 -24 -23   5    0.45    0.79
 -24 -22  -8    0.38    1.99
 -24 -22  -5    3.72    1.18
 -24 -22  -2    1.29    1.28
 -24 -22   1    0.58    0.58
 -24 -22   4    3.41    0.75
 -24 -22   7    2.62    2.63
 -24 -21  -9    0.95    1.96
 -24 -21  -6    4.15    0.90
 -24 -21  -3    2.78    2.28
 -24 -21   0    4.25    1.31
 -24 -21   3    1.42    0.72
 -24 -21   6    3.81    0.72
 -24 -20 -10    0.02    1.78
 -24 -20  -7    0.41    0.83
 -24 -20  -4    1.39    0.69
 -24 -20  -1    1.48    1.27
 -24 -20   2    5.01    1.00
 -24 -20   5    1.87    1.03
 -24 -20   8    1.61    0.90
 -24 -19  -8    3.46    0.98
 -24 -19  -5    0.94    0.72
 -24 -19  -2    8.61    2.16
 -24 -19   1    0.20    1.10
 -24 -19   4    4.52    1.19
 -24 -19   7    0.67    0.76
 -24 -19  10    0.11    1.19
 -24 -18  -9    1.75    2.90
 -24 -18  -6    1.71    0.67
 -24 -18  -3    9.55    1.10
 -24 -18   0    9.09    1.08
 -24 -18   3    0.56    0.91
 -24 -18   6    4.83    0.72
 -24 -18   9    1.42    1.06
 -24 -18  12    0.26    1.10
 -24 -17 -10    2.06    0.83
 -24 -17  -7    0.66    0.63
 -24 -17  -4    3.05    1.41
 -24 -17  -1    1.10    0.74
 -24 -17   2    8.81    1.85
 -24 -17   5    3.68    0.96
 -24 -17   8    0.46    1.08
 -24 -17  11    1.13    1.24
 -24 -16 -11    1.74    0.95
 -24 -16  -8    1.64    1.13
 -24 -16  -5    2.91    1.10
 -24 -16  -2   24.10    1.97
 -24 -16   1    7.39    1.28
 -24 -16   4    8.06    1.68
 -24 -16   7    7.92    1.32
 -24 -16  10    3.20    2.03
 -24 -16  13    0.53    1.25
 -24 -15 -12    1.11    1.16
 -24 -15  -9    3.89    0.82
 -24 -15  -6    9.47    1.21
 -24 -15  -3   22.74    1.22
 -24 -15   0    2.49    0.76
 -24 -15   3   23.89    1.70
 -24 -15   6    1.22    1.14
 -24 -15   9    4.56    2.73
 -24 -15  12    1.75    1.24
 -24 -15  15    2.33    1.34
 -24 -14 -13    1.81    2.46
 -24 -14 -10    4.50    1.83
 -24 -14  -7    8.57    0.79
 -24 -14  -4   10.41    0.84
 -24 -14  -1    0.96    0.65
 -24 -14   2   14.36    2.61
 -24 -14   5   28.83    2.95
 -24 -14   8   29.69    3.70
 -24 -14  11    2.44    1.30
 -24 -14  14    0.84    1.23
 -24 -13 -11   21.01    2.07
 -24 -13  -8    8.70    0.83
 -24 -13  -5    9.56    1.37
 -24 -13  -2    0.17    1.01
 -24 -13   1   10.13    0.59
 -24 -13   4   23.21    1.60
 -24 -13   7    7.15    2.54
 -24 -13  10    9.19    2.19
 -24 -13  13    0.09    1.23
 -24 -13  16    0.18    1.17
 -24 -12 -12    1.92    1.76
 -24 -12  -9    3.24    0.98
 -24 -12  -6    4.34    0.79
 -24 -12  -3    1.36    0.65
 -24 -12   0    7.56    0.63
 -24 -12   3   31.94    1.98
 -24 -12   6   17.52    2.23
 -24 -12   9   19.81    2.89
 -24 -12  12   16.50    5.23
 -24 -12  15    0.58    1.31
 -24 -11 -19    1.40    2.29
 -24 -11 -13    7.64    2.30
 -24 -11 -10   15.16    2.34
 -24 -11  -7   43.80    1.75
 -24 -11  -4    2.29    0.58
 -24 -11  -1    2.60    0.78
 -24 -11   2   19.88    2.84
 -24 -11   5   29.80    4.13
 -24 -11   8    2.51    1.25
 -24 -11  11    2.38    1.26
 -24 -11  14   14.59    2.82
 -24 -11  17    2.51    1.32
 -24 -11  23    0.29    0.99
 -24 -10 -20    1.14    2.23
 -24 -10 -14    1.20    1.20
 -24 -10 -11   12.24    2.12
 -24 -10  -8    2.25    0.73
 -24 -10  -5   10.80    0.75
 -24 -10  -2    2.93    0.62
 -24 -10   1   31.37    3.09
 -24 -10   4   88.79    4.15
 -24 -10   7   48.83    3.04
 -24 -10  10   19.08    2.82
 -24 -10  13    8.20    2.28
 -24 -10  16    1.58    1.84
 -24 -10  19    0.56    1.45
 -24 -10  22    0.53    1.31
 -24  -9 -21    3.17    2.11
 -24  -9 -18    2.49    2.95
 -24  -9 -15    5.09    3.50
 -24  -9 -12    7.09    2.33
 -24  -9  -9   18.69    2.41
 -24  -9  -6    7.08    1.47
 -24  -9  -3    2.05    0.68
 -24  -9   0    2.96    1.22
 -24  -9   3    1.29    1.24
 -24  -9   6    2.47    1.26
 -24  -9   9    2.15    1.19
 -24  -9  12    0.55    1.07
 -24  -9  15    1.93    1.40
 -24  -9  18    4.10    1.19
 -24  -9  21    2.57    1.54
 -24  -9  24    0.25    0.99
 -24  -8 -22    0.98    2.31
 -24  -8 -19    1.61    2.39
 -24  -8 -16   12.95    4.56
 -24  -8 -13    0.87    1.17
 -24  -8 -10    1.64    1.26
 -24  -8  -7   35.85    4.44
 -24  -8  -4    5.75    0.56
 -24  -8  -1   20.35    1.10
 -24  -8   2   10.50    1.33
 -24  -8   5   29.85    2.19
 -24  -8   8    0.93    0.83
 -24  -8  11   20.92    1.74
 -24  -8  14    3.92    0.86
 -24  -8  17    3.74    1.35
 -24  -8  20    0.08    1.49
 -24  -8  23    2.67    1.16
 -24  -7 -23    1.56    2.59
 -24  -7 -20    1.55    2.27
 -24  -7 -17    3.07    2.26
 -24  -7 -14    1.83    1.62
 -24  -7 -11   26.65    2.31
 -24  -7  -8   78.82    6.21
 -24  -7  -5   16.82    1.51
 -24  -7  -2    3.44    1.23
 -24  -7   1   11.93    0.93
 -24  -7   4    9.06    1.61
 -24  -7   7    0.76    0.84
 -24  -7  10    5.35    1.63
 -24  -7  13   32.75    2.04
 -24  -7  16    9.92    1.84
 -24  -7  19    1.71    0.96
 -24  -7  22    0.62    1.44
 -24  -7  25    0.52    1.02
 -24  -6 -21    3.92    2.85
 -24  -6 -18    0.29    1.55
 -24  -6 -15   51.19    3.02
 -24  -6 -12   16.68    1.88
 -24  -6  -9   37.75    2.85
 -24  -6  -6   18.73    1.21
 -24  -6  -3   30.63    3.05
 -24  -6   0    4.53    0.80
 -24  -6   3    1.69    0.85
 -24  -6   6   22.74    0.80
 -24  -6   9   23.36    1.66
 -24  -6  12    0.25    0.80
 -24  -6  15    4.33    1.33
 -24  -6  18    3.05    0.95
 -24  -6  21    3.16    1.62
 -24  -6  24    1.03    0.86
 -24  -5 -22    3.43    2.34
 -24  -5 -19    3.47    1.69
 -24  -5 -16   20.88    1.94
 -24  -5 -13   14.95    1.56
 -24  -5 -10   27.35    2.61
 -24  -5  -7    4.61    0.70
 -24  -5  -4    6.88    0.84
 -24  -5  -1    2.15    0.76
 -24  -5   2   17.80    1.22
 -24  -5   5    1.42    0.60
 -24  -5   8   30.96    2.40
 -24  -5  11    0.89    1.41
 -24  -5  14    0.96    2.57
 -24  -5  17   10.43    1.43
 -24  -5  20    1.26    0.94
 -24  -5  23    0.05    0.93
 -24  -5  26    1.28    1.07
 -24  -4 -23    1.30    2.52
 -24  -4 -20    2.75    2.09
 -24  -4 -17    2.94    1.02
 -24  -4 -14   18.87    2.35
 -24  -4 -11    0.98    0.69
 -24  -4  -8   17.49    1.82
 -24  -4  -5    9.62    0.85
 -24  -4  -2   15.70    1.11
 -24  -4   1   12.04    1.02
 -24  -4   4   13.37    0.86
 -24  -4   7    0.36    1.30
 -24  -4  10    4.56    1.93
 -24  -4  13    3.55    2.00
 -24  -4  16    1.57    0.86
 -24  -4  19    1.48    1.11
 -24  -4  22    0.61    1.50
 -24  -4  25    0.25    0.85
 -24  -3 -24    2.48    2.41
 -24  -3 -21    1.00    1.64
 -24  -3 -18    4.56    1.61
 -24  -3 -15    0.06    0.94
 -24  -3 -12   43.24    1.55
 -24  -3  -9   28.44    1.47
 -24  -3  -6    9.11    1.29
 -24  -3  -3    1.54    1.12
 -24  -3   0   43.14    1.40
 -24  -3   3    8.61    1.08
 -24  -3   6    7.80    0.60
 -24  -3   9   50.03    2.59
 -24  -3  12   42.23    2.85
 -24  -3  15    7.30    0.86
 -24  -3  18   11.86    1.46
 -24  -3  21    3.87    1.23
 -24  -3  24    0.19    0.90
 -24  -2 -25    2.11    2.26
 -24  -2 -22    0.97    1.01
 -24  -2 -19    1.48    1.38
 -24  -2 -16   20.83    1.47
 -24  -2 -13   14.99    1.50
 -24  -2 -10   23.66    1.95
 -24  -2  -7   35.49    1.47
 -24  -2  -4    2.85    0.54
 -24  -2  -1   15.53    1.23
 -24  -2   2    4.82    0.71
 -24  -2   5   17.16    1.25
 -24  -2   8    1.39    0.92
 -24  -2  11   11.36    0.91
 -24  -2  14    4.94    2.68
 -24  -2  17   12.70    2.37
 -24  -2  20    0.25    0.98
 -24  -2  23    2.49    1.09
 -24  -2  26    0.63    0.83
 -24  -1 -23    1.02    2.32
 -24  -1 -20    1.65    0.97
 -24  -1 -17   11.30    1.44
 -24  -1 -14   21.16    1.45
 -24  -1 -11   31.31    2.01
 -24  -1  -8    7.08    0.85
 -24  -1  -5    9.02    1.52
 -24  -1  -2    7.37    1.06
 -24  -1   1    6.11    0.95
 -24  -1   4    1.42    1.03
 -24  -1   7    6.92    1.08
 -24  -1  10    3.41    1.05
 -24  -1  13   10.86    1.75
 -24  -1  16    8.11    1.09
 -24  -1  19    3.44    1.09
 -24  -1  22    3.62    1.26
 -24  -1  25    0.57    0.92
 -23 -23  -6    3.63    0.96
 -23 -23  -3    0.34    0.83
 -23 -23   0    0.86    1.14
 -23 -22  -7    6.76    1.27
 -23 -22  -4    3.86    0.98
 -23 -22  -1    1.78    0.66
 -23 -22   2    2.52    1.14
 -23 -22   5    2.33    0.74
 -23 -22   8    1.70    1.80
 -23 -21  -8    3.07    1.21
 -23 -21  -5    2.73    0.71
 -23 -21  -2   21.40    2.13
 -23 -21   1    2.19    0.70
 -23 -21   4    1.22    0.72
 -23 -21   7    1.87    0.71
 -23 -20  -9    0.39    1.36
 -23 -20  -6    0.90    0.74
 -23 -20  -3   10.68    1.56
 -23 -20   0    4.13    0.78
 -23 -20   3    7.38    2.00
 -23 -20   6    1.34    0.75
 -23 -20   9    1.91    1.19
 -23 -19  -7   11.52    2.33
 -23 -19  -4    0.99    0.73
 -23 -19  -1    7.46    1.12
 -23 -19   2   12.45    1.66
 -23 -19   5    5.77    0.78
 -23 -19   8    0.65    1.06
 -23 -19  11    2.59    1.41
 -23 -18 -11    3.22    1.54
 -23 -18  -8    4.64    1.54
 -23 -18  -5    6.84    0.69
 -23 -18  -2    6.95    1.30
 -23 -18   1    3.46    1.36
 -23 -18   4   16.21    1.82
 -23 -18   7    0.97    1.63
 -23 -18  10    5.89    1.97
 -23 -18  13    0.02    1.17
 -23 -17 -12    0.50    1.73
 -23 -17  -9    7.65    1.12
 -23 -17  -6    8.75    1.20
 -23 -17  -3    6.26    1.62
 -23 -17   0    2.70    1.46
 -23 -17   3    2.61    1.25
 -23 -17   6   10.28    1.62
 -23 -17   9    1.76    1.22
 -23 -17  12    2.04    1.24
 -23 -16 -13    1.15    2.20
 -23 -16 -10    2.53    1.02
 -23 -16  -7    1.27    0.70
 -23 -16  -4   25.82    1.66
 -23 -16  -1    2.99    0.71
 -23 -16   2   17.52    1.79
 -23 -16   5    0.75    1.09
 -23 -16   8   13.61    3.45
 -23 -16  11    1.19    1.27
 -23 -16  14    0.90    1.44
 -23 -15 -14    0.60    2.37
 -23 -15 -11    3.83    1.28
 -23 -15  -8    8.59    1.25
 -23 -15  -5    0.66    0.61
 -23 -15  -2    2.69    0.67
 -23 -15   1    8.14    1.35
 -23 -15   4   26.62    2.12
 -23 -15   7   18.63    1.70
 -23 -15  10   19.52    2.87
 -23 -15  13    4.42    2.10
 -23 -14 -15    5.21    3.05
 -23 -14 -12    6.07    1.11
 -23 -14  -9    4.52    0.83
 -23 -14  -6    9.56    1.18
 -23 -14  -3    1.63    0.70
 -23 -14   0   20.28    1.40
 -23 -14   3   45.30    3.78
 -23 -14   6   28.13    2.47
 -23 -14   9    9.20    2.30
 -23 -14  12    8.80    2.24
 -23 -14  15    4.60    1.48
 -23 -13 -10   13.53    1.28
 -23 -13  -7   21.01    1.85
 -23 -13  -4   20.74    2.41
 -23 -13  -1    1.46    0.77
 -23 -13   2   39.08    1.61
 -23 -13   5   14.20    1.84
 -23 -13   8    1.13    1.58
 -23 -13  11   20.31    2.48
 -23 -13  14   11.58    2.14
 -23 -13  17    8.92    2.03
 -23 -12 -11   12.88    1.96
 -23 -12  -8    1.42    1.04
 -23 -12  -5   13.08    1.25
 -23 -12  -2    1.43    0.74
 -23 -12   1   21.35    1.49
 -23 -12   4   13.14    2.44
 -23 -12   7   21.54    2.45
 -23 -12  10   15.39    1.48
 -23 -12  13    6.63    1.04
 -23 -12  16    1.31    0.99
 -23 -11 -21    0.54    2.31
 -23 -11 -12   12.56    3.30
 -23 -11  -9    0.34    0.77
 -23 -11  -6    5.09    0.73
 -23 -11  -3    7.71    0.65
 -23 -11   0   13.03    1.13
 -23 -11   3    6.25    0.91
 -23 -11   6   45.69    3.52
 -23 -11   9   18.22    2.51
 -23 -11  12    7.07    2.74
 -23 -11  15    3.87    1.54
 -23 -11  18    1.96    0.78
 -23 -11  21    1.48    1.51
 -23 -11  24    0.16    1.16
 -23 -10 -19    2.88    2.86
 -23 -10 -16    9.78    6.29
 -23 -10 -13    6.29    3.32
 -23 -10 -10    4.80    0.81
 -23 -10  -7   10.35    1.37
 -23 -10  -4    0.48    0.99
 -23 -10  -1   16.46    1.50
 -23 -10   2    3.54    1.20
 -23 -10   5   28.89    1.42
 -23 -10   8   17.81    1.94
 -23 -10  11   24.25    2.90
 -23 -10  14   10.64    2.43
 -23 -10  17    2.09    0.87
 -23 -10  20    0.24    1.59
 -23 -10  23    0.48    0.80
 -23  -9 -20    3.42    2.46
 -23  -9 -17    0.68    3.11
 -23  -9 -14    9.87    2.57
 -23  -9 -11    3.16    1.43
 -23  -9  -8   23.26    1.49
 -23  -9  -5    4.75    0.88
 -23  -9  -2    1.77    0.64
 -23  -9   1   10.95    1.07
 -23  -9   4   22.91    1.58
 -23  -9   7   13.22    0.97
 -23  -9  10   26.61    2.33
 -23  -9  13   11.67    2.04
 -23  -9  16    2.18    1.64
 -23  -9  19    0.01    0.90
 -23  -9  22    2.24    2.20
 -23  -9  25    0.59    1.29
 -23  -8 -21    0.36    2.26
 -23  -8 -18    7.24    2.01
 -23  -8 -15    2.59    1.18
 -23  -8 -12    5.96    1.48
 -23  -8  -9    8.31    1.67
 -23  -8  -6   33.41    1.59
 -23  -8  -3    6.27    1.11
 -23  -8   0    1.37    0.77
 -23  -8   3   29.80    1.24
 -23  -8   6    9.38    1.99
 -23  -8   9   14.13    2.14
 -23  -8  12    0.29    0.80
 -23  -8  15    3.38    2.51
 -23  -8  18    0.01    1.05
 -23  -8  21    0.33    1.42
 -23  -8  24    0.23    0.79
 -23  -7 -22    3.01    2.34
 -23  -7 -19    2.64    5.08
 -23  -7 -16    0.86    1.75
 -23  -7 -13    4.03    1.02
 -23  -7 -10   42.58    2.93
 -23  -7  -7   38.44    2.52
 -23  -7  -4   21.03    1.94
 -23  -7  -1    5.74    0.90
 -23  -7   2   26.44    2.44
 -23  -7   5    1.45    1.19
 -23  -7   8   10.90    2.88
 -23  -7  11    9.34    3.06
 -23  -7  14    7.02    2.08
 -23  -7  17    4.24    0.87
 -23  -7  20    0.62    0.96
 -23  -7  23    0.30    0.86
 -23  -6 -23    2.17    2.63
 -23  -6 -20    0.29    1.77
 -23  -6 -17   11.08    1.56
 -23  -6 -14    8.08    1.22
 -23  -6 -11   23.21    2.32
 -23  -6  -8   37.47    2.79
 -23  -6  -5   17.95    0.73
 -23  -6  -2   64.77    2.57
 -23  -6   1    5.66    1.02
 -23  -6   4    2.91    1.29
 -23  -6   7   40.29    2.96
 -23  -6  10   13.27    1.10
 -23  -6  13   20.20    1.11
 -23  -6  16    0.71    2.70
 -23  -6  19    7.62    1.19
 -23  -6  22    0.12    1.49
 -23  -6  25    1.21    1.26
 -23  -5 -24    0.45    2.33
 -23  -5 -21    0.97    1.62
 -23  -5 -18    8.73    1.69
 -23  -5 -15   17.29    1.48
 -23  -5 -12   12.83    2.18
 -23  -5  -9   16.50    2.00
 -23  -5  -6   14.51    1.17
 -23  -5  -3   41.60    1.30
 -23  -5   0   34.82    0.98
 -23  -5   3   33.78    1.64
 -23  -5   6   64.07    3.48
 -23  -5   9   23.95    1.58
 -23  -5  12    3.26    0.78
 -23  -5  15    0.05    0.87
 -23  -5  18   20.49    1.80
 -23  -5  21    0.57    0.93
 -23  -5  24    0.69    0.89
 -23  -4 -25    1.15    2.22
 -23  -4 -22    0.60    0.91
 -23  -4 -19    0.90    1.55
 -23  -4 -16    5.29    0.87
 -23  -4 -13    2.70    0.74
 -23  -4 -10    1.11    0.61
 -23  -4  -7    7.75    1.04
 -23  -4  -4    9.01    1.22
 -23  -4  -1    5.49    0.51
 -23  -4   2   13.85    0.89
 -23  -4   5    6.73    1.08
 -23  -4   8    2.60    0.63
 -23  -4  11   12.60    1.99
 -23  -4  14    0.97    0.86
 -23  -4  17    6.48    3.12
 -23  -4  20    2.09    1.13
 -23  -4  23    1.55    0.98
 -23  -4  26    0.29    0.84
 -23  -3 -23    2.49    1.46
 -23  -3 -20    1.21    0.89
 -23  -3 -17    3.11    1.08
 -23  -3 -14    5.93    1.62
 -23  -3 -11   18.12    1.50
 -23  -3  -8   15.08    2.23
 -23  -3  -5   22.40    1.83
 -23  -3  -2   40.76    2.45
 -23  -3   1   33.62    1.36
 -23  -3   4   12.53    0.63
 -23  -3   7   28.87    1.39
 -23  -3  10   76.26    5.29
 -23  -3  13   10.48    1.44
 -23  -3  16    0.79    1.07
 -23  -3  19    3.73    1.06
 -23  -3  22    1.44    1.41
 -23  -3  25    0.04    0.87
 -23  -2 -24    0.53    0.90
 -23  -2 -21    0.41    0.88
 -23  -2 -18    9.12    2.17
 -23  -2 -15    2.49    0.82
 -23  -2 -12   22.24    1.09
 -23  -2  -9   44.84    2.19
 -23  -2  -6   12.59    1.24
 -23  -2  -3   40.91    1.49
 -23  -2   0   10.21    2.61
 -23  -2   3   10.26    1.31
 -23  -2   6   17.13    0.95
 -23  -2   9   21.36    2.46
 -23  -2  12   32.44    2.52
 -23  -2  15    2.50    0.78
 -23  -2  18    1.93    1.06
 -23  -2  21    4.49    1.18
 -23  -2  24    0.68    0.95
 -23  -2  27    0.20    0.78
 -23  -1 -25    0.10    0.83
 -23  -1 -22    0.46    0.80
 -23  -1 -19    5.01    1.28
 -23  -1 -16    3.00    0.99
 -23  -1 -13    1.07    0.80
 -23  -1 -10   16.85    1.48
 -23  -1  -7   18.12    1.26
 -23  -1  -4   28.44    1.65
 -23  -1  -1   10.79    1.13
 -23  -1   2    3.20    0.90
 -23  -1   5   27.88    1.63
 -23  -1   8    2.57    0.47
 -23  -1  11    2.20    1.17
 -23  -1  14   65.31    2.62
 -23  -1  17   10.77    2.67
 -23  -1  20    6.84    1.54
 -23  -1  23    1.34    0.87
 -23  -1  26    0.22    0.83
 -22 -22  -9    1.49    1.76
 -22 -22  -6    1.42    0.76
 -22 -22  -3    0.34    0.71
 -22 -22   0    0.97    2.44
 -22 -21  -7    6.69    1.14
 -22 -21  -4    1.66    0.76
 -22 -21  -1    2.55    0.95
 -22 -21   2    2.05    1.32
 -22 -21   5    0.11    0.66
 -22 -21   8    2.07    0.69
 -22 -20  -8    0.32    0.75
 -22 -20  -5    4.36    0.69
 -22 -20  -2    1.77    1.35
 -22 -20   1    0.83    0.76
 -22 -20   4    7.33    1.55
 -22 -20   7    2.67    0.67
 -22 -20  10    0.51    1.36
 -22 -19  -9   11.08    1.43
 -22 -19  -6    5.50    0.72
 -22 -19  -3   24.32    2.55
 -22 -19   0    0.48    0.73
 -22 -19   3   26.78    2.97
 -22 -19   6    5.13    0.70
 -22 -19   9    3.70    1.38
 -22 -19  12    3.26    1.86
 -22 -18 -13    0.13    1.70
 -22 -18 -10    0.30    0.70
 -22 -18  -7    0.98    0.64
 -22 -18  -4    6.63    0.90
 -22 -18  -1    0.52    0.95
 -22 -18   2    5.98    1.34
 -22 -18   5   10.85    1.02
 -22 -18   8    0.19    0.87
 -22 -18  11    0.18    1.24
 -22 -17 -14    5.76    2.38
 -22 -17 -11    1.98    2.27
 -22 -17  -8    0.76    0.67
 -22 -17  -5    3.73    2.15
 -22 -17  -2    1.69    0.71
 -22 -17   1    7.02    2.27
 -22 -17   4   12.97    1.70
 -22 -17   7    4.16    0.81
 -22 -17  10    1.81    1.19
 -22 -17  13    4.95    2.51
 -22 -16 -15    0.33    2.89
 -22 -16 -12    1.93    2.98
 -22 -16  -9    4.05    1.65
 -22 -16  -6   13.42    1.13
 -22 -16  -3    6.28    1.19
 -22 -16   0    5.70    0.77
 -22 -16   3    2.07    1.11
 -22 -16   6    2.66    1.07
 -22 -16   9   11.73    2.34
 -22 -16  12    0.09    1.29
 -22 -16  15    0.12    1.21
 -22 -15 -13    7.34    2.51
 -22 -15 -10    6.35    0.72
 -22 -15  -7   13.20    1.49
 -22 -15  -4    6.65    1.37
 -22 -15  -1    7.11    1.35
 -22 -15   2   11.06    1.08
 -22 -15   5    4.12    3.25
 -22 -15   8    9.02    1.79
 -22 -15  11   10.37    2.06
 -22 -15  14    6.00    2.23
 -22 -14 -11    2.47    0.74
 -22 -14  -8    0.65    0.95
 -22 -14  -5   14.52    1.26
 -22 -14  -2    2.16    0.74
 -22 -14   1    6.26    0.92
 -22 -14   4    6.25    1.32
 -22 -14   7    7.15    1.19
 -22 -14  10    1.09    1.40
 -22 -14  13    1.07    2.80
 -22 -14  16    2.92    1.68
 -22 -13 -12   19.23    2.68
 -22 -13  -9    2.25    1.21
 -22 -13  -6   13.67    2.37
 -22 -13  -3    6.83    0.62
 -22 -13   0   52.57    2.56
 -22 -13   3   21.37    2.12
 -22 -13   6   12.98    2.83
 -22 -13   9    0.78    0.85
 -22 -13  12   14.95    2.00
 -22 -13  15    5.29    1.91
 -22 -13  18    3.65    2.92
 -22 -12 -13   13.03    2.07
 -22 -12 -10   17.68    1.66
 -22 -12  -7    7.96    1.21
 -22 -12  -4    4.37    0.65
 -22 -12  -1    7.11    1.04
 -22 -12   2    4.21    2.21
 -22 -12   5    3.38    1.25
 -22 -12   8   28.20    2.31
 -22 -12  11   10.93    6.37
 -22 -12  14    1.86    2.29
 -22 -12  17    0.92    2.36
 -22 -12  20    0.90    2.00
 -22 -12  23    0.30    1.01
 -22 -11 -14   12.98    5.61
 -22 -11 -11   11.65    1.46
 -22 -11  -8   30.11    1.63
 -22 -11  -5    4.50    1.19
 -22 -11  -2   17.26    0.78
 -22 -11   1    7.76    1.65
 -22 -11   4   32.62    2.07
 -22 -11   7    7.32    2.10
 -22 -11  10   30.54    2.51
 -22 -11  13    8.19    1.75
 -22 -11  16   19.88    1.75
 -22 -11  19    0.23    1.16
 -22 -11  22    3.19    1.43
 -22 -10 -21    3.02    2.19
 -22 -10 -15    1.50    3.15
 -22 -10 -12    1.25    0.87
 -22 -10  -9   20.70    1.98
 -22 -10  -6    4.65    0.99
 -22 -10  -3    5.32    2.55
 -22 -10   0    9.90    0.58
 -22 -10   3    9.10    0.79
 -22 -10   6   15.31    0.63
 -22 -10   9   23.16    1.43
 -22 -10  12    8.28    0.98
 -22 -10  15   14.67    1.55
 -22 -10  18    0.98    0.79
 -22 -10  21    2.35    1.51
 -22 -10  24    0.20    0.79
 -22  -9 -22    2.22    2.24
 -22  -9 -19    0.23    3.91
 -22  -9 -16    2.42    2.72
 -22  -9 -13    1.22    2.07
 -22  -9 -10   22.73    1.23
 -22  -9  -7    3.77    1.06
 -22  -9  -4    4.97    0.93
 -22  -9  -1    3.89    0.82
 -22  -9   2   19.48    0.78
 -22  -9   5    1.64    1.32
 -22  -9   8   15.21    0.86
 -22  -9  11   12.79    1.61
 -22  -9  14   44.29    3.99
 -22  -9  17    1.62    0.95
 -22  -9  20    0.90    0.96
 -22  -9  23    0.63    1.37
 -22  -8 -23    1.59    2.47
 -22  -8 -20    6.78    5.88
 -22  -8 -17    8.54    1.99
 -22  -8 -14    1.59    1.64
 -22  -8 -11   39.58    2.18
 -22  -8  -8    3.90    1.57
 -22  -8  -5    6.26    0.78
 -22  -8  -2    1.71    0.62
 -22  -8   1    4.05    0.68
 -22  -8   4    3.63    1.18
 -22  -8   7   17.22    0.77
 -22  -8  10    6.02    1.19
 -22  -8  13   11.25    3.74
 -22  -8  16    4.38    0.85
 -22  -8  19    0.93    1.15
 -22  -8  22    0.18    1.55
 -22  -8  25    0.19    0.84
 -22  -7 -24    1.75    2.29
 -22  -7 -21    0.28    1.73
 -22  -7 -18    1.04    1.46
 -22  -7 -15   10.81    1.83
 -22  -7 -12    7.11    0.89
 -22  -7  -9   69.91    3.39
 -22  -7  -6    1.51    1.03
 -22  -7  -3    3.84    1.31
 -22  -7   0    7.17    1.37
 -22  -7   3   12.26    1.73
 -22  -7   6   28.81    1.52
 -22  -7   9    7.67    1.95
 -22  -7  12   20.16    1.87
 -22  -7  15    4.57    1.23
 -22  -7  18    2.53    1.02
 -22  -7  21    0.26    0.93
 -22  -7  24    0.44    0.84
 -22  -6 -22    0.98    2.35
 -22  -6 -19   13.86    1.62
 -22  -6 -16    0.58    2.37
 -22  -6 -13   12.13    2.23
 -22  -6 -10   27.10    3.09
 -22  -6  -7    4.80    0.89
 -22  -6  -4   11.19    1.16
 -22  -6  -1    8.33    2.52
 -22  -6   2   58.99    3.19
 -22  -6   5   14.26    1.09
 -22  -6   8   44.27    1.69
 -22  -6  11    6.36    1.16
 -22  -6  14   17.87    2.44
 -22  -6  17    5.60    1.46
 -22  -6  20    0.09    1.02
 -22  -6  23    0.87    0.95
 -22  -6  26    1.89    0.82
 -22  -5 -23    0.61    1.42
 -22  -5 -20    0.18    0.86
 -22  -5 -17   13.52    1.80
 -22  -5 -14    0.43    0.88
 -22  -5 -11    5.96    0.76
 -22  -5  -8    3.55    0.53
 -22  -5  -5   17.67    1.45
 -22  -5  -2   18.17    1.36
 -22  -5   1    5.25    1.08
 -22  -5   4   17.48    2.39
 -22  -5   7   72.46    3.52
 -22  -5  10   27.70    1.05
 -22  -5  13    3.29    1.37
 -22  -5  16    9.45    2.85
 -22  -5  19    1.44    1.07
 -22  -5  22    0.10    1.26
 -22  -5  25    0.46    0.87
 -22  -4 -24    0.61    0.98
 -22  -4 -21    2.47    1.03
 -22  -4 -18    1.84    1.38
 -22  -4 -15    6.15    1.50
 -22  -4 -12   15.73    1.52
 -22  -4  -9    1.71    1.45
 -22  -4  -6    2.59    0.75
 -22  -4  -3    8.75    0.63
 -22  -4   0    3.72    0.70
 -22  -4   3   16.86    1.38
 -22  -4   6   31.48    1.88
 -22  -4   9    4.44    0.99
 -22  -4  12   26.18    1.94
 -22  -4  15    6.00    1.62
 -22  -4  18    8.33    1.31
 -22  -4  21    1.39    1.12
 -22  -4  24    0.97    0.96
 -22  -4  27    0.23    0.80
 -22  -3 -25    5.84    2.14
 -22  -3 -22    0.28    0.84
 -22  -3 -19   17.38    1.65
 -22  -3 -16   17.73    0.78
 -22  -3 -13    5.65    0.88
 -22  -3 -10   22.75    1.71
 -22  -3  -7   30.13    1.68
 -22  -3  -4   40.92    2.31
 -22  -3  -1   29.03    2.29
 -22  -3   2    4.38    1.04
 -22  -3   5   16.49    1.12
 -22  -3   8   11.41    1.63
 -22  -3  11   46.80    1.70
 -22  -3  14    5.83    1.42
 -22  -3  17    2.53    1.30
 -22  -3  20    1.62    0.98
 -22  -3  23    2.49    0.89
 -22  -3  26    1.79    0.84
 -22  -2 -26    0.66    0.76
 -22  -2 -23    1.39    0.90
 -22  -2 -20    7.52    0.98
 -22  -2 -17    9.50    0.86
 -22  -2 -14   11.95    0.71
 -22  -2 -11    6.36    0.78
 -22  -2  -8    3.43    0.82
 -22  -2  -5   50.58    3.89
 -22  -2  -2   31.51    1.64
 -22  -2   1   24.64    1.69
 -22  -2   4   44.05    2.00
 -22  -2   7    4.75    0.51
 -22  -2  10   33.72    2.58
 -22  -2  13   16.55    2.03
 -22  -2  16   13.62    1.55
 -22  -2  19    6.06    2.83
 -22  -2  22    5.88    2.06
 -22  -2  25    1.00    0.84
 -22  -2  28    0.21    0.90
 -22  -1 -27    0.30    0.75
 -22  -1 -24    0.27    0.85
 -22  -1 -21   10.62    1.02
 -22  -1 -18    1.46    0.93
 -22  -1 -15    4.48    0.93
 -22  -1 -12    7.94    1.33
 -22  -1  -9    4.54    0.58
 -22  -1  -6   17.39    2.73
 -22  -1  -3  149.71    3.46
 -22  -1   0   49.06    2.72
 -22  -1   3   47.51    1.26
 -22  -1   6    8.27    0.71
 -22  -1   9  128.21    5.36
 -22  -1  12    9.17    1.05
 -22  -1  15    8.94    2.00
 -22  -1  18   12.05    2.43
 -22  -1  21    9.28    2.66
 -22  -1  24    0.09    0.86
 -22  -1  27    0.27    0.82
 -21 -21  -9    2.97    1.13
 -21 -21  -6    0.34    0.78
 -21 -21  -3    0.34    0.97
 -21 -21   0   23.87    2.74
 -21 -20 -10    2.51    1.23
 -21 -20  -7    1.12    0.70
 -21 -20  -4    2.09    0.74
 -21 -20  -1    2.64    0.74
 -21 -20   2    2.61    1.85
 -21 -20   5   11.84    1.51
 -21 -20   8    5.06    1.41
 -21 -20  11    2.01    1.39
 -21 -19 -11    3.05    1.03
 -21 -19  -8    2.30    0.80
 -21 -19  -5    4.13    1.04
 -21 -19  -2    2.22    1.51
 -21 -19   1    1.55    0.81
 -21 -19   4    0.33    0.88
 -21 -19   7    6.72    0.92
 -21 -19  10   10.27    2.59
 -21 -19  13    0.06    1.16
 -21 -18 -12    1.31    2.05
 -21 -18  -9    1.23    1.07
 -21 -18  -6    9.18    1.10
 -21 -18  -3    5.80    1.22
 -21 -18   0    2.03    0.92
 -21 -18   3   12.71    2.49
 -21 -18   6    5.01    0.79
 -21 -18   9   12.03    1.65
 -21 -18  12    3.65    1.34
 -21 -17 -13    9.26    2.56
 -21 -17 -10    0.55    0.72
 -21 -17  -7    8.28    0.99
 -21 -17  -4    1.04    0.95
 -21 -17  -1    1.71    0.69
 -21 -17   2    0.37    0.69
 -21 -17   5    2.00    1.43
 -21 -17   8    0.66    0.72
 -21 -17  11    2.08    1.10
 -21 -17  14    0.53    1.05
 -21 -16 -14    4.98    2.88
 -21 -16 -11    2.80    0.75
 -21 -16  -8    6.58    1.03
 -21 -16  -5    5.81    0.98
 -21 -16  -2    2.78    0.69
 -21 -16   1   13.09    0.97
 -21 -16   4    1.21    2.11
 -21 -16   7    3.60    0.78
 -21 -16  10    5.84    1.75
 -21 -16  13    5.39    1.54
 -21 -16  16    1.00    1.87
 -21 -15 -15    0.34    2.54
 -21 -15 -12    4.67    1.14
 -21 -15  -9    3.26    1.05
 -21 -15  -6    5.19    1.57
 -21 -15  -3    6.84    2.02
 -21 -15   0   12.22    0.65
 -21 -15   3   13.81    1.29
 -21 -15   6    4.30    1.19
 -21 -15   9    1.54    0.92
 -21 -15  12    1.45    1.64
 -21 -15  15    0.17    0.99
 -21 -14 -13    2.49    4.48
 -21 -14 -10    0.09    0.95
 -21 -14  -7   18.81    1.04
 -21 -14  -4    9.47    1.23
 -21 -14  -1   17.23    1.42
 -21 -14   2    6.20    1.03
 -21 -14   5    3.35    1.04
 -21 -14   8   19.19    1.62
 -21 -14  11    0.70    1.74
 -21 -14  14    0.40    1.12
 -21 -14  17    1.22    1.94
 -21 -14  23    0.48    1.07
 -21 -13 -23    0.13    0.97
 -21 -13 -14    9.95    5.71
 -21 -13 -11    2.40    1.18
 -21 -13  -8   16.11    1.03
 -21 -13  -5    2.44    0.79
 -21 -13  -2    6.27    0.68
 -21 -13   1   23.43    1.62
 -21 -13   4    3.67    1.02
 -21 -13   7    1.06    0.78
 -21 -13  10   20.99    1.78
 -21 -13  13    0.87    1.89
 -21 -13  16    5.93    1.17
 -21 -12 -15    2.64    3.76
 -21 -12 -12    0.82    0.85
 -21 -12  -9    5.30    1.24
 -21 -12  -6    0.26    0.88
 -21 -12  -3    0.81    1.04
 -21 -12   0   16.04    1.11
 -21 -12   3    6.55    1.44
 -21 -12   6    7.91    0.76
 -21 -12   9    7.87    1.45
 -21 -12  12    2.07    2.49
 -21 -12  15   25.33    1.89
 -21 -12  18    0.41    1.20
 -21 -12  21    0.19    1.33
 -21 -12  24    0.68    1.03
 -21 -11 -22    1.29    2.36
 -21 -11 -16    7.56    4.01
 -21 -11 -13   11.84    1.69
 -21 -11 -10   16.33    1.41
 -21 -11  -7   20.07    0.89
 -21 -11  -4    4.14    0.55
 -21 -11  -1    1.58    0.91
 -21 -11   2   44.61    1.59
 -21 -11   5   14.73    1.20
 -21 -11   8    4.45    0.96
 -21 -11  11    1.68    1.73
 -21 -11  14   76.54    4.59
 -21 -11  17    5.61    1.26
 -21 -11  20    0.34    1.37
 -21 -11  23    0.05    1.36
 -21 -10 -23    1.81    1.10
 -21 -10 -17    1.35    3.88
 -21 -10 -14   21.80    3.34
 -21 -10 -11   15.18    0.80
 -21 -10  -8   39.18    2.04
 -21 -10  -5    5.27    1.03
 -21 -10  -2   18.93    0.88
 -21 -10   1    3.06    0.96
 -21 -10   4   18.07    1.72
 -21 -10   7    7.20    0.81
 -21 -10  10    1.16    0.79
 -21 -10  13    3.99    1.17
 -21 -10  16    1.47    0.82
 -21 -10  19    2.61    1.06
 -21 -10  22    1.10    1.41
 -21 -10  25    0.60    1.33
 -21  -9 -21    5.76    2.54
 -21  -9 -18    3.02    2.82
 -21  -9 -15    8.50    3.59
 -21  -9 -12   17.43    1.71
 -21  -9  -9   44.21    2.34
 -21  -9  -6   16.61    1.11
 -21  -9  -3    8.07    1.61
 -21  -9   0    9.41    1.08
 -21  -9   3   15.64    1.47
 -21  -9   6    3.92    0.57
 -21  -9   9    7.08    2.12
 -21  -9  12    4.27    1.47
 -21  -9  15   13.13    1.04
 -21  -9  18    5.56    1.17
 -21  -9  21    2.53    0.95
 -21  -9  24    1.96    0.87
 -21  -8 -22    3.19    2.50
 -21  -8 -19    0.60    1.93
 -21  -8 -16   17.15    3.05
 -21  -8 -13    6.50    1.26
 -21  -8 -10   12.89    0.71
 -21  -8  -7   10.16    1.73
 -21  -8  -4    3.49    0.95
 -21  -8  -1   19.11    2.48
 -21  -8   2    7.13    0.97
 -21  -8   5   13.69    0.92
 -21  -8   8    0.08    1.31
 -21  -8  11   54.80    2.13
 -21  -8  14    0.71    0.88
 -21  -8  17   11.40    1.62
 -21  -8  20    2.67    1.03
 -21  -8  23    0.01    1.45
 -21  -8  26    0.04    0.77
 -21  -7 -23    1.02    2.46
 -21  -7 -20    1.16    0.98
 -21  -7 -17    6.08    1.80
 -21  -7 -14    7.94    1.56
 -21  -7 -11   21.12    2.36
 -21  -7  -8   40.49    2.43
 -21  -7  -5    0.53    0.59
 -21  -7  -2   24.11    1.27
 -21  -7   1    1.04    1.30
 -21  -7   4   43.27    2.50
 -21  -7   7   15.28    1.48
 -21  -7  10   67.23    4.06
 -21  -7  13    0.98    0.85
 -21  -7  16    8.00    1.56
 -21  -7  19    4.56    2.36
 -21  -7  22    0.85    1.34
 -21  -7  25    0.36    0.88
 -21  -6 -24    1.79    2.39
 -21  -6 -21    1.96    1.04
 -21  -6 -18    7.65    1.79
 -21  -6 -15    4.27    1.14
 -21  -6 -12   11.91    1.88
 -21  -6  -9   12.56    2.03
 -21  -6  -6    4.10    0.82
 -21  -6  -3   23.52    1.18
 -21  -6   0    0.24    1.16
 -21  -6   3   20.32    1.63
 -21  -6   6   24.73    1.65
 -21  -6   9    5.15    1.87
 -21  -6  12   13.76    1.43
 -21  -6  15    3.96    0.83
 -21  -6  18    6.90    1.03
 -21  -6  21    0.55    1.06
 -21  -6  24    0.29    0.90
 -21  -6  27    0.94    0.76
 -21  -5 -25    1.31    1.31
 -21  -5 -22    0.21    0.85
 -21  -5 -19    0.40    1.21
 -21  -5 -16    3.65    1.18
 -21  -5 -13    0.13    0.93
 -21  -5 -10    4.59    0.51
 -21  -5  -7   33.07    1.40
 -21  -5  -4    5.76    0.81
 -21  -5  -1   39.23    2.13
 -21  -5   2   12.69    1.23
 -21  -5   5    2.97    0.51
 -21  -5   8    6.95    1.15
 -21  -5  11   15.40    1.44
 -21  -5  14    5.06    1.53
 -21  -5  17    4.00    1.04
 -21  -5  20   11.22    1.70
 -21  -5  23    0.13    1.59
 -21  -5  26    0.46    0.86
 -21  -4 -26    0.86    1.19
 -21  -4 -23    0.57    0.95
 -21  -4 -20    3.28    1.08
 -21  -4 -17    2.78    0.83
 -21  -4 -14    1.89    1.07
 -21  -4 -11    0.12    0.84
 -21  -4  -8   13.32    0.79
 -21  -4  -5  138.62    4.60
 -21  -4  -2    0.09    0.64
 -21  -4   1    1.49    0.53
 -21  -4   4    3.81    1.67
 -21  -4   7   35.09    1.13
 -21  -4  10   43.43    1.95
 -21  -4  13   17.20    1.01
 -21  -4  16    4.20    0.97
 -21  -4  19    0.73    0.98
 -21  -4  22    0.54    1.33
 -21  -4  25    1.49    0.90
 -21  -3 -27    0.30    1.14
 -21  -3 -24    0.42    0.84
 -21  -3 -21    1.97    0.83
 -21  -3 -18   10.37    0.69
 -21  -3 -15    2.39    1.15
 -21  -3 -12    1.97    0.95
 -21  -3  -9   10.45    1.50
 -21  -3  -6   57.14    1.39
 -21  -3  -3  143.83    4.49
 -21  -3   0   81.93    2.33
 -21  -3   3   64.95    3.60
 -21  -3   6   26.35    1.51
 -21  -3   9   30.93    3.91
 -21  -3  12    2.22    1.02
 -21  -3  15   12.55    1.48
 -21  -3  18    0.62    1.17
 -21  -3  21    2.20    1.04
 -21  -3  24    1.33    1.06
 -21  -3  27    0.37    0.87
 -21  -2 -25    0.32    0.84
 -21  -2 -22    2.12    0.69
 -21  -2 -19    3.03    0.85
 -21  -2 -16    0.88    0.58
 -21  -2 -13    4.30    0.84
 -21  -2 -10    8.28    0.66
 -21  -2  -7   61.61    2.69
 -21  -2  -4   24.60    2.01
 -21  -2  -1    7.69    1.77
 -21  -2   2    7.23    0.86
 -21  -2   5   49.93    1.82
 -21  -2   8    0.50    0.85
 -21  -2  11   21.32    1.10
 -21  -2  14    9.53    2.03
 -21  -2  17    8.39    2.48
 -21  -2  20    5.40    1.27
 -21  -2  23    0.48    0.96
 -21  -2  26    0.14    0.83
 -21  -1 -26    2.26    0.83
 -21  -1 -23    4.40    1.33
 -21  -1 -20    6.66    1.20
 -21  -1 -17   17.86    1.08
 -21  -1 -14   28.04    1.36
 -21  -1 -11   12.59    0.56
 -21  -1  -8   90.18    4.92
 -21  -1  -5   46.07    2.56
 -21  -1  -2   94.46    5.54
 -21  -1   1   45.08    2.38
 -21  -1   4   27.26    1.69
 -21  -1   7   44.46    1.30
 -21  -1  10  134.49    4.20
 -21  -1  13    5.78    0.81
 -21  -1  16   24.23    1.62
 -21  -1  19   12.65    2.17
 -21  -1  22    2.10    1.19
 -21  -1  25    0.06    0.88
 -21  -1  28    0.52    0.80
 -20 -20 -12    2.89    1.21
 -20 -20  -9    7.48    1.95
 -20 -20  -6    9.12    1.42
 -20 -20  -3    4.40    1.74
 -20 -20   0    4.24    1.03
 -20 -19 -13    1.20    1.79
 -20 -19 -10    6.90    1.12
 -20 -19  -7    2.41    0.79
 -20 -19  -4    2.77    0.91
 -20 -19  -1    1.71    1.11
 -20 -19   2    8.02    1.31
 -20 -19   5   14.76    1.35
 -20 -19   8    3.26    1.22
 -20 -19  11    4.82    1.93
 -20 -19  14    1.30    1.62
 -20 -18 -14    2.28    2.07
 -20 -18 -11    1.01    1.68
 -20 -18  -8    2.22    0.70
 -20 -18  -5    6.00    1.21
 -20 -18  -2   11.81    0.76
 -20 -18   1    3.40    1.39
 -20 -18   4   43.07    3.02
 -20 -18   7    1.10    0.73
 -20 -18  10    3.64    0.90
 -20 -18  13    1.17    1.43
 -20 -17 -15    1.26    2.24
 -20 -17 -12    5.65    1.12
 -20 -17  -9    0.24    0.67
 -20 -17  -6    8.70    1.88
 -20 -17  -3    1.94    0.64
 -20 -17   0    0.76    1.01
 -20 -17   3    5.42    0.87
 -20 -17   6   15.32    3.12
 -20 -17   9    6.98    2.01
 -20 -17  12    5.63    4.01
 -20 -17  15    1.87    1.34
 -20 -16 -16    0.24    2.47
 -20 -16 -13    0.16    1.15
 -20 -16 -10    5.38    1.25
 -20 -16  -7    1.69    0.70
 -20 -16  -4   10.88    1.53
 -20 -16  -1   20.71    1.31
 -20 -16   2    6.38    0.70
 -20 -16   5    1.16    1.29
 -20 -16   8    5.65    1.26
 -20 -16  11    4.15    1.05
 -20 -16  14    2.82    2.23
 -20 -16  17    0.14    2.36
 -20 -15 -23    0.69    1.74
 -20 -15 -14    0.60    3.13
 -20 -15 -11    1.81    1.18
 -20 -15  -8    1.22    0.66
 -20 -15  -5    0.31    1.26
 -20 -15  -2    2.37    0.91
 -20 -15   1    4.24    1.10
 -20 -15   4    6.88    1.12
 -20 -15   7    4.05    1.07
 -20 -15  10   16.62    2.72
 -20 -15  13    2.33    1.27
 -20 -15  16    0.44    1.02
 -20 -14 -12    0.30    1.30
 -20 -14  -9    2.43    1.64
 -20 -14  -6    1.41    2.34
 -20 -14  -3    3.62    0.57
 -20 -14   0    2.37    0.56
 -20 -14   3    4.88    1.75
 -20 -14   6   33.84    2.15
 -20 -14   9    2.53    1.46
 -20 -14  12    0.32    1.11
 -20 -14  15    8.61    1.76
 -20 -14  18    0.42    2.42
 -20 -14  24    0.02    1.01
 -20 -13 -13    1.38    2.04
 -20 -13 -10    5.00    0.75
 -20 -13  -7   11.28    3.11
 -20 -13  -4    4.25    1.04
 -20 -13  -1    3.43    0.86
 -20 -13   2   13.55    1.25
 -20 -13   5   29.08    3.33
 -20 -13   8   57.11    3.07
 -20 -13  11   11.31    2.46
 -20 -13  14    2.31    2.61
 -20 -13  17    2.83    4.21
 -20 -13  20    0.18    1.39
 -20 -13  23    0.71    1.34
 -20 -12 -23    1.19    1.18
 -20 -12 -17    4.75    3.27
 -20 -12 -14    7.33    2.72
 -20 -12 -11    7.67    1.69
 -20 -12  -8    0.31    0.83
 -20 -12  -5    7.29    0.99
 -20 -12  -2   16.01    1.29
 -20 -12   1    7.04    0.56
 -20 -12   4   16.46    1.04
 -20 -12   7    2.09    1.38
 -20 -12  10   13.97    1.12
 -20 -12  13   11.20    1.09
 -20 -12  16   12.84    1.73
 -20 -12  19    0.94    1.24
 -20 -12  22    0.41    1.41
 -20 -12  25    1.07    1.01
 -20 -11 -24    0.74    1.10
 -20 -11 -18    2.81    4.19
 -20 -11 -15    1.22    3.51
 -20 -11 -12   10.11    1.18
 -20 -11  -9   13.06    0.74
 -20 -11  -6   11.80    1.18
 -20 -11  -3    0.30    0.60
 -20 -11   0    4.45    0.91
 -20 -11   3   11.14    1.53
 -20 -11   6   10.06    1.67
 -20 -11   9    8.65    2.45
 -20 -11  12   28.90    2.78
 -20 -11  15    2.52    1.69
 -20 -11  18    0.89    0.81
 -20 -11  21    2.37    1.58
 -20 -11  24    0.29    1.14
 -20 -10 -22    0.81    2.46
 -20 -10 -19   21.52    3.65
 -20 -10 -16    4.66    2.27
 -20 -10 -13   12.03    1.60
 -20 -10 -10   23.67    1.17
 -20 -10  -7   13.19    1.22
 -20 -10  -4   27.09    1.64
 -20 -10  -1   39.92    1.81
 -20 -10   2    8.60    0.94
 -20 -10   5    2.73    1.02
 -20 -10   8    3.76    1.19
 -20 -10  11   26.64    3.71
 -20 -10  14   12.93    2.41
 -20 -10  17    7.63    1.28
 -20 -10  20    0.52    1.05
 -20 -10  23    0.19    1.41
 -20 -10  26    1.60    1.11
 -20  -9 -23    0.95    1.09
 -20  -9 -20    3.26    2.40
 -20  -9 -17    1.27    1.60
 -20  -9 -14   25.09    3.70
 -20  -9 -11    8.60    1.14
 -20  -9  -8    8.33    1.48
 -20  -9  -5    0.46    0.94
 -20  -9  -2   75.22    3.25
 -20  -9   1    4.08    2.30
 -20  -9   4   45.02    2.78
 -20  -9   7   16.26    1.47
 -20  -9  10   45.12    2.47
 -20  -9  13    3.36    0.92
 -20  -9  16   12.33    1.26
 -20  -9  19    2.02    1.08
 -20  -9  22    0.42    1.56
 -20  -9  25    0.99    0.87
 -20  -8 -24    0.06    2.26
 -20  -8 -21    3.11    1.66
 -20  -8 -18    4.87    1.05
 -20  -8 -15    1.50    1.47
 -20  -8 -12   26.74    2.01
 -20  -8  -9   13.01    2.08
 -20  -8  -6   16.96    0.90
 -20  -8  -3    2.97    0.95
 -20  -8   0   13.32    0.66
 -20  -8   3    4.54    0.66
 -20  -8   6   17.18    1.00
 -20  -8   9   31.46    1.97
 -20  -8  12   30.10    3.57
 -20  -8  15    2.94    1.30
 -20  -8  18    0.54    1.11
 -20  -8  21    0.55    1.00
 -20  -8  24    0.06    0.88
 -20  -8  27    0.50    1.23
 -20  -7 -25    4.45    1.87
 -20  -7 -22    4.58    0.93
 -20  -7 -19    5.94    1.09
 -20  -7 -16   16.22    3.27
 -20  -7 -13   47.74    2.17
 -20  -7 -10    0.94    1.63
 -20  -7  -7    2.52    0.75
 -20  -7  -4    2.19    0.56
 -20  -7  -1   36.34    1.81
 -20  -7   2   10.21    1.00
 -20  -7   5   16.92    2.12
 -20  -7   8   24.10    1.90
 -20  -7  11    3.53    1.06
 -20  -7  14    3.43    1.43
 -20  -7  17    2.81    1.75
 -20  -7  20    1.62    0.98
 -20  -7  23    0.06    1.51
 -20  -7  26    1.62    0.85
 -20  -6 -26    1.00    1.37
 -20  -6 -23    1.25    0.85
 -20  -6 -20    8.34    1.12
 -20  -6 -17   28.96    1.72
 -20  -6 -14    4.23    1.18
 -20  -6 -11   20.68    1.41
 -20  -6  -8   19.28    0.87
 -20  -6  -5   15.57    2.16
 -20  -6  -2   20.86    1.19
 -20  -6   1   20.31    1.44
 -20  -6   4   17.99    0.86
 -20  -6   7   43.72    1.82
 -20  -6  10   39.10    2.73
 -20  -6  13   17.82    1.20
 -20  -6  16    6.06    1.36
 -20  -6  19    2.93    1.35
 -20  -6  22    0.73    1.27
 -20  -6  25    0.98    0.98
 -20  -5 -27    0.32    1.24
 -20  -5 -24    0.05    0.85
 -20  -5 -21    1.07    0.76
 -20  -5 -18   18.09    1.57
 -20  -5 -15    4.87    0.79
 -20  -5 -12    5.48    0.72
 -20  -5  -9    2.21    0.86
 -20  -5  -6    4.52    0.74
 -20  -5  -3    8.73    1.25
 -20  -5   0   11.98    1.59
 -20  -5   3   15.70    0.94
 -20  -5   6    2.76    1.57
 -20  -5   9   15.76    1.64
 -20  -5  12   12.41    1.58
 -20  -5  15    0.28    0.94
 -20  -5  18    1.94    1.98
 -20  -5  21    0.19    0.97
 -20  -5  24    0.39    0.91
 -20  -5  27    1.34    0.84
 -20  -4 -25    0.37    0.80
 -20  -4 -22    0.19    0.65
 -20  -4 -19    9.99    0.64
 -20  -4 -16    5.86    1.13
 -20  -4 -13   12.63    1.34
 -20  -4 -10   29.68    1.64
 -20  -4  -7   22.52    1.67
 -20  -4  -4  121.25    3.81
 -20  -4  -1   35.81    1.87
 -20  -4   2   33.76    1.23
 -20  -4   5    5.45    1.05
 -20  -4   8   13.87    2.28
 -20  -4  11   10.51    1.78
 -20  -4  14   38.32    0.99
 -20  -4  17    7.02    1.27
 -20  -4  20    4.46    1.22
 -20  -4  23    2.34    0.98
 -20  -4  26    0.40    0.83
 -20  -3 -26    0.49    0.81
 -20  -3 -23    0.94    0.73
 -20  -3 -20    9.46    0.98
 -20  -3 -17    5.88    0.66
 -20  -3 -14    6.09    1.11
 -20  -3 -11   27.91    1.61
 -20  -3  -8   63.91    4.10
 -20  -3  -5   38.18    1.38
 -20  -3  -2    9.35    2.88
 -20  -3   1   97.81    2.96
 -20  -3   4   15.12    0.84
 -20  -3   7  156.44    5.57
 -20  -3  10  128.01    5.46
 -20  -3  13    7.15    0.76
 -20  -3  16    3.27    1.80
 -20  -3  19   19.47    2.29
 -20  -3  22    3.55    1.24
 -20  -3  25    2.45    1.15
 -20  -3  28    0.55    0.88
 -20  -2 -27    0.08    0.84
 -20  -2 -24    7.80    0.80
 -20  -2 -21    2.35    0.66
 -20  -2 -18    6.29    0.68
 -20  -2 -15    0.83    0.52
 -20  -2 -12   19.54    1.22
 -20  -2  -9    5.21    0.92
 -20  -2  -6   69.89    2.92
 -20  -2  -3   29.42    1.48
 -20  -2   0   25.82    1.10
 -20  -2   3   22.49    1.48
 -20  -2   6   23.26    1.94
 -20  -2   9   14.28    1.05
 -20  -2  12   10.48    1.35
 -20  -2  15    7.59    2.00
 -20  -2  18    4.46    2.28
 -20  -2  21    1.68    1.16
 -20  -2  24    9.21    1.56
 -20  -2  27    0.23    0.87
 -20  -1 -28    0.20    0.74
 -20  -1 -25    2.70    1.54
 -20  -1 -22    3.06    0.95
 -20  -1 -19    0.72    0.64
 -20  -1 -16    8.09    0.61
 -20  -1 -13   26.87    1.26
 -20  -1 -10   17.13    1.43
 -20  -1  -7   60.90    2.19
 -20  -1  -4   15.19    3.28
 -20  -1  -1   32.42    3.65
 -20  -1   2   86.34    3.18
 -20  -1   5   10.77    0.86
 -20  -1   8   22.53    2.68
 -20  -1  11    0.31    0.72
 -20  -1  14   12.51    1.63
 -20  -1  17    7.15    1.57
 -20  -1  20    5.43    1.37
 -20  -1  23    0.78    0.84
 -20  -1  26    2.28    0.89
 -20  -1  29    1.09    0.79
 -19 -19 -15    1.48    2.04
 -19 -19 -12    2.86    1.06
 -19 -19  -9   11.45    1.47
 -19 -19  -6    5.36    1.64
 -19 -19  -3    0.59    0.74
 -19 -19   0    2.20    1.69
 -19 -18 -16    2.29    2.19
 -19 -18 -13    2.31    2.16
 -19 -18 -10    2.53    1.54
 -19 -18  -7    5.58    0.67
 -19 -18  -4    8.37    1.27
 -19 -18  -1    4.79    0.88
 -19 -18   2    3.23    0.67
 -19 -18   5   26.62    1.76
 -19 -18   8    2.61    0.84
 -19 -18  11   13.68    1.70
 -19 -18  14    4.57    3.98
 -19 -17 -17    1.86    3.19
 -19 -17 -14    2.25    2.20
 -19 -17 -11    3.70    1.33
 -19 -17  -8    6.83    0.95
 -19 -17  -5    7.40    1.49
 -19 -17  -2    0.76    0.79
 -19 -17   1    0.32    0.93
 -19 -17   4    2.10    1.37
 -19 -17   7    8.37    1.27
 -19 -17  10    0.13    0.91
 -19 -17  13    7.92    1.22
 -19 -17  16    2.40    2.15
 -19 -16 -15    6.39    2.95
 -19 -16 -12    3.71    1.07
 -19 -16  -9    9.43    1.06
 -19 -16  -6   16.40    1.53
 -19 -16  -3   14.53    1.85
 -19 -16   0    5.01    0.92
 -19 -16   3   20.17    1.51
 -19 -16   6   31.13    2.77
 -19 -16   9   20.16    2.09
 -19 -16  12   12.15    1.03
 -19 -16  15    2.19    1.06
 -19 -16  18    2.03    2.86
 -19 -15 -13    0.76    1.99
 -19 -15 -10    8.71    2.36
 -19 -15  -7   33.80    1.98
 -19 -15  -4    5.63    0.87
 -19 -15  -1    4.86    0.65
 -19 -15   2    2.30    0.61
 -19 -15   5   14.67    1.47
 -19 -15   8   23.47    1.83
 -19 -15  11   16.67    1.80
 -19 -15  14    2.25    1.33
 -19 -15  17    0.39    2.47
 -19 -14 -23    0.56    1.06
 -19 -14 -14    0.35    2.30
 -19 -14 -11    1.61    1.62
 -19 -14  -8    0.01    0.77
 -19 -14  -5   23.07    1.33
 -19 -14  -2    3.30    0.97
 -19 -14   1   26.38    3.81
 -19 -14   4   20.91    1.33
 -19 -14   7    4.21    2.08
 -19 -14  10   17.03    1.73
 -19 -14  13   25.42    2.42
 -19 -14  16    0.84    4.30
 -19 -14  19    0.63    2.32
 -19 -13 -24    0.08    1.04
 -19 -13 -15    0.80    2.38
 -19 -13 -12    2.25    1.20
 -19 -13  -9   17.81    1.94
 -19 -13  -6   22.97    1.80
 -19 -13  -3   15.72    0.63
 -19 -13   0   18.84    2.11
 -19 -13   3   20.39    1.04
 -19 -13   6    1.74    1.13
 -19 -13   9   45.72    4.76
 -19 -13  12    8.16    1.06
 -19 -13  15   25.77    2.94
 -19 -13  18    7.26    1.31
 -19 -13  21    0.68    1.39
 -19 -13  24    1.01    1.16
 -19 -12 -16    1.10    2.46
 -19 -12 -13    9.02    1.81
 -19 -12 -10   19.91    1.50
 -19 -12  -7   18.07    1.41
 -19 -12  -4   13.13    0.98
 -19 -12  -1    9.57    1.09
 -19 -12   2   16.85    1.29
 -19 -12   5   39.20    1.17
 -19 -12   8    2.42    0.79
 -19 -12  11   15.92    1.44
 -19 -12  14   35.67   11.07
 -19 -12  17    3.75    0.89
 -19 -12  20    2.00    1.01
 -19 -12  23    0.07    1.37
 -19 -11 -23    3.66    2.19
 -19 -11 -20    2.15    2.87
 -19 -11 -17    0.95    2.09
 -19 -11 -14   14.62    3.08
 -19 -11 -11   44.53    4.27
 -19 -11  -8    6.32    0.93
 -19 -11  -5    0.10    1.10
 -19 -11  -2   25.50    4.22
 -19 -11   1    4.64    0.59
 -19 -11   4    4.10    1.17
 -19 -11   7   23.12    1.92
 -19 -11  10   17.46    2.51
 -19 -11  13   17.98    1.94
 -19 -11  16    9.30    1.82
 -19 -11  19    0.99    1.03
 -19 -11  22    1.99    1.52
 -19 -11  25    0.35    0.82
 -19 -10 -24    3.26    1.63
 -19 -10 -21    1.29    2.53
 -19 -10 -18    4.29    2.29
 -19 -10 -15   34.85    2.86
 -19 -10 -12   60.77    2.36
 -19 -10  -9   18.35    1.27
 -19 -10  -6   13.51    2.04
 -19 -10  -3    9.30    1.19
 -19 -10   0   42.29    2.42
 -19 -10   3    2.82    0.80
 -19 -10   6    5.68    1.32
 -19 -10   9   28.19    1.35
 -19 -10  12   19.97    1.80
 -19 -10  15    6.22    1.63
 -19 -10  18    3.49    1.07
 -19 -10  21    0.08    0.99
 -19 -10  24    1.61    0.95
 -19  -9 -25    0.91    1.62
 -19  -9 -22    0.33    1.13
 -19  -9 -19    0.25    0.93
 -19  -9 -16    6.56    1.46
 -19  -9 -13   27.18    2.03
 -19  -9 -10   30.05    4.34
 -19  -9  -7    4.13    0.79
 -19  -9  -4   19.02    1.67
 -19  -9  -1    5.44    0.80
 -19  -9   2   14.71    0.95
 -19  -9   5   10.09    0.47
 -19  -9   8   97.92    3.11
 -19  -9  11   24.59    1.10
 -19  -9  14    0.23    0.91
 -19  -9  17    1.82    0.86
 -19  -9  20    6.31    0.95
 -19  -9  23    1.01    1.49
 -19  -9  26    0.02    0.82
 -19  -8 -26    0.97    1.26
 -19  -8 -23    0.71    0.87
 -19  -8 -20    4.62    0.91
 -19  -8 -17    4.03    1.18
 -19  -8 -14   14.35    1.43
 -19  -8 -11   33.72    1.86
 -19  -8  -8    5.70    0.93
 -19  -8  -5    1.15    0.99
 -19  -8  -2   61.92    2.40
 -19  -8   1   27.02    0.89
 -19  -8   4   29.44    1.42
 -19  -8   7   20.06    1.40
 -19  -8  10   21.48    1.71
 -19  -8  13   17.01    2.49
 -19  -8  16    2.77    0.76
 -19  -8  19    0.22    0.94
 -19  -8  22    0.99    0.90
 -19  -8  25    0.42    0.92
 -19  -7 -27    2.40    1.66
 -19  -7 -24    0.34    1.16
 -19  -7 -21    4.54    0.91
 -19  -7 -18   28.88    2.05
 -19  -7 -15   27.15    2.14
 -19  -7 -12    1.02    0.74
 -19  -7  -9    9.39    1.26
 -19  -7  -6    7.50    0.86
 -19  -7  -3  101.01    3.86
 -19  -7   0    0.19    0.72
 -19  -7   3   36.50    2.06
 -19  -7   6   26.34    2.68
 -19  -7   9   35.00    3.09
 -19  -7  12   19.07    2.14
 -19  -7  15    2.31    1.89
 -19  -7  18    0.11    1.12
 -19  -7  21    2.12    1.18
 -19  -7  24    0.35    0.99
 -19  -7  27    0.32    0.78
 -19  -6 -25    1.54    0.80
 -19  -6 -22    4.09    0.60
 -19  -6 -19    1.44    0.67
 -19  -6 -16   22.01    1.56
 -19  -6 -13   40.43    1.75
 -19  -6 -10    8.25    1.35
 -19  -6  -7   36.73    1.80
 -19  -6  -4   74.13    2.63
 -19  -6  -1   16.64    0.64
 -19  -6   2    8.54    2.34
 -19  -6   5   68.19    3.86
 -19  -6   8    9.10    0.99
 -19  -6  11   59.63    2.64
 -19  -6  14    4.63    2.72
 -19  -6  17   12.29    2.24
 -19  -6  20    1.40    1.09
 -19  -6  23    0.27    1.36
 -19  -6  26    0.25    0.88
 -19  -5 -26    1.05    0.88
 -19  -5 -23    6.44    0.89
 -19  -5 -20    0.76    0.68
 -19  -5 -17    0.58    0.66
 -19  -5 -14   15.87    1.55
 -19  -5 -11    0.13    0.48
 -19  -5  -8   52.65    0.74
 -19  -5  -5    0.70    0.78
 -19  -5  -2    1.85    1.47
 -19  -5   1    8.49    0.61
 -19  -5   4   21.97    0.86
 -19  -5   7   62.54    3.29
 -19  -5  10   15.13    1.34
 -19  -5  13   13.37    1.33
 -19  -5  16    4.26    1.01
 -19  -5  19    1.78    1.22
 -19  -5  22    0.82    1.18
 -19  -5  25    1.07    0.89
 -19  -5  28    1.73    0.80
 -19  -4 -27    0.33    1.06
 -19  -4 -24    0.01    0.78
 -19  -4 -21    5.34    0.81
 -19  -4 -18    6.61    0.68
 -19  -4 -15   33.59    1.11
 -19  -4 -12   17.69    0.82
 -19  -4  -9   28.82    1.06
 -19  -4  -6  123.04    3.88
 -19  -4  -3   16.15    1.06
 -19  -4   0   39.38    2.56
 -19  -4   3   23.62    0.85
 -19  -4   6   81.49    1.64
 -19  -4   9   79.93    2.24
 -19  -4  12    8.66    1.15
 -19  -4  15    0.64    0.74
 -19  -4  18   11.15    1.15
 -19  -4  21    2.61    1.34
 -19  -4  24    0.35    0.83
 -19  -4  27    1.18    0.89
 -19  -3 -28    1.79    0.82
 -19  -3 -25    4.60    0.91
 -19  -3 -22    3.69    0.79
 -19  -3 -19    1.54    0.67
 -19  -3 -16    8.57    1.38
 -19  -3 -13   14.17    1.04
 -19  -3 -10  104.79    3.01
 -19  -3  -7   34.35    1.48
 -19  -3  -4  149.57    5.84
 -19  -3  -1   13.64    4.12
 -19  -3   2   50.93    3.97
 -19  -3   5   13.25    1.53
 -19  -3   8  124.30    4.01
 -19  -3  11   75.39    4.39
 -19  -3  14    1.72    0.85
 -19  -3  17    2.26    1.28
 -19  -3  20   12.49    3.71
 -19  -3  23    4.57    1.42
 -19  -3  26    1.07    0.82
 -19  -3  29    0.25    0.91
 -19  -2 -26    1.50    0.97
 -19  -2 -23    3.14    0.71
 -19  -2 -20    3.72    1.18
 -19  -2 -17    6.41    0.69
 -19  -2 -14   20.67    1.79
 -19  -2 -11    4.42    0.45
 -19  -2  -8   13.36    2.00
 -19  -2  -5   64.78    1.96
 -19  -2  -2   16.92    1.31
 -19  -2   1  198.90    3.77
 -19  -2   4   73.28    1.83
 -19  -2   7   21.19    1.66
 -19  -2  10   32.61    1.08
 -19  -2  13   59.44    1.63
 -19  -2  16   52.60    3.56
 -19  -2  19    0.75    2.13
 -19  -2  22    4.58    1.52
 -19  -2  25    2.48    0.88
 -19  -2  28    1.70    0.87
 -19  -1 -27    0.69    0.81
 -19  -1 -24    2.37    0.77
 -19  -1 -21    0.24    0.70
 -19  -1 -18    8.83    1.62
 -19  -1 -15   29.68    1.53
 -19  -1 -12   63.58    1.72
 -19  -1  -9   26.66    1.82
 -19  -1  -6  107.92    4.20
 -19  -1  -3   80.48    2.62
 -19  -1   0   63.24    3.61
 -19  -1   3  177.25    5.87
 -19  -1   6    8.01    1.06
 -19  -1   9   34.76    1.29
 -19  -1  12  141.97    6.50
 -19  -1  15   10.40    1.75
 -19  -1  18   29.88    2.87
 -19  -1  21    0.69    1.90
 -19  -1  24    4.62    0.92
 -19  -1  27    1.67    0.84
 -18 -18 -15    0.67    2.31
 -18 -18 -12    2.64    1.11
 -18 -18  -9    0.10    1.19
 -18 -18  -6    9.32    3.65
 -18 -18  -3    0.02    0.55
 -18 -18   0    3.85    1.63
 -18 -17 -16    0.29    2.37
 -18 -17 -13    4.38    1.14
 -18 -17 -10   13.37    1.36
 -18 -17  -7    6.74    1.33
 -18 -17  -4    4.13    3.03
 -18 -17  -1    2.71    0.87
 -18 -17   2    0.30    0.95
 -18 -17   5   16.40    1.99
 -18 -17   8   10.78    1.71
 -18 -17  11   11.41    1.01
 -18 -17  14   10.16    1.83
 -18 -17  17    1.90    2.49
 -18 -17  23    0.06    0.99
 -18 -16 -23    0.90    1.03
 -18 -16 -14    3.31    2.01
 -18 -16 -11    2.88    2.25
 -18 -16  -8    4.39    1.13
 -18 -16  -5    2.69    2.04
 -18 -16  -2   22.81    1.46
 -18 -16   1    3.09    1.08
 -18 -16   4   24.05    2.94
 -18 -16   7    7.86    1.26
 -18 -16  10   35.54    1.39
 -18 -16  13    5.13    2.19
 -18 -16  16    1.78    1.69
 -18 -15 -24    0.39    1.06
 -18 -15 -15    4.68    4.70
 -18 -15 -12    3.12    1.76
 -18 -15  -9    0.03    0.72
 -18 -15  -6    5.71    1.64
 -18 -15  -3   38.64    1.39
 -18 -15   0    0.29    0.53
 -18 -15   3    3.33    1.07
 -18 -15   6    9.28    0.79
 -18 -15   9    2.81    1.91
 -18 -15  12   10.89    2.64
 -18 -15  15    3.53    1.83
 -18 -15  18    1.19    2.45
 -18 -15  24    0.65    1.05
 -18 -14 -16    1.69    3.48
 -18 -14 -13    0.82    1.48
 -18 -14 -10    1.53    1.47
 -18 -14  -7    1.83    0.73
 -18 -14  -4    3.02    0.75
 -18 -14  -1    7.63    1.10
 -18 -14   2    2.20    0.48
 -18 -14   5    9.58    0.72
 -18 -14   8   57.29    2.25
 -18 -14  11    2.34    2.16
 -18 -14  14    8.87    2.35
 -18 -14  17    6.93    6.05
 -18 -14  20    1.85    1.28
 -18 -14  23    1.05    1.41
 -18 -13 -20    1.15    2.73
 -18 -13 -17    9.18    2.36
 -18 -13 -14   22.60    2.61
 -18 -13 -11   39.76    2.61
 -18 -13  -8    1.03    0.58
 -18 -13  -5   40.00    2.02
 -18 -13  -2   25.03    0.85
 -18 -13   1    3.43    0.94
 -18 -13   4   17.08    0.87
 -18 -13   7    3.76    0.73
 -18 -13  10    0.10    0.86
 -18 -13  13    0.69    0.88
 -18 -13  16   11.26    1.57
 -18 -13  19    0.96    1.03
 -18 -13  22    1.40    1.44
 -18 -13  25    0.17    0.85
 -18 -12 -24    4.52    1.75
 -18 -12 -21    1.82    2.74
 -18 -12 -18    3.55    2.22
 -18 -12 -15   28.29    4.56
 -18 -12 -12   94.84    4.50
 -18 -12  -9   36.32    2.47
 -18 -12  -6    1.71    1.03
 -18 -12  -3    4.09    0.74
 -18 -12   0   23.45    1.86
 -18 -12   3    6.74    1.31
 -18 -12   6    8.48    1.54
 -18 -12   9   19.53    1.25
 -18 -12  12    7.81    1.72
 -18 -12  15    8.77    0.80
 -18 -12  18    2.63    0.86
 -18 -12  21    0.36    1.02
 -18 -12  24    1.45    1.14
 -18 -11 -25    0.45    0.79
 -18 -11 -22    0.39    1.36
 -18 -11 -19    4.42    3.46
 -18 -11 -16    8.28    2.89
 -18 -11 -13    5.73    1.96
 -18 -11 -10   32.57    2.33
 -18 -11  -7   22.52    0.96
 -18 -11  -4    5.52    1.14
 -18 -11  -1   37.39    3.58
 -18 -11   2    6.81    0.53
 -18 -11   5    2.11    1.57
 -18 -11   8   29.11    1.74
 -18 -11  11   40.59    2.08
 -18 -11  14    0.49    1.61
 -18 -11  17    2.75    1.18
 -18 -11  20    6.72    1.19
 -18 -11  23    1.98    1.60
 -18 -11  26    0.58    0.85
 -18 -10 -26    0.37    1.23
 -18 -10 -23    0.45    1.37
 -18 -10 -20    0.51    1.12
 -18 -10 -17    4.30    0.96
 -18 -10 -14   16.97    2.80
 -18 -10 -11    4.59    2.29
 -18 -10  -8    0.03    0.96
 -18 -10  -5    4.05    0.85
 -18 -10  -2   42.84    2.29
 -18 -10   1   35.50    1.64
 -18 -10   4    7.67    1.22
 -18 -10   7    8.17    0.46
 -18 -10  10    0.21    1.64
 -18 -10  13   11.24    2.60
 -18 -10  16   12.63    1.26
 -18 -10  19    0.92    1.08
 -18 -10  22    0.43    1.01
 -18 -10  25    0.09    0.88
 -18  -9 -24    1.66    0.83
 -18  -9 -21    0.73    0.88
 -18  -9 -18    1.39    0.75
 -18  -9 -15   31.20    3.32
 -18  -9 -12    4.64    1.55
 -18  -9  -9    7.63    0.85
 -18  -9  -6    6.13    0.70
 -18  -9  -3   48.12    2.28
 -18  -9   0   13.37    1.11
 -18  -9   3   87.69    3.36
 -18  -9   6   89.02    2.91
 -18  -9   9    1.38    0.92
 -18  -9  12    6.60    1.88
 -18  -9  15    5.06    1.08
 -18  -9  18    0.75    1.13
 -18  -9  21    0.16    1.00
 -18  -9  24    0.88    1.01
 -18  -9  27    0.40    0.80
 -18  -8 -25    1.32    1.39
 -18  -8 -22    1.26    1.05
 -18  -8 -19    7.16    0.93
 -18  -8 -16   13.49    1.95
 -18  -8 -13    3.23    0.50
 -18  -8 -10   25.46    1.52
 -18  -8  -7   17.76    2.43
 -18  -8  -4   23.00    0.91
 -18  -8  -1   12.00    0.97
 -18  -8   2  133.92    3.51
 -18  -8   5    3.88    1.68
 -18  -8   8   26.28    2.18
 -18  -8  11    3.01    1.49
 -18  -8  14    7.03    1.10
 -18  -8  17    1.54    1.02
 -18  -8  20    0.39    1.18
 -18  -8  23    0.76    1.29
 -18  -8  26    0.05    0.88
 -18  -7 -26    3.70    2.96
 -18  -7 -23    0.45    0.66
 -18  -7 -20   10.14    1.20
 -18  -7 -17   28.51    2.05
 -18  -7 -14   55.48    2.72
 -18  -7 -11   69.70    2.16
 -18  -7  -8   23.71    1.19
 -18  -7  -5   95.52    3.26
 -18  -7  -2    1.27    0.81
 -18  -7   1   53.44    2.34
 -18  -7   4    4.33    1.33
 -18  -7   7   10.72    1.69
 -18  -7  10    7.16    1.57
 -18  -7  13    9.52    1.30
 -18  -7  16    6.79    1.29
 -18  -7  19    0.69    1.10
 -18  -7  22    0.92    1.36
 -18  -7  25    0.63    0.86
 -18  -7  28    1.22    0.86
 -18  -6 -27    7.15    1.88
 -18  -6 -24    0.38    0.70
 -18  -6 -21   10.68    0.91
 -18  -6 -18   27.46    1.51
 -18  -6 -15   50.99    2.40
 -18  -6 -12    0.63    0.43
 -18  -6  -9   57.20    2.52
 -18  -6  -6   95.74    2.91
 -18  -6  -3    4.15    1.20
 -18  -6   0   22.18    5.59
 -18  -6   3   34.33    1.42
 -18  -6   6   77.48    5.69
 -18  -6   9   17.78    0.87
 -18  -6  12   16.09    1.81
 -18  -6  15   19.97    1.15
 -18  -6  18    4.08    1.28
 -18  -6  21    3.13    1.18
 -18  -6  24    1.43    0.94
 -18  -6  27    0.12    0.88
 -18  -5 -28    0.28    1.21
 -18  -5 -25    0.08    0.86
 -18  -5 -22    1.64    0.67
 -18  -5 -19    2.79    1.07
 -18  -5 -16    6.14    0.87
 -18  -5 -13   12.27    1.92
 -18  -5 -10    6.52    0.51
 -18  -5  -7  279.08    8.45
 -18  -5  -4   24.39    1.53
 -18  -5  -1   69.73    2.45
 -18  -5   2    2.73    0.48
 -18  -5   5   69.01    2.98
 -18  -5   8   52.27    2.09
 -18  -5  11   14.92    1.15
 -18  -5  14    4.71    1.40
 -18  -5  17    8.91    1.28
 -18  -5  20    9.73    1.56
 -18  -5  23    5.42    2.25
 -18  -5  26    0.29    0.85
 -18  -4 -26    0.44    0.85
 -18  -4 -23    0.75    0.74
 -18  -4 -20    6.80    1.12
 -18  -4 -17    6.74    1.01
 -18  -4 -14    1.53    1.37
 -18  -4 -11   28.92    1.35
 -18  -4  -8   69.98    2.62
 -18  -4  -5   79.36    5.33
 -18  -4  -2    5.26    2.18
 -18  -4   1   74.48    2.53
 -18  -4   4  155.30    1.94
 -18  -4   7   23.16    2.07
 -18  -4  10    0.69    1.05
 -18  -4  13   10.68    1.18
 -18  -4  16   19.97    1.58
 -18  -4  19   13.84    1.74
 -18  -4  22    0.79    2.20
 -18  -4  25    0.83    0.88
 -18  -4  28    0.49    0.87
 -18  -3 -27    1.39    0.94
 -18  -3 -24    0.16    0.77
 -18  -3 -21    4.25    0.68
 -18  -3 -18   23.46    1.21
 -18  -3 -15    9.34    0.90
 -18  -3 -12   18.33    1.16
 -18  -3  -9  127.86    3.72
 -18  -3  -6  117.68    3.56
 -18  -3  -3   69.99    1.54
 -18  -3   0   44.74    1.71
 -18  -3   3   19.58    1.63
 -18  -3   6   54.31    4.05
 -18  -3   9    8.46    1.67
 -18  -3  12    6.13    1.53
 -18  -3  15    1.61    1.39
 -18  -3  18   15.89    3.52
 -18  -3  21    2.03    1.07
 -18  -3  24    0.78    0.89
 -18  -3  27    0.44    0.84
 -18  -2 -28    0.32    0.81
 -18  -2 -25    1.67    0.77
 -18  -2 -22    1.73    0.69
 -18  -2 -19   11.34    1.14
 -18  -2 -16    2.46    0.69
 -18  -2 -13    0.61    0.57
 -18  -2 -10   11.60    0.84
 -18  -2  -7   41.45    1.65
 -18  -2  -4    5.02    1.38
 -18  -2  -1   18.34    0.70
 -18  -2   2  220.58   10.94
 -18  -2   5    9.91    1.11
 -18  -2   8   32.11    1.39
 -18  -2  11   12.60    1.44
 -18  -2  14    0.49    0.82
 -18  -2  17   20.09    2.33
 -18  -2  20   28.41    3.38
 -18  -2  23    2.38    1.07
 -18  -2  26    0.25    0.86
 -18  -2  29    0.18    0.79
 -18  -1 -29    0.04    0.74
 -18  -1 -26    3.84    1.32
 -18  -1 -23    2.53    0.74
 -18  -1 -20   10.71    1.39
 -18  -1 -17    0.93    0.69
 -18  -1 -14   24.44    0.54
 -18  -1 -11  107.39    2.48
 -18  -1  -8   37.93    2.91
 -18  -1  -5   47.44    1.75
 -18  -1  -2  164.89    1.97
 -18  -1   1   71.09    2.16
 -18  -1   4   69.57    2.46
 -18  -1   7   33.31    1.76
 -18  -1  10   33.78    1.70
 -18  -1  13   25.42    2.43
 -18  -1  16    1.81    0.92
 -18  -1  19   12.14    1.42
 -18  -1  22    0.95    1.86
 -18  -1  25    1.52    0.91
 -18  -1  28    0.32    0.80
 -17 -17 -24    0.32    1.62
 -17 -17 -18    6.10    2.53
 -17 -17 -15    2.37    1.12
 -17 -17 -12    3.11    1.55
 -17 -17  -9   16.33    1.32
 -17 -17  -6    1.41    0.80
 -17 -17  -3    3.06    0.74
 -17 -17   0   14.32    2.38
 -17 -16 -13    4.97    1.18
 -17 -16 -10   32.06    6.24
 -17 -16  -7    5.40    0.92
 -17 -16  -4    8.92    1.34
 -17 -16  -1    6.15    1.35
 -17 -16   2   17.33    1.83
 -17 -16   5   12.06    2.20
 -17 -16   8    6.02    1.19
 -17 -16  11   10.31    1.70
 -17 -16  14   11.20    2.10
 -17 -16  17    6.04    2.95
 -17 -15 -14    3.27    1.43
 -17 -15 -11   23.18    5.63
 -17 -15  -8    0.08    0.96
 -17 -15  -5   26.03    1.57
 -17 -15  -2    2.77    0.55
 -17 -15   1   17.61    1.36
 -17 -15   4    2.23    1.37
 -17 -15   7   10.19    1.49
 -17 -15  10    7.45    1.53
 -17 -15  13   16.16    2.35
 -17 -15  16    1.64    1.21
 -17 -15  19    4.01    3.29
 -17 -15  22    0.73    1.71
 -17 -15  25    0.11    1.06
 -17 -14 -24    1.02    1.10
 -17 -14 -15    6.92    2.07
 -17 -14 -12   28.83    3.43
 -17 -14  -9    6.61    0.96
 -17 -14  -6   26.02    1.66
 -17 -14  -3    6.20    1.40
 -17 -14   0    0.48    0.52
 -17 -14   3    5.86    0.96
 -17 -14   6    4.80    1.36
 -17 -14   9    1.16    1.58
 -17 -14  12    4.30    2.32
 -17 -14  15    2.20    0.82
 -17 -14  18    6.22    1.11
 -17 -14  21    0.27    1.43
 -17 -14  24    3.91    1.14
 -17 -13 -25    9.68    1.60
 -17 -13 -22    1.70    1.54
 -17 -13 -16   10.83    2.37
 -17 -13 -13   86.10    5.09
 -17 -13 -10    8.52    2.25
 -17 -13  -7    7.13    1.23
 -17 -13  -4    2.22    1.01
 -17 -13  -1   73.59    3.20
 -17 -13   2    2.11    0.51
 -17 -13   5    8.90    1.19
 -17 -13   8    3.61    1.18
 -17 -13  11    4.53    0.99
 -17 -13  14   17.62    2.40
 -17 -13  17    5.77    0.84
 -17 -13  20    3.43    1.09
 -17 -13  23    0.89    1.46
 -17 -13  26    1.27    1.13
 -17 -12 -26    6.25    2.07
 -17 -12 -23    1.62    2.19
 -17 -12 -20    4.75    1.28
 -17 -12 -17   16.31    2.23
 -17 -12 -14   30.53    1.85
 -17 -12 -11    6.51    1.50
 -17 -12  -8    2.07    0.89
 -17 -12  -5   17.29    1.17
 -17 -12  -2  112.62    4.82
 -17 -12   1   11.37    0.60
 -17 -12   4   15.26    1.33
 -17 -12   7    2.72    1.53
 -17 -12  10   18.37    1.25
 -17 -12  13   41.88    1.83
 -17 -12  16   13.09    2.12
 -17 -12  19    2.34    2.03
 -17 -12  22    4.75    1.75
 -17 -12  25    0.03    0.87
 -17 -11 -24    2.62    0.87
 -17 -11 -21    1.69    1.27
 -17 -11 -18    2.24    1.23
 -17 -11 -15    8.60    1.60
 -17 -11 -12   11.57    0.96
 -17 -11  -9   13.44    1.51
 -17 -11  -6    3.75    1.92
 -17 -11  -3   14.08    0.61
 -17 -11   0   91.39    2.90
 -17 -11   3   51.72    3.18
 -17 -11   6   62.54    1.65
 -17 -11   9   28.48    1.96
 -17 -11  12   17.75    0.93
 -17 -11  15    3.09    1.82
 -17 -11  18    3.67    0.98
 -17 -11  21    0.61    1.10
 -17 -11  24    0.54    0.93
 -17 -11  27    0.39    1.09
 -17 -10 -25    0.17    1.06
 -17 -10 -22    0.80    0.86
 -17 -10 -19    3.60    0.90
 -17 -10 -16    1.70    1.31
 -17 -10 -13    3.69    1.06
 -17 -10 -10   10.13    1.12
 -17 -10  -7   20.71    1.32
 -17 -10  -4   53.84    2.28
 -17 -10  -1   58.28    1.74
 -17 -10   2   35.17    1.06
 -17 -10   5   30.44    2.08
 -17 -10   8   36.99    1.87
 -17 -10  11    4.40    1.21
 -17 -10  14    6.19    0.83
 -17 -10  17    7.83    1.52
 -17 -10  20    9.73    1.44
 -17 -10  23    0.05    1.49
 -17 -10  26    0.30    0.86
 -17  -9 -26    1.13    0.85
 -17  -9 -23    1.74    0.68
 -17  -9 -20    2.67    0.74
 -17  -9 -17    5.55    0.71
 -17  -9 -14    0.36    1.01
 -17  -9 -11    3.55    0.51
 -17  -9  -8   10.56    0.86
 -17  -9  -5    4.73    0.78
 -17  -9  -2   18.98    1.58
 -17  -9   1    1.10    0.61
 -17  -9   4   12.18    0.63
 -17  -9   7   25.11    1.59
 -17  -9  10    0.82    1.00
 -17  -9  13    0.46    0.85
 -17  -9  16    1.80    1.55
 -17  -9  19    3.72    1.02
 -17  -9  22    4.49    1.02
 -17  -9  25    0.75    0.86
 -17  -8 -27    0.62    1.26
 -17  -8 -24    0.97    0.65
 -17  -8 -21    0.08    0.71
 -17  -8 -18    0.67    0.69
 -17  -8 -15    5.76    0.80
 -17  -8 -12    6.85    0.66
 -17  -8  -9   15.91    1.41
 -17  -8  -6   30.97    2.77
 -17  -8  -3    8.04    0.89
 -17  -8   0   50.87    1.73
 -17  -8   3    6.66    0.75
 -17  -8   6   80.64    2.71
 -17  -8   9   15.65    1.23
 -17  -8  12    5.66    0.70
 -17  -8  15    0.66    0.72
 -17  -8  18    5.60    1.17
 -17  -8  21    4.18    1.10
 -17  -8  24    0.02    1.00
 -17  -8  27    0.82    0.84
 -17  -7 -28    1.15    1.23
 -17  -7 -25    0.14    0.74
 -17  -7 -22    7.50    1.58
 -17  -7 -19    6.43    1.90
 -17  -7 -16   30.20    1.70
 -17  -7 -13    5.13    0.62
 -17  -7 -10   16.67    1.10
 -17  -7  -7   40.22    1.69
 -17  -7  -4   40.71    2.25
 -17  -7  -1   77.89    3.73
 -17  -7   2    1.78    1.26
 -17  -7   5   39.16    1.72
 -17  -7   8   95.74    3.95
 -17  -7  11    0.49    0.79
 -17  -7  14    5.05    1.28
 -17  -7  17    8.55    2.05
 -17  -7  20    4.02    1.23
 -17  -7  26    0.14    0.84
 -17  -6 -26    2.59    0.86
 -17  -6 -23    0.74    0.65
 -17  -6 -20   24.69    2.25
 -17  -6 -17   40.41    3.55
 -17  -6 -14   25.29    1.08
 -17  -6 -11    4.66    1.91
 -17  -6  -8    4.14    0.86
 -17  -6  -5   46.88    1.58
 -17  -6  -2   12.22    1.21
 -17  -6   1   53.47    2.39
 -17  -6   4   11.89    1.61
 -17  -6   7    6.64    1.32
 -17  -6  10    7.22    1.03
 -17  -6  13    9.87    1.19
 -17  -6  16   27.88    4.29
 -17  -6  19    8.54    4.04
 -17  -6  22    0.41    1.38
 -17  -6  25    0.48    0.90
 -17  -6  28    0.07    0.83
 -17  -5 -27    0.92    0.84
 -17  -5 -24    2.86    0.68
 -17  -5 -21    6.53    0.92
 -17  -5 -18    4.74    0.75
 -17  -5 -15    3.30    0.56
 -17  -5 -12    0.55    0.52
 -17  -5  -9   44.75    1.91
 -17  -5  -6   61.52    3.47
 -17  -5  -3    8.75    1.06
 -17  -5   0   15.63    1.74
 -17  -5   3   83.10    3.73
 -17  -5   6  235.28    7.23
 -17  -5   9   69.07    2.28
 -17  -5  12   26.43    1.71
 -17  -5  15   10.41    0.84
 -17  -5  18    8.49    2.08
 -17  -5  21    0.74    1.18
 -17  -5  24    0.01    0.85
 -17  -5  27    0.25    0.79
 -17  -4 -28    2.01    0.80
 -17  -4 -25    1.27    0.78
 -17  -4 -22    0.63    0.72
 -17  -4 -19    1.26    0.67
 -17  -4 -16    1.27    1.12
 -17  -4 -13    3.99    0.86
 -17  -4 -10    7.80    0.91
 -17  -4  -7   66.85    6.10
 -17  -4  -4   12.16    0.75
 -17  -4  -1   19.72    2.55
 -17  -4   2  309.98   10.47
 -17  -4   5   55.59    3.58
 -17  -4   8   42.11    1.69
 -17  -4  11   10.59    1.52
 -17  -4  14   56.95    4.89
 -17  -4  17    9.61    1.43
 -17  -4  20   19.62    2.17
 -17  -4  23    0.93    1.00
 -17  -4  26    0.88    0.86
 -17  -4  29    0.05    0.80
 -17  -3 -29    0.34    0.78
 -17  -3 -26    1.07    0.95
 -17  -3 -23    2.34    0.79
 -17  -3 -20   10.98    1.29
 -17  -3 -17    6.77    0.59
 -17  -3 -14   31.72    1.23
 -17  -3 -11   27.34    1.33
 -17  -3  -8   55.62    2.04
 -17  -3  -5   36.35    1.40
 -17  -3  -2  155.27    3.34
 -17  -3   1    7.83    3.39
 -17  -3   4  111.54    4.77
 -17  -3   7   21.79    1.45
 -17  -3  10  148.15    5.19
 -17  -3  13   28.91    1.53
 -17  -3  16   15.29    2.61
 -17  -3  19   34.68    3.29
 -17  -3  22    0.58    1.50
 -17  -3  25    0.07    0.89
 -17  -3  28    0.54    0.84
 -17  -2 -27    0.81    0.84
 -17  -2 -24    6.68    1.50
 -17  -2 -21    4.22    0.93
 -17  -2 -18    7.92    0.58
 -17  -2 -15    1.58    0.48
 -17  -2 -12   23.49    3.82
 -17  -2  -9   16.83    2.04
 -17  -2  -6    8.64    0.57
 -17  -2  -3   33.28    3.35
 -17  -2   0   25.31    1.37
 -17  -2   3   37.71    1.88
 -17  -2   6  105.79    1.52
 -17  -2   9   77.39    1.74
 -17  -2  12   18.68    1.85
 -17  -2  15   24.31    1.29
 -17  -2  18    2.15    1.14
 -17  -2  21   23.51    3.98
 -17  -2  24    0.19    0.87
 -17  -2  27    0.22    0.88
 -17  -2  30    0.14    1.69
 -17  -1 -28    0.72    1.07
 -17  -1 -25   12.75    1.20
 -17  -1 -22    2.91    0.78
 -17  -1 -19    6.62    0.96
 -17  -1 -16   46.26    1.38
 -17  -1 -13  108.28    3.97
 -17  -1 -10   73.17    2.11
 -17  -1  -7   27.46    1.03
 -17  -1  -4   38.67    0.59
 -17  -1  -1   48.41    9.91
 -17  -1   2    1.80    1.43
 -17  -1   5   49.13    2.18
 -17  -1   8   63.78    4.79
 -17  -1  11   20.90    2.43
 -17  -1  14    2.90    0.56
 -17  -1  17    0.60    0.69
 -17  -1  20    2.67    1.68
 -17  -1  23    3.46    2.05
 -17  -1  26    0.89    0.93
 -17  -1  29    0.14    0.83
 -16 -16 -24    3.39    1.16
 -16 -16 -15    4.12    1.91
 -16 -16 -12   43.60    4.32
 -16 -16  -9    6.88    1.37
 -16 -16  -6   11.54    1.96
 -16 -16  -3    7.67    0.94
 -16 -16   0   58.96    4.18
 -16 -15 -25    2.95    1.85
 -16 -15 -22    2.04    1.63
 -16 -15 -16    0.19    1.11
 -16 -15 -13   39.08    3.73
 -16 -15 -10    5.47    1.15
 -16 -15  -7   19.11    2.09
 -16 -15  -4    0.89    0.96
 -16 -15  -1   26.86    1.41
 -16 -15   2   39.06    2.14
 -16 -15   5    2.68    0.69
 -16 -15   8   26.89    1.87
 -16 -15  11    6.33    1.23
 -16 -15  14   16.15    2.04
 -16 -15  17    1.61    2.71
 -16 -15  20    7.47    2.01
 -16 -15  23    0.16    1.37
 -16 -14 -23    0.84    1.36
 -16 -14 -20    4.10    3.08
 -16 -14 -17    7.29    3.81
 -16 -14 -14    9.55    1.51
 -16 -14 -11   25.87    2.60
 -16 -14  -8    7.83    1.20
 -16 -14  -5    0.16    1.07
 -16 -14  -2    8.24    1.18
 -16 -14   1    8.44    0.78
 -16 -14   4   10.76    2.01
 -16 -14   7    1.65    0.72
 -16 -14  10    6.45    1.09
 -16 -14  13   22.88    3.70
 -16 -14  16   32.97    4.00
 -16 -14  19    4.24    2.20
 -16 -14  22    0.25    1.45
 -16 -14  25    0.10    1.27
 -16 -13 -24    1.67    1.07
 -16 -13 -21    2.68    1.27
 -16 -13 -18    6.92    3.39
 -16 -13 -15   48.37    2.21
 -16 -13 -12    3.09    2.55
 -16 -13  -9    8.46    1.28
 -16 -13  -6   33.13    2.63
 -16 -13  -3   94.46    2.08
 -16 -13   0   26.06    1.82
 -16 -13   3   21.08    1.52
 -16 -13   6   58.31    2.98
 -16 -13   9  112.58    2.53
 -16 -13  12   12.59    1.62
 -16 -13  15    6.20    1.48
 -16 -13  18    3.81    1.17
 -16 -13  21    5.67    1.46
 -16 -13  24    1.03    0.90
 -16 -12 -25    1.67    0.92
 -16 -12 -22    1.19    0.93
 -16 -12 -19    9.77    2.03
 -16 -12 -16   20.24    2.28
 -16 -12 -13   29.73    1.84
 -16 -12 -10    7.37    0.55
 -16 -12  -7   17.29    1.11
 -16 -12  -4   16.93    0.96
 -16 -12  -1   23.71    1.49
 -16 -12   2    0.54    0.46
 -16 -12   5    4.30    1.44
 -16 -12   8    7.26    1.32
 -16 -12  11   37.43    3.17
 -16 -12  14    6.06    1.47
 -16 -12  17    4.56    1.33
 -16 -12  20    4.01    1.51
 -16 -12  23    4.01    1.71
 -16 -12  26    0.79    0.88
 -16 -11 -26    0.10    1.18
 -16 -11 -23    0.19    1.00
 -16 -11 -20    4.52    1.19
 -16 -11 -17    6.40    1.11
 -16 -11 -14    5.35    1.54
 -16 -11 -11    1.66    0.47
 -16 -11  -8   10.57    1.02
 -16 -11  -5    1.85    0.79
 -16 -11  -2   64.99    2.52
 -16 -11   1  198.24    5.62
 -16 -11   4   73.54    2.82
 -16 -11   7   33.78    1.34
 -16 -11  10   31.09    1.42
 -16 -11  13   38.42    4.09
 -16 -11  16    1.55    1.22
 -16 -11  19    1.95    1.81
 -16 -11  22    0.29    1.06
 -16 -11  25    3.66    1.04
 -16 -10 -27    0.05    0.91
 -16 -10 -24    0.72    1.21
 -16 -10 -21    7.11    1.46
 -16 -10 -18    5.98    1.16
 -16 -10 -15    1.48    0.87
 -16 -10 -12    5.12    0.61
 -16 -10  -9    7.84    0.54
 -16 -10  -6   12.95    1.08
 -16 -10  -3   82.17    2.67
 -16 -10   0   81.05    2.11
 -16 -10   3   52.79    2.55
 -16 -10   6    0.75    1.15
 -16 -10   9   25.25    0.67
 -16 -10  12   12.16    1.22
 -16 -10  15   53.43    2.96
 -16 -10  18   18.33    2.13
 -16 -10  21    3.49    1.07
 -16 -10  24    0.82    0.94
 -16 -10  27    1.64    0.82
 -16  -9 -28    0.05    1.62
 -16  -9 -25    0.52    0.84
 -16  -9 -22    8.03    1.17
 -16  -9 -19    7.23    2.26
 -16  -9 -16   11.47    1.42
 -16  -9 -13   58.47    1.43
 -16  -9 -10    8.45    0.74
 -16  -9  -7   45.46    2.26
 -16  -9  -4   30.45    1.89
 -16  -9  -1   57.63    2.77
 -16  -9   2   29.73    1.63
 -16  -9   5   29.27    2.25
 -16  -9   8   30.11    1.58
 -16  -9  11    9.46    1.11
 -16  -9  14   16.81    1.28
 -16  -9  17    4.41    0.93
 -16  -9  20    2.48    1.24
 -16  -9  23    0.93    1.49
 -16  -9  26    0.16    0.83
 -16  -8 -26    2.10    0.82
 -16  -8 -23    1.43    0.85
 -16  -8 -20    3.23    1.22
 -16  -8 -17    6.44    2.20
 -16  -8 -14    7.91    1.23
 -16  -8 -11    0.76    0.49
 -16  -8  -8   35.23    2.04
 -16  -8  -5  127.64    4.28
 -16  -8  -2   32.98    1.29
 -16  -8   1    3.36    0.57
 -16  -8   4   62.70    3.13
 -16  -8   7   68.33    2.35
 -16  -8  10    3.83    0.47
 -16  -8  13    7.96    1.31
 -16  -8  16   18.46    2.50
 -16  -8  19   22.24    2.90
 -16  -8  22    1.73    1.14
 -16  -8  25    0.56    0.86
 -16  -8  28    1.39    0.89
 -16  -7 -27    0.39    1.19
 -16  -7 -24    4.67    0.77
 -16  -7 -21   11.96    1.33
 -16  -7 -18    1.26    0.83
 -16  -7 -15   13.73    1.36
 -16  -7 -12   72.62    2.30
 -16  -7  -9   24.50    2.18
 -16  -7  -6   11.35    0.62
 -16  -7  -3    9.95    1.10
 -16  -7   0   63.03    3.20
 -16  -7   3   90.63    4.34
 -16  -7   6  109.87    3.52
 -16  -7   9   32.94    1.82
 -16  -7  12   17.66    1.67
 -16  -7  15   16.74    2.05
 -16  -7  18    7.56    1.47
 -16  -7  21    2.00    1.12
 -16  -7  24    1.81    1.15
 -16  -7  27    1.65    0.91
 -16  -6 -28    0.30    1.27
 -16  -6 -25    5.86    0.69
 -16  -6 -22    8.11    0.72
 -16  -6 -19   20.93    1.47
 -16  -6 -16   15.25    1.54
 -16  -6 -13   28.90    1.74
 -16  -6 -10    5.57    0.80
 -16  -6  -7   43.26    2.76
 -16  -6  -4   37.50    1.93
 -16  -6  -1    8.71    0.57
 -16  -6   2   91.40    6.98
 -16  -6   5   13.58    1.30
 -16  -6   8   33.87    2.14
 -16  -6  11   12.72    0.96
 -16  -6  14   28.41    1.46
 -16  -6  17    1.29    1.69
 -16  -6  20    9.42    1.88
 -16  -6  23    1.50    4.48
 -16  -6  26    0.27    0.92
 -16  -6  29    0.50    0.78
 -16  -5 -29    0.18    1.20
 -16  -5 -26    0.16    1.06
 -16  -5 -23    6.02    0.72
 -16  -5 -20   14.62    1.27
 -16  -5 -17    4.26    1.27
 -16  -5 -14   10.43    0.75
 -16  -5 -11   46.60    2.18
 -16  -5  -8    5.36    0.89
 -16  -5  -5   50.72    1.79
 -16  -5  -2   12.54    0.90
 -16  -5   1  203.78    5.07
 -16  -5   4   21.84    2.13
 -16  -5   7   88.51    3.53
 -16  -5  10    1.13    1.28
 -16  -5  13   16.95    1.74
 -16  -5  16    4.95    1.87
 -16  -5  19   23.28    1.33
 -16  -5  22    1.47    1.36
 -16  -5  25    0.42    1.30
 -16  -5  28    0.20    0.87
 -16  -4 -27    2.11    0.88
 -16  -4 -24    1.51    0.67
 -16  -4 -21    3.17    0.69
 -16  -4 -18    2.33    0.64
 -16  -4 -15    3.94    0.53
 -16  -4 -12   10.54    0.86
 -16  -4  -9   31.90    1.36
 -16  -4  -6    4.14    0.58
 -16  -4  -3   52.62    2.45
 -16  -4   0   31.50    1.41
 -16  -4   3  396.48    6.62
 -16  -4   6   72.13    1.40
 -16  -4   9   67.51    2.17
 -16  -4  12   61.58    3.38
 -16  -4  15  114.48    4.29
 -16  -4  18    0.03    0.84
 -16  -4  21   16.61    2.23
 -16  -4  24    1.01    0.88
 -16  -4  27    0.19    0.82
 -16  -3 -28    0.34    0.78
 -16  -3 -25    4.51    1.04
 -16  -3 -22   17.31    1.30
 -16  -3 -19    0.76    0.59
 -16  -3 -16   24.90    1.34
 -16  -3 -13  109.92    3.41
 -16  -3 -10   54.58    2.30
 -16  -3  -7    6.06    0.39
 -16  -3  -4  207.22    4.24
 -16  -3  -1   30.82    3.16
 -16  -3   2   37.20    0.46
 -16  -3   5   39.94    1.48
 -16  -3   8   33.10    1.33
 -16  -3  11   77.80    3.99
 -16  -3  14   12.90    1.39
 -16  -3  17    0.53    1.03
 -16  -3  20    3.64    0.81
 -16  -3  23    5.90    1.44
 -16  -3  26    1.38    0.87
 -16  -3  29    0.33    0.82
 -16  -2 -29    0.59    0.80
 -16  -2 -26    7.54    0.92
 -16  -2 -23    0.89    0.71
 -16  -2 -20    3.50    0.72
 -16  -2 -17    0.35    0.80
 -16  -2 -14   38.34    1.30
 -16  -2 -11   13.69    1.30
 -16  -2  -8    1.16    0.62
 -16  -2  -5    3.61    0.83
 -16  -2  -2  332.13    5.27
 -16  -2   1   11.25    2.87
 -16  -2   4   38.46    1.27
 -16  -2   7   85.66    3.17
 -16  -2  10   47.87    3.26
 -16  -2  13   62.88    4.27
 -16  -2  16    2.32    0.74
 -16  -2  19    3.16    0.99
 -16  -2  22    5.73    1.81
 -16  -2  25    0.06    0.92
 -16  -2  28    0.39    0.85
 -16  -1 -30    0.03    0.67
 -16  -1 -27    2.28    0.88
 -16  -1 -24    0.99    0.69
 -16  -1 -21    7.42    1.03
 -16  -1 -18   13.96    1.32
 -16  -1 -15   33.51    2.14
 -16  -1 -12    6.04    1.42
 -16  -1  -9   40.53    1.26
 -16  -1  -6  136.57    5.42
 -16  -1  -3  138.42    3.86
 -16  -1   0  135.57    4.01
 -16  -1   3   47.18    3.17
 -16  -1   6  466.58   15.87
 -16  -1   9  117.73    3.66
 -16  -1  12    3.70    1.67
 -16  -1  15    6.17    1.57
 -16  -1  18   14.58    1.77
 -16  -1  21    6.65    0.89
 -16  -1  24    1.88    1.26
 -16  -1  27    0.30    0.83
 -16  -1  30    1.10    0.92
 -15 -15 -24    0.66    0.86
 -15 -15 -21    0.96    1.25
 -15 -15 -18    2.39    1.40
 -15 -15 -15    9.14    1.59
 -15 -15 -12    0.24    0.85
 -15 -15  -9   10.42    1.54
 -15 -15  -6    4.32    0.99
 -15 -15  -3    5.27    1.40
 -15 -15   0    6.03    1.17
 -15 -14 -25    0.81    0.84
 -15 -14 -22    1.59    1.18
 -15 -14 -19   11.43    1.36
 -15 -14 -16    1.81    0.88
 -15 -14 -13    5.44    1.83
 -15 -14 -10    0.06    0.82
 -15 -14  -7   61.96    2.18
 -15 -14  -4    7.25    0.51
 -15 -14  -1   59.34    1.82
 -15 -14   2    9.57    0.60
 -15 -14   5   51.05    1.37
 -15 -14   8    0.63    0.73
 -15 -14  11    6.81    1.60
 -15 -14  14    4.49    1.86
 -15 -14  17   12.29    1.83
 -15 -14  20   10.96    1.67
 -15 -14  23    0.60    1.46
 -15 -14  26    1.21    0.92
 -15 -13 -26    0.29    0.90
 -15 -13 -23    2.99    1.49
 -15 -13 -20    1.68    0.96
 -15 -13 -17   11.18    2.74
 -15 -13 -14   34.26    1.59
 -15 -13 -11   16.28    1.48
 -15 -13  -8   40.86    4.04
 -15 -13  -5   20.95    2.01
 -15 -13  -2  107.35    3.13
 -15 -13   1    3.22    0.70
 -15 -13   4   57.87    1.73
 -15 -13   7    8.50    0.67
 -15 -13  10   42.71    3.10
 -15 -13  13   13.35    2.09
 -15 -13  16   14.41    1.43
 -15 -13  19    0.26    1.30
 -15 -13  22    0.32    1.00
 -15 -13  25    0.06    0.89
 -15 -12 -27    1.78    0.88
 -15 -12 -24    1.52    0.90
 -15 -12 -21    4.67    1.45
 -15 -12 -18    3.77    2.97
 -15 -12 -15    6.95    0.70
 -15 -12 -12    2.72    0.75
 -15 -12  -9    3.26    0.87
 -15 -12  -6   50.30    3.63
 -15 -12  -3   12.26    1.12
 -15 -12   0    6.23    1.46
 -15 -12   3    1.22    0.90
 -15 -12   6    0.14    0.66
 -15 -12   9   13.43    1.24
 -15 -12  12   14.46    1.15
 -15 -12  15    7.86    1.22
 -15 -12  18   11.23    1.70
 -15 -12  21    0.58    1.72
 -15 -12  24    0.26    0.97
 -15 -12  27    0.01    0.91
 -15 -11 -25    0.38    0.86
 -15 -11 -22    0.45    0.96
 -15 -11 -19    3.70    1.16
 -15 -11 -16    2.61    1.06
 -15 -11 -13    4.38    2.03
 -15 -11 -10   16.42    0.51
 -15 -11  -7   27.60    2.20
 -15 -11  -4   56.05    2.69
 -15 -11  -1   78.48    2.49
 -15 -11   2  182.73    5.77
 -15 -11   5   26.99    1.79
 -15 -11   8   34.72    1.11
 -15 -11  11   18.33    2.27
 -15 -11  14   13.00    1.50
 -15 -11  17    1.63    0.78
 -15 -11  20    2.02    1.03
 -15 -11  23    1.23    1.39
 -15 -11  26    2.23    0.96
 -15 -10 -26    0.79    0.84
 -15 -10 -23    1.76    1.02
 -15 -10 -20    1.31    0.75
 -15 -10 -17   11.04    1.64
 -15 -10 -14    6.08    1.76
 -15 -10 -11    4.58    0.48
 -15 -10  -8    3.20    0.41
 -15 -10  -5   16.52    1.53
 -15 -10  -2  134.53    4.27
 -15 -10   1    1.31    0.55
 -15 -10   4    2.10    0.62
 -15 -10   7   21.93    1.39
 -15 -10  10   25.92    1.18
 -15 -10  13    7.57    2.42
 -15 -10  16   19.99    2.01
 -15 -10  19   12.01    2.11
 -15 -10  22    0.80    1.03
 -15 -10  25    0.30    0.93
 -15 -10  28    0.41    0.78
 -15  -9 -27    0.18    0.79
 -15  -9 -24    0.54    0.69
 -15  -9 -21    6.48    0.78
 -15  -9 -18    2.84    0.75
 -15  -9 -15   13.32    0.96
 -15  -9 -12   26.84    1.34
 -15  -9  -9   10.62    0.59
 -15  -9  -6   39.27    1.57
 -15  -9  -3   36.28    2.01
 -15  -9   0   58.04    3.17
 -15  -9   3    2.78    0.56
 -15  -9   6   19.20    1.15
 -15  -9   9    0.25    0.51
 -15  -9  12   43.49    1.49
 -15  -9  15   10.02    2.78
 -15  -9  18    0.43    1.06
 -15  -9  21    5.92    1.53
 -15  -9  24    2.44    0.97
 -15  -9  27    0.22    0.87
 -15  -8 -28    1.57    1.34
 -15  -8 -25    3.92    0.68
 -15  -8 -22    7.19    1.08
 -15  -8 -19    1.24    0.70
 -15  -8 -16    3.60    1.20
 -15  -8 -13   15.84    1.06
 -15  -8 -10   21.39    1.19
 -15  -8  -7    3.07    0.69
 -15  -8  -4   81.71    1.61
 -15  -8  -1    3.17    0.58
 -15  -8   2    9.26    2.67
 -15  -8   5   47.85    1.92
 -15  -8   8    2.84    0.74
 -15  -8  11    1.98    0.62
 -15  -8  14   23.15    2.28
 -15  -8  17   16.76    1.30
 -15  -8  20   26.11    1.83
 -15  -8  23    0.05    1.36
 -15  -8  26    0.20    0.86
 -15  -8  29    0.41    1.14
 -15  -7 -29    0.37    1.20
 -15  -7 -26    0.42    0.68
 -15  -7 -23    2.74    0.76
 -15  -7 -20    3.10    0.74
 -15  -7 -17    0.16    0.68
 -15  -7 -14    6.63    0.99
 -15  -7 -11   42.46    3.32
 -15  -7  -8    1.90    1.44
 -15  -7  -5   24.70    1.38
 -15  -7  -2   55.45    4.40
 -15  -7   1   65.77    3.36
 -15  -7   4   60.36    3.18
 -15  -7   7  100.68    5.46
 -15  -7  10   14.55    1.12
 -15  -7  13   50.96    1.98
 -15  -7  16    1.36    0.74
 -15  -7  19    5.66    1.07
 -15  -7  22    1.00    0.97
 -15  -7  25    1.25    0.93
 -15  -7  28    0.44    0.84
 -15  -6 -27    1.51    0.87
 -15  -6 -24    1.17    0.64
 -15  -6 -21    9.74    1.13
 -15  -6 -18    4.38    0.66
 -15  -6 -15   12.50    2.61
 -15  -6 -12   36.67    2.57
 -15  -6  -9    2.82    0.48
 -15  -6  -6    6.56    0.78
 -15  -6  -3    3.92    0.83
 -15  -6   0  120.61    3.02
 -15  -6   3  116.39    7.06
 -15  -6   6   43.65    3.61
 -15  -6   9   49.59    1.54
 -15  -6  12   18.58    2.29
 -15  -6  15   13.64    2.80
 -15  -6  18   19.61    2.04
 -15  -6  21    7.11    1.73
 -15  -6  24    0.21    0.87
 -15  -6  27    2.01    0.94
 -15  -5 -28    0.84    0.77
 -15  -5 -25    2.09    1.10
 -15  -5 -22    4.02    0.70
 -15  -5 -19    2.37    0.76
 -15  -5 -16   14.76    1.48
 -15  -5 -13   15.72    0.87
 -15  -5 -10    6.70    1.05
 -15  -5  -7   19.17    1.18
 -15  -5  -4   17.23    0.88
 -15  -5  -1    5.46    1.30
 -15  -5   2  106.55    1.61
 -15  -5   5   60.65    3.71
 -15  -5   8   19.64    2.35
 -15  -5  11   61.20    3.11
 -15  -5  14   28.42    1.98
 -15  -5  17    0.55    0.80
 -15  -5  20    5.15    1.10
 -15  -5  23    3.69    1.17
 -15  -5  26    1.25    0.99
 -15  -5  29    0.09    0.80
 -15  -4 -29    0.21    0.74
 -15  -4 -26    0.01    0.83
 -15  -4 -23    0.80    0.72
 -15  -4 -20    0.36    0.63
 -15  -4 -17    7.70    0.68
 -15  -4 -14   15.60    1.12
 -15  -4 -11   48.03    3.29
 -15  -4  -8    9.67    0.59
 -15  -4  -5   56.34    1.54
 -15  -4  -2   58.47    5.12
 -15  -4   1   29.18    1.74
 -15  -4   4   78.96    1.07
 -15  -4   7    8.03    0.74
 -15  -4  10   27.22    1.54
 -15  -4  13    1.10    1.42
 -15  -4  16   11.65    1.32
 -15  -4  19   16.72    2.03
 -15  -4  22   19.76    1.95
 -15  -4  25    0.20    0.90
 -15  -4  28    0.94    0.88
 -15  -3 -30    0.75    0.70
 -15  -3 -27    0.28    0.79
 -15  -3 -24    3.42    0.82
 -15  -3 -21    3.94    0.88
 -15  -3 -18   11.05    1.24
 -15  -3 -15   42.76    2.11
 -15  -3 -12   23.25    1.43
 -15  -3  -9    7.08    2.41
 -15  -3  -6   21.70    0.54
 -15  -3  -3  310.76    6.50
 -15  -3   0   98.03    2.59
 -15  -3   3   89.11    4.67
 -15  -3   6   56.10    1.97
 -15  -3   9    9.76    2.07
 -15  -3  12   55.74    2.22
 -15  -3  15    9.82    1.23
 -15  -3  18    1.47    0.91
 -15  -3  21    5.72    2.15
 -15  -3  24    7.59    1.16
 -15  -3  27    1.01    0.85
 -15  -3  30    1.39    0.82
 -15  -2 -28    1.94    0.82
 -15  -2 -25    3.10    0.82
 -15  -2 -22    0.98    0.60
 -15  -2 -19    6.27    1.16
 -15  -2 -16   12.79    1.30
 -15  -2 -13   34.05    2.19
 -15  -2 -10   21.11    1.61
 -15  -2  -7    0.62    1.12
 -15  -2  -4    1.30    0.86
 -15  -2  -1  210.31    7.39
 -15  -2   2  132.59    5.73
 -15  -2   5  274.46    8.12
 -15  -2   8   21.72    1.25
 -15  -2  11   21.36    1.04
 -15  -2  14   41.37    2.23
 -15  -2  17   36.05    2.71
 -15  -2  20    4.34    0.74
 -15  -2  23   10.73    0.70
 -15  -2  26    1.69    0.88
 -15  -2  29    2.28    0.82
 -15  -1 -29    2.31    0.75
 -15  -1 -26    1.46    0.81
 -15  -1 -23    3.82    1.35
 -15  -1 -20   14.05    0.92
 -15  -1 -17   45.70    1.76
 -15  -1 -14   38.18    1.21
 -15  -1 -11   20.99    2.68
 -15  -1  -8   35.45    1.49
 -15  -1  -5  154.58    4.61
 -15  -1  -2   37.75    0.53
 -15  -1   1   58.71    1.41
 -15  -1   4  136.57    6.44
 -15  -1   7  187.50   10.40
 -15  -1  10  211.83    6.51
 -15  -1  13   27.28    3.76
 -15  -1  16    7.49    1.45
 -15  -1  19   31.15    1.88
 -15  -1  22    7.31    1.33
 -15  -1  25    2.75    0.91
 -15  -1  28    0.51    0.90
 -14 -14 -24    0.97    0.98
 -14 -14 -21    0.02    1.47
 -14 -14 -18    1.50    1.02
 -14 -14 -15    0.02    0.72
 -14 -14 -12    2.98    0.95
 -14 -14  -9   18.79    2.93
 -14 -14  -6    9.90    0.64
 -14 -14  -3    8.05    1.32
 -14 -14   0  178.81    8.10
 -14 -13 -25    0.00    0.84
 -14 -13 -22    1.13    1.66
 -14 -13 -19    4.22    1.65
 -14 -13 -16    7.89    0.78
 -14 -13 -13    1.32    0.76
 -14 -13 -10   19.00    1.28
 -14 -13  -7   13.11    1.67
 -14 -13  -4    9.42    0.93
 -14 -13  -1   45.06    1.92
 -14 -13   2   43.95    2.19
 -14 -13   5   62.54    2.64
 -14 -13   8    3.15    0.53
 -14 -13  11   12.46    1.58
 -14 -13  14   12.08    1.29
 -14 -13  17    1.48    0.84
 -14 -13  20    9.77    1.95
 -14 -13  23    0.67    1.28
 -14 -13  26    0.25    0.88
 -14 -12 -26    0.05    0.92
 -14 -12 -23    0.89    1.31
 -14 -12 -20    3.72    0.91
 -14 -12 -17    3.35    1.82
 -14 -12 -14   11.94    1.17
 -14 -12 -11   14.59    1.32
 -14 -12  -8    7.42    1.05
 -14 -12  -5   59.69    0.97
 -14 -12  -2  115.80    2.74
 -14 -12   1    8.20    0.95
 -14 -12   4   13.37    1.81
 -14 -12   7    9.74    0.67
 -14 -12  10   19.16    2.07
 -14 -12  13   27.49    1.98
 -14 -12  16    0.39    0.82
 -14 -12  19    5.15    0.97
 -14 -12  22    1.03    1.07
 -14 -12  25    1.51    1.05
 -14 -11 -27    0.40    1.26
 -14 -11 -24    0.13    0.79
 -14 -11 -21    0.48    0.75
 -14 -11 -18   16.34    1.46
 -14 -11 -15   24.99    1.67
 -14 -11 -12   25.04    0.69
 -14 -11  -9    5.78    1.06
 -14 -11  -6   12.24    1.22
 -14 -11  -3   25.05    0.99
 -14 -11   0   50.72    3.09
 -14 -11   3   23.06    0.75
 -14 -11   6   37.03    1.03
 -14 -11   9   31.94    1.98
 -14 -11  12    4.32    2.15
 -14 -11  15   10.60    1.77
 -14 -11  18    2.10    0.94
 -14 -11  21    2.08    1.04
 -14 -11  24    1.74    0.86
 -14 -11  27    0.48    0.91
 -14 -10 -28    0.21    0.91
 -14 -10 -25    0.58    0.84
 -14 -10 -22    7.66    2.62
 -14 -10 -19   21.75    1.38
 -14 -10 -16   20.38    2.07
 -14 -10 -13    3.99    0.74
 -14 -10 -10    3.97    0.70
 -14 -10  -7    2.54    0.57
 -14 -10  -4   56.15    3.81
 -14 -10  -1   12.87    1.69
 -14 -10   2    9.39    0.96
 -14 -10   5   12.27    0.64
 -14 -10   8   16.21    0.67
 -14 -10  11    6.09    0.60
 -14 -10  14    3.20    0.58
 -14 -10  17   14.21    1.86
 -14 -10  20    8.76    1.80
 -14 -10  23    1.64    1.35
 -14 -10  26    2.42    0.94
 -14  -9 -29    0.67    1.35
 -14  -9 -26    0.38    0.89
 -14  -9 -23    0.08    0.88
 -14  -9 -20    1.14    1.02
 -14  -9 -17   31.48    2.75
 -14  -9 -14    8.83    1.33
 -14  -9 -11    3.30    0.81
 -14  -9  -8    9.53    1.74
 -14  -9  -5    2.41    0.62
 -14  -9  -2   59.20    0.79
 -14  -9   1   23.91    3.52
 -14  -9   4  137.50    2.62
 -14  -9   7   17.85    1.33
 -14  -9  10   30.16    1.80
 -14  -9  13   30.58    1.76
 -14  -9  16    8.28    0.86
 -14  -9  19    4.05    1.48
 -14  -9  22   15.18    2.00
 -14  -9  25    3.00    0.89
 -14  -9  28    0.70    0.83
 -14  -8 -27    0.79    0.86
 -14  -8 -24    1.42    0.88
 -14  -8 -21    2.29    1.23
 -14  -8 -18    2.83    1.20
 -14  -8 -15    7.75    1.16
 -14  -8 -12    3.01    1.22
 -14  -8  -9   13.28    0.88
 -14  -8  -6  110.75    3.30
 -14  -8  -3   17.71    1.13
 -14  -8   0  303.61   11.18
 -14  -8   3  140.05    4.33
 -14  -8   6   62.95    2.28
 -14  -8   9   75.92    1.99
 -14  -8  12    6.09    1.08
 -14  -8  15    5.19    0.63
 -14  -8  18    6.84    2.85
 -14  -8  21   10.86    2.27
 -14  -8  24    6.72    1.23
 -14  -8  27    2.03    0.90
 -14  -7 -28    2.49    1.19
 -14  -7 -25    0.91    0.65
 -14  -7 -22    0.73    0.69
 -14  -7 -19   14.91    1.35
 -14  -7 -16    4.42    0.61
 -14  -7 -13   22.86    0.99
 -14  -7 -10   16.88    1.11
 -14  -7  -7   50.78    1.47
 -14  -7  -4   29.29    4.98
 -14  -7  -1   26.47    2.19
 -14  -7   2  100.91    3.81
 -14  -7   5  299.33   10.92
 -14  -7   8   21.64    1.22
 -14  -7  11  130.23    3.24
 -14  -7  14   51.84    1.52
 -14  -7  17    6.20    0.70
 -14  -7  20    5.83    0.95
 -14  -7  23   11.65    2.81
 -14  -7  26    0.69    0.91
 -14  -7  29    0.77    0.79
 -14  -6 -29    1.81    1.31
 -14  -6 -26    3.03    2.15
 -14  -6 -23    6.43    1.37
 -14  -6 -20   16.80    1.19
 -14  -6 -17   19.49    0.77
 -14  -6 -14   43.58    2.24
 -14  -6 -11   25.90    1.06
 -14  -6  -8    7.15    0.74
 -14  -6  -5   13.23    0.77
 -14  -6  -2  558.95   21.61
 -14  -6   1   81.35    4.45
 -14  -6   4   29.48    0.48
 -14  -6   7  145.56    4.83
 -14  -6  10    0.48    1.58
 -14  -6  13   13.02    1.62
 -14  -6  16    0.82    1.51
 -14  -6  19   11.51    1.49
 -14  -6  22    3.31    1.23
 -14  -6  25    2.66    1.27
 -14  -6  28    1.00    0.82
 -14  -5 -30    1.18    1.14
 -14  -5 -27    0.64    0.82
 -14  -5 -24    2.87    0.87
 -14  -5 -21    0.89    0.65
 -14  -5 -18    1.99    1.12
 -14  -5 -15   32.09    2.77
 -14  -5 -12   36.67    1.22
 -14  -5  -9   44.19    2.21
 -14  -5  -6    4.70    1.03
 -14  -5  -3  166.97    6.25
 -14  -5   0   14.53    1.18
 -14  -5   3   33.87    1.51
 -14  -5   6    4.96    0.53
 -14  -5   9   71.14    1.52
 -14  -5  12   88.47    4.42
 -14  -5  15   37.84    3.10
 -14  -5  18    8.25    0.78
 -14  -5  21    8.79    1.03
 -14  -5  24    3.93    1.38
 -14  -5  27    0.53    0.86
 -14  -5  30    0.56    0.78
 -14  -4 -28    0.42    0.78
 -14  -4 -25    0.57    0.71
 -14  -4 -22    0.48    0.68
 -14  -4 -19    0.90    0.76
 -14  -4 -16    4.73    0.67
 -14  -4 -13    0.55    0.52
 -14  -4 -10  109.82    2.87
 -14  -4  -7   32.27    1.86
 -14  -4  -4  232.13    5.05
 -14  -4  -1  258.48    4.02
 -14  -4   2   47.31    1.48
 -14  -4   5   57.24    4.10
 -14  -4   8   12.13    0.87
 -14  -4  11    5.67    1.41
 -14  -4  14    9.46    1.64
 -14  -4  17    1.36    1.11
 -14  -4  20    2.08    0.83
 -14  -4  23    4.54    0.73
 -14  -4  26    0.03    0.89
 -14  -4  29    0.19    0.81
 -14  -3 -29    0.64    0.82
 -14  -3 -26    1.84    0.87
 -14  -3 -23    1.80    0.60
 -14  -3 -20    8.03    0.84
 -14  -3 -17   11.38    1.63
 -14  -3 -14    2.57    0.62
 -14  -3 -11   62.08    2.18
 -14  -3  -8   32.66    1.15
 -14  -3  -5  192.84    7.39
 -14  -3  -2  160.35    3.81
 -14  -3   1    0.62    1.26
 -14  -3   4   17.38    1.35
 -14  -3   7  148.79    9.13
 -14  -3  10   15.11    1.50
 -14  -3  13  113.15    6.02
 -14  -3  16    7.10    0.97
 -14  -3  19    6.51    1.31
 -14  -3  22    3.76    1.34
 -14  -3  25    3.23    0.84
 -14  -3  28    0.22    0.89
 -14  -2 -30    0.49    0.70
 -14  -2 -27    6.04    0.91
 -14  -2 -24    4.15    0.68
 -14  -2 -21    3.35    0.66
 -14  -2 -18   12.48    1.46
 -14  -2 -15    4.31    0.86
 -14  -2 -12  113.77    3.36
 -14  -2  -9   92.35    2.77
 -14  -2  -6  172.43    7.23
 -14  -2  -3    4.18    0.69
 -14  -2   0  523.97    7.19
 -14  -2   3  114.76    2.27
 -14  -2   6   47.56    2.81
 -14  -2   9   25.55    2.91
 -14  -2  12    4.34    3.18
 -14  -2  15    2.31    0.67
 -14  -2  18   36.09    1.70
 -14  -2  21    4.46    1.00
 -14  -2  24    2.01    0.75
 -14  -2  27    1.50    0.95
 -14  -2  30    0.42    0.87
 -14  -1 -31    0.24    0.69
 -14  -1 -28    0.52    0.79
 -14  -1 -25    3.18    0.77
 -14  -1 -22    0.62    0.70
 -14  -1 -19    7.63    1.27
 -14  -1 -16    1.52    2.23
 -14  -1 -13   37.45    2.79
 -14  -1 -10   44.38    3.04
 -14  -1  -7   92.40    4.29
 -14  -1  -4   83.27    3.79
 -14  -1  -1   80.48    1.24
 -14  -1   2   10.77    2.18
 -14  -1   5  144.95    5.93
 -14  -1   8    8.54    1.59
 -14  -1  11   28.25    1.99
 -14  -1  14    4.60    0.92
 -14  -1  17    2.10    1.85
 -14  -1  20    0.49    0.62
 -14  -1  23   10.82    1.09
 -14  -1  26    0.06    0.91
 -14  -1  29    0.73    0.79
 -13 -13 -27    0.02    0.82
 -13 -13 -24    1.84    1.09
 -13 -13 -21    0.33    1.01
 -13 -13 -18    9.64    0.93
 -13 -13 -15    1.60    0.72
 -13 -13 -12   41.53    9.42
 -13 -13  -9   15.19    0.65
 -13 -13  -6   33.38    1.44
 -13 -13  -3   26.01    0.77
 -13 -13   0  413.17   21.86
 -13 -12 -28    0.08    1.14
 -13 -12 -25    1.91    1.15
 -13 -12 -22    9.07    1.03
 -13 -12 -19    1.02    0.77
 -13 -12 -16    3.62    0.70
 -13 -12 -13   24.39    3.27
 -13 -12 -10    9.00    0.58
 -13 -12  -7    6.46    0.80
 -13 -12  -4   50.62    1.03
 -13 -12  -1  302.31   10.90
 -13 -12   2  103.56    2.03
 -13 -12   5   27.39    2.53
 -13 -12   8   34.28    2.14
 -13 -12  11   59.13    2.04
 -13 -12  14   48.36    3.36
 -13 -12  17   10.16    2.32
 -13 -12  20    2.51    0.83
 -13 -12  23    0.06    2.08
 -13 -12  26    1.81    0.86
 -13 -11 -26    0.42    0.86
 -13 -11 -23    2.39    0.79
 -13 -11 -20    9.21    1.05
 -13 -11 -17    1.91    1.14
 -13 -11 -14    1.20    0.75
 -13 -11 -11    3.27    0.61
 -13 -11  -8    0.17    0.71
 -13 -11  -5   82.48    2.80
 -13 -11  -2   38.62    1.19
 -13 -11   1    9.42    1.81
 -13 -11   4   19.12    1.43
 -13 -11   7   13.82    1.75
 -13 -11  10   60.94    3.01
 -13 -11  13    0.91    0.60
 -13 -11  16    3.48    2.34
 -13 -11  19   13.17    1.37
 -13 -11  22    4.43    0.97
 -13 -11  25    0.18    0.84
 -13 -11  28    2.57    0.83
 -13 -10 -27    3.53    1.08
 -13 -10 -24    4.85    0.75
 -13 -10 -21    0.60    1.62
 -13 -10 -18   20.60    1.81
 -13 -10 -15   11.46    2.59
 -13 -10 -12   34.77    0.93
 -13 -10  -9   25.08    1.37
 -13 -10  -6   22.75    1.35
 -13 -10  -3  105.75    3.15
 -13 -10   0   68.64    3.80
 -13 -10   3   32.49    0.95
 -13 -10   6   73.12    1.02
 -13 -10   9   88.16    3.16
 -13 -10  12    3.85    0.48
 -13 -10  15    2.42    0.63
 -13 -10  18   29.37    1.68
 -13 -10  21    6.41    2.06
 -13 -10  24    0.75    0.91
 -13 -10  27    0.67    0.85
 -13  -9 -28    0.55    0.80
 -13  -9 -25    0.85    0.69
 -13  -9 -22    0.10    0.70
 -13  -9 -19    6.69    1.35
 -13  -9 -16   11.21    1.67
 -13  -9 -13   54.78    2.29
 -13  -9 -10    7.44    0.63
 -13  -9  -7   41.16    3.45
 -13  -9  -4   41.62    2.82
 -13  -9  -1  285.70    9.72
 -13  -9   2   12.73    1.20
 -13  -9   5  241.62    5.43
 -13  -9   8   10.67    1.37
 -13  -9  11    4.74    1.41
 -13  -9  14    8.40    0.69
 -13  -9  17   33.05    1.78
 -13  -9  20    6.57    0.80
 -13  -9  23    0.21    0.98
 -13  -9  26    0.41    0.90
 -13  -9  29    2.23    1.69
 -13  -8 -29    0.83    1.29
 -13  -8 -26    0.39    0.69
 -13  -8 -23    0.49    0.75
 -13  -8 -20   15.95    1.27
 -13  -8 -17   22.61    1.94
 -13  -8 -14   51.63    1.34
 -13  -8 -11   10.13    1.29
 -13  -8  -8    5.23    1.17
 -13  -8  -5  102.64    2.68
 -13  -8  -2  232.53    7.03
 -13  -8   1   78.14    5.90
 -13  -8   4  132.80    4.48
 -13  -8   7   45.68    2.13
 -13  -8  10   22.66    1.83
 -13  -8  13   65.47    2.40
 -13  -8  16    4.56    1.10
 -13  -8  19   13.81    2.00
 -13  -8  22    5.14    1.32
 -13  -8  25    1.73    0.86
 -13  -8  28    0.16    0.82
 -13  -7 -30    0.04    1.21
 -13  -7 -27    0.31    0.67
 -13  -7 -24    0.52    0.66
 -13  -7 -21    2.05    1.38
 -13  -7 -18   10.11    1.55
 -13  -7 -15   24.18    0.90
 -13  -7 -12   23.99    2.99
 -13  -7  -9   72.02    3.48
 -13  -7  -6   55.98    2.63
 -13  -7  -3  162.34    2.64
 -13  -7   0  157.62    5.14
 -13  -7   3  346.84   10.54
 -13  -7   6   98.68    6.85
 -13  -7   9   31.98    2.23
 -13  -7  12  175.41    5.01
 -13  -7  15    5.03    0.55
 -13  -7  18   38.43    3.87
 -13  -7  21   14.02    1.48
 -13  -7  24    4.81    0.66
 -13  -7  27    0.53    0.89
 -13  -7  30    1.25    1.16
 -13  -6 -28    1.76    0.77
 -13  -6 -25    0.65    0.68
 -13  -6 -22    0.57    0.70
 -13  -6 -19    3.46    0.92
 -13  -6 -16   26.99    1.78
 -13  -6 -13   32.15    2.08
 -13  -6 -10   79.57    3.09
 -13  -6  -7   45.18    0.90
 -13  -6  -4  548.50   13.15
 -13  -6  -1   95.99    5.36
 -13  -6   2  383.85    8.02
 -13  -6   5   15.71    0.66
 -13  -6   8   51.68    1.71
 -13  -6  11    6.11    2.10
 -13  -6  14   12.06    1.33
 -13  -6  17    0.53    0.62
 -13  -6  20   58.38    4.70
 -13  -6  23    0.03    0.70
 -13  -6  26    1.59    0.87
 -13  -6  29    0.37    0.82
 -13  -5 -29    1.05    0.78
 -13  -5 -26    7.98    1.14
 -13  -5 -23    0.24    0.65
 -13  -5 -20    1.13    0.70
 -13  -5 -17   16.57    2.19
 -13  -5 -14    3.37    0.50
 -13  -5 -11    5.53    0.88
 -13  -5  -8   32.24    3.38
 -13  -5  -5  262.74    8.67
 -13  -5  -2   49.27    3.03
 -13  -5   1  207.48    5.77
 -13  -5   4  198.24    7.31
 -13  -5   7  139.10    5.74
 -13  -5  10   75.98    2.45
 -13  -5  13   31.52    2.22
 -13  -5  16    1.82    1.35
 -13  -5  19   20.12    1.73
 -13  -5  22    4.77    1.00
 -13  -5  25    2.83    0.79
 -13  -5  28    0.40    0.89
 -13  -4 -30    0.44    0.78
 -13  -4 -27    2.14    0.96
 -13  -4 -24    1.52    0.63
 -13  -4 -21    2.53    0.95
 -13  -4 -18    9.40    0.78
 -13  -4 -15    6.39    0.70
 -13  -4 -12   26.78    0.81
 -13  -4  -9   16.63    1.57
 -13  -4  -6  190.22    3.69
 -13  -4  -3  176.54    2.43
 -13  -4   0   29.07    0.62
 -13  -4   3  494.48    8.90
 -13  -4   6  232.15    5.03
 -13  -4   9    5.18    0.70
 -13  -4  12   61.80    5.91
 -13  -4  15    9.36    1.97
 -13  -4  18   18.28    1.98
 -13  -4  21    9.93    1.88
 -13  -4  24    3.96    0.85
 -13  -4  27    1.20    0.91
 -13  -4  30    0.43    0.86
 -13  -3 -31    0.56    1.40
 -13  -3 -28    2.77    0.90
 -13  -3 -25    0.04    0.60
 -13  -3 -22    1.25    0.94
 -13  -3 -19    5.93    1.71
 -13  -3 -16   26.91    1.27
 -13  -3 -13   13.61    1.18
 -13  -3 -10   25.96    2.23
 -13  -3  -7  575.98   19.38
 -13  -3  -4   68.98    7.30
 -13  -3  -1  210.62    4.39
 -13  -3   2  255.10    7.80
 -13  -3   5  908.84   20.40
 -13  -3   8  603.08   22.98
 -13  -3  11  163.46    4.30
 -13  -3  14   75.83    3.04
 -13  -3  17   85.46    3.74
 -13  -3  20    4.72    0.73
 -13  -3  23    5.86    0.71
 -13  -3  26    0.30    1.05
 -13  -3  29    3.27    0.90
 -13  -2 -29    0.34    0.73
 -13  -2 -26    0.83    1.13
 -13  -2 -23    1.25    0.61
 -13  -2 -20    2.77    1.57
 -13  -2 -17   27.82    1.77
 -13  -2 -14    5.97    0.89
 -13  -2 -11   88.42    3.58
 -13  -2  -8  263.37    8.15
 -13  -2  -5  192.33    2.07
 -13  -2  -2   36.46    1.43
 -13  -2   1  156.40    7.78
 -13  -2   4   21.91    3.45
 -13  -2   7  207.63    7.19
 -13  -2  10   11.05    1.20
 -13  -2  13  100.73    3.16
 -13  -2  16   21.20    1.40
 -13  -2  19   40.25    2.00
 -13  -2  22    1.23    0.82
 -13  -2  25    4.18    0.76
 -13  -2  28    0.64    1.42
 -13  -2  31    0.85    0.92
 -13  -1 -30    0.22    0.73
 -13  -1 -27    3.44    0.78
 -13  -1 -24    4.57    0.74
 -13  -1 -21   19.02    1.73
 -13  -1 -18   15.20    2.20
 -13  -1 -15  218.81    5.24
 -13  -1 -12   69.04    2.76
 -13  -1  -9   53.39    1.63
 -13  -1  -6    5.83    2.07
 -13  -1  -3  906.38   11.20
 -13  -1   0   78.84    1.24
 -13  -1   3  177.36    3.16
 -13  -1   6    7.26    1.50
 -13  -1   9  473.76   17.04
 -13  -1  12   65.74    2.11
 -13  -1  15   66.61    2.40
 -13  -1  18    0.72    1.01
 -13  -1  21   30.12    1.35
 -13  -1  24    5.65    0.76
 -13  -1  27    0.53    0.91
 -13  -1  30    0.41    0.84
 -12 -12 -27    2.25    1.06
 -12 -12 -24    1.33    0.83
 -12 -12 -21    7.45    0.91
 -12 -12 -18   26.04    2.21
 -12 -12 -15   10.15    2.73
 -12 -12 -12   11.26    0.67
 -12 -12  -9    2.45    1.01
 -12 -12  -6   25.92    1.72
 -12 -12  -3   25.05    1.75
 -12 -12   0  122.19   11.15
 -12 -11 -28    1.34    1.06
 -12 -11 -25    1.08    0.86
 -12 -11 -22    2.91    0.76
 -12 -11 -19    4.13    2.65
 -12 -11 -16    3.87    2.48
 -12 -11 -13   10.21    0.54
 -12 -11 -10    0.46    0.48
 -12 -11  -7    6.62    0.97
 -12 -11  -4   22.30    1.84
 -12 -11  -1   42.06    2.03
 -12 -11   2   31.03    1.13
 -12 -11   5   42.16    1.25
 -12 -11   8   62.17    3.39
 -12 -11  11   56.19    1.85
 -12 -11  14    2.98    0.58
 -12 -11  17   12.30    1.76
 -12 -11  20   17.03    1.94
 -12 -11  23    0.90    0.84
 -12 -11  26    0.43    0.87
 -12 -11  29    0.88    1.12
 -12 -10 -29    0.01    1.16
 -12 -10 -26    0.24    0.82
 -12 -10 -23    7.33    0.92
 -12 -10 -20   12.75    2.13
 -12 -10 -17    4.59    0.71
 -12 -10 -14    2.81    0.47
 -12 -10 -11   13.12    1.04
 -12 -10  -8   73.92    4.28
 -12 -10  -5    0.11    1.35
 -12 -10  -2  318.86    8.16
 -12 -10   1   51.97    1.67
 -12 -10   4  245.44    9.92
 -12 -10   7   25.48    1.65
 -12 -10  10   65.09    2.46
 -12 -10  13    8.01    0.77
 -12 -10  16    1.45    0.58
 -12 -10  19    8.34    1.56
 -12 -10  22    1.37    0.89
 -12 -10  25    3.32    0.96
 -12 -10  28    0.87    0.87
 -12  -9 -27    1.29    0.84
 -12  -9 -24    2.36    0.73
 -12  -9 -21    2.63    1.73
 -12  -9 -18    6.98    1.39
 -12  -9 -15    9.23    2.41
 -12  -9 -12   20.95    0.91
 -12  -9  -9    1.93    1.37
 -12  -9  -6   39.51    3.28
 -12  -9  -3   23.25    1.35
 -12  -9   0  177.17    4.09
 -12  -9   3  216.52    3.64
 -12  -9   6   13.93    0.52
 -12  -9   9    9.15    1.51
 -12  -9  12    6.32    1.09
 -12  -9  15    7.41    0.62
 -12  -9  18   20.45    2.69
 -12  -9  21    3.90    1.05
 -12  -9  24    2.08    0.68
 -12  -9  27    0.73    0.98
 -12  -8 -28    1.59    0.90
 -12  -8 -25    6.34    0.80
 -12  -8 -22   27.70    2.85
 -12  -8 -19   20.44    2.01
 -12  -8 -16    7.33    1.32
 -12  -8 -13   14.77    1.56
 -12  -8 -10   10.29    0.65
 -12  -8  -7   55.51    1.45
 -12  -8  -4    8.25    1.18
 -12  -8  -1  170.81    7.45
 -12  -8   2   58.83    8.52
 -12  -8   5  407.46   12.22
 -12  -8   8   33.90    1.81
 -12  -8  11   19.81    0.67
 -12  -8  14   37.48    2.04
 -12  -8  17    9.70    0.93
 -12  -8  20    4.91    0.78
 -12  -8  23    1.68    0.79
 -12  -8  26    0.98    0.96
 -12  -8  29    0.26    0.81
 -12  -7 -29    0.70    1.26
 -12  -7 -26    3.27    0.68
 -12  -7 -23    0.66    0.67
 -12  -7 -20    1.66    0.99
 -12  -7 -17   18.23    3.07
 -12  -7 -14    6.18    0.89
 -12  -7 -11   16.52    0.87
 -12  -7  -8   47.79    1.92
 -12  -7  -5   19.96    0.95
 -12  -7  -2  151.83    5.36
 -12  -7   1    6.41    1.77
 -12  -7   4  133.16    2.33
 -12  -7   7  128.26    6.12
 -12  -7  10   69.97    2.08
 -12  -7  13   23.20    1.58
 -12  -7  16    7.00    0.99
 -12  -7  19    6.44    0.83
 -12  -7  22    5.94    0.88
 -12  -7  25    1.38    0.68
 -12  -7  28    0.95    0.84
 -12  -6 -30    0.91    1.18
 -12  -6 -27    0.66    0.66
 -12  -6 -24   21.32    1.40
 -12  -6 -21    0.57    1.23
 -12  -6 -18   32.97    2.26
 -12  -6 -15    9.45    0.79
 -12  -6 -12    5.31    1.06
 -12  -6  -9   93.21    5.20
 -12  -6  -6   20.10    1.33
 -12  -6  -3  227.86    8.85
 -12  -6   0  261.68    3.82
 -12  -6   3  226.03    7.62
 -12  -6   6   58.22    1.44
 -12  -6   9   52.02    1.96
 -12  -6  12    3.51    0.79
 -12  -6  15    1.54    0.55
 -12  -6  18    7.50    1.07
 -12  -6  21   13.85    1.48
 -12  -6  24    5.64    1.25
 -12  -6  27    0.33    0.87
 -12  -6  30    0.32    0.85
 -12  -5 -28    0.61    0.66
 -12  -5 -25    1.07    0.67
 -12  -5 -22   17.02    1.81
 -12  -5 -19    5.41    2.49
 -12  -5 -16    7.91    1.26
 -12  -5 -13   28.82    2.77
 -12  -5 -10    9.32    1.29
 -12  -5  -7    0.36    0.93
 -12  -5  -4  100.64    2.78
 -12  -5  -1   57.60    0.64
 -12  -5   2  204.22    4.82
 -12  -5   5  116.80    3.58
 -12  -5   8   88.10    4.79
 -12  -5  11   87.00    5.10
 -12  -5  14   16.23    2.06
 -12  -5  17   22.01    1.60
 -12  -5  20   10.24    2.90
 -12  -5  23    0.08    0.76
 -12  -5  26    0.42    0.69
 -12  -5  29    0.16    0.84
 -12  -4 -29    0.77    0.79
 -12  -4 -26    1.42    0.68
 -12  -4 -23    1.22    0.60
 -12  -4 -20    2.82    0.73
 -12  -4 -17    4.38    0.71
 -12  -4 -14    7.93    0.67
 -12  -4 -11   16.07    0.67
 -12  -4  -8  100.34    3.77
 -12  -4  -5  487.13    9.41
 -12  -4  -2    0.33    0.32
 -12  -4   1  484.70    9.57
 -12  -4   4  958.11   19.11
 -12  -4   7  184.16    4.54
 -12  -4  10   39.54    1.58
 -12  -4  13   19.65    1.71
 -12  -4  16    1.13    0.60
 -12  -4  19   11.32    1.65
 -12  -4  22    1.11    1.14
 -12  -4  25    2.39    0.70
 -12  -4  28    0.19    0.89
 -12  -4  31    0.10    1.13
 -12  -3 -30    0.23    0.74
 -12  -3 -27    0.34    0.67
 -12  -3 -24    3.53    0.65
 -12  -3 -21    1.78    0.90
 -12  -3 -18    3.23    1.26
 -12  -3 -15   15.16    1.33
 -12  -3 -12   19.75    1.51
 -12  -3  -9    4.19    0.62
 -12  -3  -6   26.65    0.73
 -12  -3  -3   17.58    0.43
 -12  -3   0  456.28    8.33
 -12  -3   3  114.44    2.69
 -12  -3   6  535.65   27.94
 -12  -3   9   44.49    1.53
 -12  -3  12  266.65    7.71
 -12  -3  15   20.30    2.59
 -12  -3  18   27.38    1.97
 -12  -3  21    9.16    0.87
 -12  -3  24    1.61    0.81
 -12  -3  27    1.07    0.90
 -12  -3  30    0.57    0.83
 -12  -2 -31    0.50    0.68
 -12  -2 -28    1.37    0.86
 -12  -2 -25    1.34    0.62
 -12  -2 -22    6.58    0.66
 -12  -2 -19    5.17    1.42
 -12  -2 -16    8.37    0.79
 -12  -2 -13  110.93    3.33
 -12  -2 -10   13.75    1.55
 -12  -2  -7   60.31    2.76
 -12  -2  -4  126.66    4.54
 -12  -2  -1   58.55    1.58
 -12  -2   2  781.49   10.73
 -12  -2   5    0.61    1.84
 -12  -2   8   18.76    5.13
 -12  -2  11   28.42    1.61
 -12  -2  14    1.86    0.69
 -12  -2  17    4.68    0.81
 -12  -2  20    6.67    1.28
 -12  -2  23    5.51    0.64
 -12  -2  26    2.05    1.06
 -12  -2  29    0.33    0.88
 -12  -1 -29    0.56    0.76
 -12  -1 -26    2.26    0.73
 -12  -1 -23    0.99    1.26
 -12  -1 -20    8.08    0.77
 -12  -1 -17    3.09    0.82
 -12  -1 -14  101.53    4.72
 -12  -1 -11  101.30    4.65
 -12  -1  -8  143.63    4.79
 -12  -1  -5   74.44    0.76
 -12  -1  -2   92.85    2.32
 -12  -1   1   21.83    0.61
 -12  -1   4  254.14   12.71
 -12  -1   7  134.48    4.03
 -12  -1  10  503.96   13.48
 -12  -1  13  133.42    4.04
 -12  -1  16    6.12    1.39
 -12  -1  19   26.01    2.37
 -12  -1  22   14.21    1.68
 -12  -1  25    3.66    0.76
 -12  -1  28    1.26    1.38
 -12  -1  31    0.77    0.67
 -11 -11 -27    0.81    0.84
 -11 -11 -24    0.22    0.69
 -11 -11 -21    9.26    1.68
 -11 -11 -18    7.58    3.00
 -11 -11 -15    1.87    0.66
 -11 -11 -12   23.26    1.52
 -11 -11  -9    0.95    1.02
 -11 -11  -6   39.57    2.60
 -11 -11  -3   22.70    2.30
 -11 -11   0   12.16    4.61
 -11 -10 -28    0.68    0.82
 -11 -10 -25    1.14    0.74
 -11 -10 -22    1.32    0.73
 -11 -10 -19    4.31    0.74
 -11 -10 -16    7.99    0.64
 -11 -10 -13   17.56    0.55
 -11 -10 -10   59.04    3.69
 -11 -10  -7  399.85    6.65
 -11 -10  -4   74.47    1.52
 -11 -10  -1  235.57    9.05
 -11 -10   2  171.79    6.32
 -11 -10   5  329.15   11.45
 -11 -10   8   24.84    1.97
 -11 -10  11   27.87    0.92
 -11 -10  14   23.92    1.64
 -11 -10  17    4.23    1.08
 -11 -10  20    4.44    0.75
 -11 -10  23    8.12    1.02
 -11 -10  26    0.21    0.86
 -11 -10  29    1.35    0.85
 -11  -9 -29    1.38    0.95
 -11  -9 -26    0.65    0.69
 -11  -9 -23    1.84    0.93
 -11  -9 -20    8.70    2.37
 -11  -9 -17   18.00    2.61
 -11  -9 -14   24.13    1.97
 -11  -9 -11   79.12    2.11
 -11  -9  -8   39.10    3.86
 -11  -9  -5   66.71    1.21
 -11  -9  -2    7.12    1.16
 -11  -9   1  409.54   10.87
 -11  -9   4   97.44    4.18
 -11  -9   7  126.54    2.65
 -11  -9  10  130.92    3.36
 -11  -9  13    6.46    1.03
 -11  -9  16   14.26    1.85
 -11  -9  19    5.75    0.89
 -11  -9  22    8.56    1.37
 -11  -9  25    0.25    0.69
 -11  -9  28    0.39    0.82
 -11  -8 -30    0.38    1.19
 -11  -8 -27    1.09    0.71
 -11  -8 -24    1.21    1.42
 -11  -8 -21    2.69    0.83
 -11  -8 -18   28.54    1.56
 -11  -8 -15    0.99    0.72
 -11  -8 -12   71.67    1.60
 -11  -8  -9   39.13    2.45
 -11  -8  -6   76.12    1.84
 -11  -8  -3   38.62    0.68
 -11  -8   0  801.45   17.20
 -11  -8   3  492.96   10.35
 -11  -8   6    5.50    1.61
 -11  -8   9   41.06    1.57
 -11  -8  12    4.53    1.13
 -11  -8  15    9.87    1.08
 -11  -8  18   13.93    1.92
 -11  -8  21    0.27    1.15
 -11  -8  24    0.25    0.69
 -11  -8  27    0.01    0.86
 -11  -8  30    0.21    1.13
 -11  -7 -28    2.32    0.87
 -11  -7 -25    4.59    0.89
 -11  -7 -22   20.52    1.38
 -11  -7 -19   24.81    2.21
 -11  -7 -16   10.30    0.97
 -11  -7 -13   92.47    2.71
 -11  -7 -10   36.64    0.98
 -11  -7  -7    2.92    3.00
 -11  -7  -4  179.91    4.37
 -11  -7  -1   63.25    2.06
 -11  -7   2  378.93    9.20
 -11  -7   5  224.50    8.71
 -11  -7   8  164.46    7.82
 -11  -7  11   79.71    3.42
 -11  -7  14   10.13    2.81
 -11  -7  17    2.91    0.64
 -11  -7  20    6.67    1.17
 -11  -7  23    1.71    1.39
 -11  -7  26    0.06    0.68
 -11  -7  29    0.99    0.81
 -11  -6 -29    0.49    0.73
 -11  -6 -26    0.03    0.68
 -11  -6 -23   11.48    1.40
 -11  -6 -20    1.82    0.92
 -11  -6 -17   11.34    0.70
 -11  -6 -14   47.08    2.27
 -11  -6 -11  124.06    7.44
 -11  -6  -8    3.82    1.75
 -11  -6  -5  187.94    5.06
 -11  -6  -2   41.65    1.94
 -11  -6   1   93.48    6.28
 -11  -6   4  129.13    2.77
 -11  -6   7   43.36    2.24
 -11  -6  10   38.27    2.74
 -11  -6  13    1.39    0.76
 -11  -6  16   35.94    2.19
 -11  -6  19   11.69    1.49
 -11  -6  22   10.05    3.34
 -11  -6  25    1.17    0.69
 -11  -6  28    0.17    0.92
 -11  -6  31    0.09    1.68
 -11  -5 -30    0.87    0.77
 -11  -5 -27    0.30    0.65
 -11  -5 -24    1.68    0.62
 -11  -5 -21    0.66    0.93
 -11  -5 -18    2.40    0.61
 -11  -5 -15   33.90    2.24
 -11  -5 -12    6.19    0.62
 -11  -5  -9   70.07    2.36
 -11  -5  -6   77.37    3.91
 -11  -5  -3  104.46    3.72
 -11  -5   0  156.10    8.21
 -11  -5   3  755.70   16.43
 -11  -5   6  135.01    4.93
 -11  -5   9   13.15    2.26
 -11  -5  12   23.44    1.42
 -11  -5  15   51.10    1.97
 -11  -5  18    8.39    1.97
 -11  -5  21   26.28    2.83
 -11  -5  24    4.05    0.65
 -11  -5  27    0.92    0.73
 -11  -5  30    0.08    0.86
 -11  -4 -31    0.15    1.14
 -11  -4 -28    1.76    0.70
 -11  -4 -25    2.30    0.65
 -11  -4 -22    3.94    0.60
 -11  -4 -19    3.23    0.72
 -11  -4 -16   16.10    1.36
 -11  -4 -13   28.93    2.00
 -11  -4 -10   17.61    1.29
 -11  -4  -7  138.00    2.75
 -11  -4  -4   52.33    0.68
 -11  -4  -1   21.37    0.43
 -11  -4   2   47.09    1.80
 -11  -4   5   16.98    1.00
 -11  -4   8   99.35    1.69
 -11  -4  11  113.67    2.80
 -11  -4  14   44.70    1.60
 -11  -4  17   13.97    3.37
 -11  -4  20   10.19    1.49
 -11  -4  23    0.15    0.69
 -11  -4  26    0.72    0.72
 -11  -4  29    0.23    0.85
 -11  -3 -29    0.62    0.79
 -11  -3 -26    0.03    0.64
 -11  -3 -23    3.91    0.77
 -11  -3 -20    9.69    0.73
 -11  -3 -17   45.95    1.75
 -11  -3 -14   23.91    2.19
 -11  -3 -11   88.65    5.18
 -11  -3  -8   85.05    5.42
 -11  -3  -5   30.18    1.49
 -11  -3  -2   61.49    0.60
 -11  -3   1   53.04    2.96
 -11  -3   4   93.76    1.56
 -11  -3   7   87.87    6.83
 -11  -3  10   60.80    1.29
 -11  -3  13    9.45    1.28
 -11  -3  16    5.80    0.48
 -11  -3  19   30.95    2.49
 -11  -3  22    0.55    0.70
 -11  -3  25    9.65    1.31
 -11  -3  28    0.28    0.88
 -11  -3  31    1.29    0.65
 -11  -2 -30    0.20    0.74
 -11  -2 -27    0.32    1.16
 -11  -2 -24    1.55    0.79
 -11  -2 -21    2.22    1.03
 -11  -2 -18    9.59    1.87
 -11  -2 -15   32.95    2.86
 -11  -2 -12   47.75    4.39
 -11  -2  -9   11.95    0.51
 -11  -2  -6  144.73    2.20
 -11  -2  -3   41.82    3.02
 -11  -2   0   94.94    5.83
 -11  -2   3  185.13    6.57
 -11  -2   6  247.13    9.75
 -11  -2   9  228.12    8.88
 -11  -2  12    5.04    0.60
 -11  -2  15   40.26    1.21
 -11  -2  18    9.66    0.62
 -11  -2  21    1.78    1.27
 -11  -2  24    2.41    0.67
 -11  -2  27    1.73    0.65
 -11  -2  30    0.31    0.62
 -11  -1 -31    0.10    0.68
 -11  -1 -28    6.39    0.85
 -11  -1 -25    4.24    1.21
 -11  -1 -22    2.12    1.27
 -11  -1 -19    4.17    1.28
 -11  -1 -16   45.99    5.46
 -11  -1 -13   41.60    2.37
 -11  -1 -10   21.59    1.26
 -11  -1  -7   11.72    1.00
 -11  -1  -4  122.70    2.74
 -11  -1  -1  403.55    8.50
 -11  -1   2   59.40    0.79
 -11  -1   5  438.68    6.54
 -11  -1   8  580.45   11.51
 -11  -1  11   63.79    1.40
 -11  -1  14    8.14    1.82
 -11  -1  17    8.38    1.26
 -11  -1  20    4.93    1.24
 -11  -1  23    7.66    0.71
 -11  -1  26    1.63    0.71
 -11  -1  29    0.22    0.88
 -10 -10 -30    0.15    1.13
 -10 -10 -27    0.83    0.94
 -10 -10 -24   11.76    2.26
 -10 -10 -21    1.09    0.81
 -10 -10 -18   11.51    1.03
 -10 -10 -15   31.27    3.45
 -10 -10 -12  111.68    2.80
 -10 -10  -9   49.89    2.11
 -10 -10  -6  281.95    6.60
 -10 -10  -3   41.04    3.08
 -10 -10   0   47.85    2.33
 -10  -9 -28    0.57    0.87
 -10  -9 -25    0.26    0.66
 -10  -9 -22    1.07    0.78
 -10  -9 -19   32.73    2.55
 -10  -9 -16    0.27    1.29
 -10  -9 -13   33.15    1.34
 -10  -9 -10   24.41    1.47
 -10  -9  -7   68.42    1.43
 -10  -9  -4   48.06    2.07
 -10  -9  -1  158.40    5.66
 -10  -9   2    3.66    1.19
 -10  -9   5    8.40    1.25
 -10  -9   8  152.35    4.19
 -10  -9  11   23.60    2.71
 -10  -9  14    4.87    0.49
 -10  -9  17    1.87    0.61
 -10  -9  20    0.63    0.77
 -10  -9  23    5.75    1.09
 -10  -9  26    1.45    0.70
 -10  -9  29    0.08    0.77
 -10  -8 -29    2.01    0.82
 -10  -8 -26    0.83    0.82
 -10  -8 -23    0.77    0.68
 -10  -8 -20   16.39    2.21
 -10  -8 -17    5.20    1.72
 -10  -8 -14   30.37    1.46
 -10  -8 -11    1.51    1.39
 -10  -8  -8  145.36    4.70
 -10  -8  -5    5.86    0.60
 -10  -8  -2  113.27    1.43
 -10  -8   1   54.54    5.79
 -10  -8   4    9.04    1.95
 -10  -8   7   45.52    5.84
 -10  -8  10    3.81    1.19
 -10  -8  13   13.05    1.84
 -10  -8  16   19.67    1.99
 -10  -8  19    0.50    0.83
 -10  -8  22    5.49    0.86
 -10  -8  25    1.53    0.84
 -10  -8  28    0.27    0.85
 -10  -7 -30    2.26    0.94
 -10  -7 -27    0.94    0.71
 -10  -7 -24    1.60    0.67
 -10  -7 -21   16.48    1.91
 -10  -7 -18   25.46    1.27
 -10  -7 -15    1.31    0.96
 -10  -7 -12    4.47    1.17
 -10  -7  -9  242.85    8.91
 -10  -7  -6  133.05    4.70
 -10  -7  -3   26.17    1.82
 -10  -7   0  745.84   13.74
 -10  -7   3  175.64    3.55
 -10  -7   6   16.93    2.78
 -10  -7   9  195.45    8.87
 -10  -7  12   49.53    1.54
 -10  -7  15    4.68    2.98
 -10  -7  18   12.98    1.31
 -10  -7  21    0.58    0.74
 -10  -7  24    0.88    1.68
 -10  -7  27    4.82    0.93
 -10  -7  30    0.67    0.81
 -10  -6 -31    0.43    1.17
 -10  -6 -28    1.26    0.67
 -10  -6 -25    1.24    0.69
 -10  -6 -22   20.58    1.98
 -10  -6 -19    4.05    0.95
 -10  -6 -16   32.18    1.43
 -10  -6 -13   48.36    1.87
 -10  -6 -10   97.82    2.32
 -10  -6  -7   18.35    2.63
 -10  -6  -4   60.59    1.48
 -10  -6  -1  736.72   21.49
 -10  -6   2  622.24   10.32
 -10  -6   5   93.68    2.96
 -10  -6   8   13.27    3.14
 -10  -6  11  100.43    3.52
 -10  -6  14    3.36    1.19
 -10  -6  17   18.26    1.12
 -10  -6  20    3.82    1.34
 -10  -6  23    5.43    1.43
 -10  -6  26    0.08    0.70
 -10  -6  29    3.15    0.89
 -10  -5 -29    0.06    0.81
 -10  -5 -26    0.79    0.72
 -10  -5 -23    1.94    0.62
 -10  -5 -20   11.36    1.13
 -10  -5 -17    5.57    0.90
 -10  -5 -14    1.26    0.84
 -10  -5 -11   91.50    2.98
 -10  -5  -8   13.32    2.62
 -10  -5  -5   27.15    1.00
 -10  -5  -2   21.02    7.39
 -10  -5   1   78.87    5.29
 -10  -5   4  505.91   13.29
 -10  -5   7  157.25    6.76
 -10  -5  10   21.79    2.90
 -10  -5  13   17.51    1.59
 -10  -5  16   16.31    2.17
 -10  -5  19    2.92    1.76
 -10  -5  22    2.25    2.64
 -10  -5  25    3.12    1.09
 -10  -5  28    2.12    0.75
 -10  -5  31    0.01    1.12
 -10  -4 -30    0.91    0.86
 -10  -4 -27    0.22    0.74
 -10  -4 -24    0.29    0.62
 -10  -4 -21    6.49    0.95
 -10  -4 -18    1.04    1.50
 -10  -4 -15   23.10    1.61
 -10  -4 -12   98.40    2.30
 -10  -4  -9  167.51    3.57
 -10  -4  -6  300.64    7.19
 -10  -4  -3  280.89    4.13
 -10  -4   0  281.01    6.34
 -10  -4   3   34.66    1.27
 -10  -4   6   30.25    1.60
 -10  -4   9   17.59    2.28
 -10  -4  12   63.52    3.87
 -10  -4  15   47.22    2.25
 -10  -4  18    5.23    1.22
 -10  -4  21    3.83    1.09
 -10  -4  24    8.34    1.09
 -10  -4  27    0.22    0.77
 -10  -4  30    0.80    0.81
 -10  -3 -31    0.27    0.72
 -10  -3 -28    6.45    1.12
 -10  -3 -25    3.71    0.95
 -10  -3 -22    0.79    1.01
 -10  -3 -19    7.36    0.80
 -10  -3 -16  107.48    4.21
 -10  -3 -13    3.07    0.98
 -10  -3 -10  202.82    5.99
 -10  -3  -7  164.46    1.58
 -10  -3  -4  113.53    5.59
 -10  -3  -1  206.00    1.78
 -10  -3   2   66.72    2.57
 -10  -3   5   51.51    6.33
 -10  -3   8  456.96   28.19
 -10  -3  11  127.65    5.48
 -10  -3  14    2.82    0.47
 -10  -3  17   16.25    1.29
 -10  -3  20   21.78    1.56
 -10  -3  23   11.72    1.75
 -10  -3  26    6.11    0.79
 -10  -3  29    0.54    0.86
 -10  -2 -29    1.14    0.87
 -10  -2 -26    3.62    1.13
 -10  -2 -23    3.57    0.65
 -10  -2 -20   10.66    0.92
 -10  -2 -17   21.99    1.63
 -10  -2 -14   22.86    1.86
 -10  -2 -11   31.93    7.55
 -10  -2  -8   72.62    5.38
 -10  -2  -5   45.62    1.92
 -10  -2  -2  365.19    6.34
 -10  -2   1  457.99   17.44
 -10  -2   4  408.37    9.41
 -10  -2   7  186.92    4.54
 -10  -2  10  159.92    6.93
 -10  -2  13   24.50    2.08
 -10  -2  16    4.41    1.13
 -10  -2  19    8.66    0.93
 -10  -2  22    1.82    0.61
 -10  -2  25    2.64    1.49
 -10  -2  28    1.00    0.70
 -10  -2  31    0.99    0.66
 -10  -1 -30    0.99    0.80
 -10  -1 -27    1.46    0.62
 -10  -1 -24    2.06    1.28
 -10  -1 -21    8.83    1.10
 -10  -1 -18   22.66    1.49
 -10  -1 -15    8.23    1.72
 -10  -1 -12   10.24    2.22
 -10  -1  -9  154.59    4.46
 -10  -1  -6   31.05    1.06
 -10  -1  -3   34.13    1.81
 -10  -1   0   26.73    1.23
 -10  -1   3  572.01   12.54
 -10  -1   6   28.99    2.00
 -10  -1   9   14.97    2.53
 -10  -1  12   44.63    2.33
 -10  -1  15    1.15    0.94
 -10  -1  18    1.39    0.48
 -10  -1  21   12.06    0.95
 -10  -1  24    2.13    0.87
 -10  -1  27    1.96    0.99
 -10  -1  30    0.79    0.69
  -9  -9 -30    1.02    0.87
  -9  -9 -27    3.70    0.78
  -9  -9 -24    5.38    0.87
  -9  -9 -21   12.83    2.23
  -9  -9 -18    0.56    0.61
  -9  -9 -15   11.73    0.71
  -9  -9 -12    7.30    1.30
  -9  -9  -9   25.53    2.40
  -9  -9  -6   17.62    1.85
  -9  -9  -3  475.02    7.87
  -9  -9   0    8.41    3.53
  -9  -8 -31    1.28    1.39
  -9  -8 -28    0.49    0.67
  -9  -8 -25    0.45    0.66
  -9  -8 -22   12.85    2.22
  -9  -8 -19   10.63    0.71
  -9  -8 -16    3.79    2.24
  -9  -8 -13   10.60    1.25
  -9  -8 -10   40.70    2.87
  -9  -8  -7    5.17    0.92
  -9  -8  -4   11.98    0.42
  -9  -8  -1   10.10    1.70
  -9  -8   2   29.95    1.06
  -9  -8   5  183.72    6.95
  -9  -8   8  141.26    5.86
  -9  -8  11   13.01    1.23
  -9  -8  14   37.76    4.27
  -9  -8  17   12.33    1.19
  -9  -8  20   46.09    2.45
  -9  -8  23    2.49    0.66
  -9  -8  26    0.89    0.79
  -9  -8  29    0.29    0.81
  -9  -7 -29    2.04    0.64
  -9  -7 -26    0.88    0.66
  -9  -7 -23    1.22    0.63
  -9  -7 -20   11.39    0.72
  -9  -7 -17   13.17    1.67
  -9  -7 -14   41.64    3.21
  -9  -7 -11  157.52    6.41
  -9  -7  -8    9.10    1.54
  -9  -7  -5  113.23    3.71
  -9  -7  -2  236.08    6.87
  -9  -7   1  725.08    9.34
  -9  -7   4  304.04   13.18
  -9  -7   7  107.04    3.24
  -9  -7  10  160.01   10.33
  -9  -7  13   28.23    3.40
  -9  -7  16   12.76    1.45
  -9  -7  19    5.14    0.75
  -9  -7  22   11.15    0.81
  -9  -7  25    2.25    0.65
  -9  -7  28    0.15    0.67
  -9  -7  31    0.00    1.17
  -9  -6 -30    1.93    0.59
  -9  -6 -27    0.63    0.69
  -9  -6 -24    0.33    0.68
  -9  -6 -21    7.22    1.02
  -9  -6 -18   19.11    1.02
  -9  -6 -15   67.64    3.51
  -9  -6 -12  148.42    3.50
  -9  -6  -9   12.35    1.02
  -9  -6  -6   69.21    5.58
  -9  -6  -3  204.83    5.81
  -9  -6   0  296.20   15.57
  -9  -6   3  157.24    2.28
  -9  -6   6    7.76    0.81
  -9  -6   9   74.41    2.82
  -9  -6  12   90.66    2.49
  -9  -6  15   12.16    0.98
  -9  -6  18   29.52    2.96
  -9  -6  21    1.17    1.18
  -9  -6  24    6.50    1.13
  -9  -6  27    1.61    0.68
  -9  -6  30    0.86    0.78
  -9  -5 -31    0.05    1.14
  -9  -5 -28    1.03    0.75
  -9  -5 -25    1.73    0.68
  -9  -5 -22    0.20    0.70
  -9  -5 -19    0.61    0.69
  -9  -5 -16    5.01    2.21
  -9  -5 -13    9.49    0.71
  -9  -5 -10   18.07    0.75
  -9  -5  -7   80.39    3.69
  -9  -5  -4   73.46    0.60
  -9  -5  -1  492.84    5.92
  -9  -5   2   83.41    2.00
  -9  -5   5   67.65    0.80
  -9  -5   8   33.18    5.37
  -9  -5  11  109.05    5.67
  -9  -5  14   34.12    1.08
  -9  -5  17   15.44    1.07
  -9  -5  20    6.53    0.66
  -9  -5  23    6.54    1.20
  -9  -5  26    0.56    0.76
  -9  -5  29    0.17    0.90
  -9  -4 -29    0.67    0.62
  -9  -4 -26    4.18    0.80
  -9  -4 -23    0.22    0.60
  -9  -4 -20    4.75    1.44
  -9  -4 -17   30.30    4.00
  -9  -4 -14   38.59    1.21
  -9  -4 -11   36.65    2.33
  -9  -4  -8  272.08    9.67
  -9  -4  -5    2.39    0.87
  -9  -4  -2   35.38    2.88
  -9  -4   1  483.47   13.23
  -9  -4   4  101.58    4.67
  -9  -4   7  198.88    4.72
  -9  -4  10   17.64    1.68
  -9  -4  13   49.21    1.35
  -9  -4  16    0.53    0.69
  -9  -4  19   12.02    1.72
  -9  -4  22   10.91    1.58
  -9  -4  25    1.28    0.68
  -9  -4  28    1.21    0.70
  -9  -4  31    0.40    0.60
  -9  -3 -30    0.92    0.74
  -9  -3 -27    0.68    0.64
  -9  -3 -24    2.19    2.59
  -9  -3 -21    3.66    0.93
  -9  -3 -18   21.20    1.68
  -9  -3 -15   11.48    1.02
  -9  -3 -12   34.71    2.46
  -9  -3  -9  190.80    4.63
  -9  -3  -6  173.35    4.01
  -9  -3  -3  217.16    8.14
  -9  -3   0   63.96    6.20
  -9  -3   3  228.65    2.66
  -9  -3   6  411.34   10.77
  -9  -3   9   48.31    7.92
  -9  -3  12   18.18    2.39
  -9  -3  15   36.51    2.05
  -9  -3  18    7.46    0.62
  -9  -3  21    4.10    0.78
  -9  -3  24    2.38    0.67
  -9  -3  27    2.07    1.58
  -9  -3  30    0.38    0.63
  -9  -2 -31    0.89    0.71
  -9  -2 -28    0.62    0.63
  -9  -2 -25    1.45    0.66
  -9  -2 -22    3.57    0.86
  -9  -2 -19   12.54    1.84
  -9  -2 -16   25.62    3.15
  -9  -2 -13   30.58    1.45
  -9  -2 -10  230.19    8.81
  -9  -2  -7  359.64    5.86
  -9  -2  -4  396.16    9.74
  -9  -2  -1  292.17   23.60
  -9  -2   2  291.31    9.15
  -9  -2   5  515.22    9.60
  -9  -2   8   20.86    2.17
  -9  -2  11    5.12    1.16
  -9  -2  14   29.34    0.99
  -9  -2  17    5.56    1.22
  -9  -2  20   24.24    1.24
  -9  -2  23    1.96    0.69
  -9  -2  26    2.66    0.65
  -9  -2  29    0.15    0.65
  -9  -1 -32    0.73    0.83
  -9  -1 -29    0.16    0.78
  -9  -1 -26    7.32    1.00
  -9  -1 -23    0.55    0.61
  -9  -1 -20   13.57    1.50
  -9  -1 -17    0.02    0.97
  -9  -1 -14   51.99    1.87
  -9  -1 -11   83.24    4.68
  -9  -1  -8  261.07    3.64
  -9  -1  -5   99.81    2.54
  -9  -1  -2  114.52    4.02
  -9  -1   1  518.92    6.66
  -9  -1   4  100.12    5.90
  -9  -1   7  178.87    7.41
  -9  -1  10   29.76    2.21
  -9  -1  13  146.89   15.87
  -9  -1  16   14.48    1.00
  -9  -1  19    3.84    0.91
  -9  -1  22    1.80    0.79
  -9  -1  25    0.25    0.75
  -9  -1  28    2.32    0.82
  -9  -1  31    1.07    0.66
  -8  -8 -30    0.27    0.58
  -8  -8 -27    7.27    1.41
  -8  -8 -24    3.03    0.74
  -8  -8 -21   14.69    1.05
  -8  -8 -18    4.38    1.07
  -8  -8 -15   13.32    3.20
  -8  -8 -12   22.88    4.47
  -8  -8  -9   33.05    2.59
  -8  -8  -6  714.94   19.62
  -8  -8  -3  758.62   16.80
  -8  -8   0  501.00   28.67
  -8  -7 -31    0.02    1.20
  -8  -7 -28    3.46    0.90
  -8  -7 -25    1.43    0.74
  -8  -7 -22   14.17    1.56
  -8  -7 -19    9.54    0.88
  -8  -7 -16   10.29    1.00
  -8  -7 -13    6.50    1.30
  -8  -7 -10  235.43    6.30
  -8  -7  -7  154.89    7.01
  -8  -7  -4  234.25    4.62
  -8  -7  -1  795.97   19.44
  -8  -7   2  391.12    6.02
  -8  -7   5  514.82    8.09
  -8  -7   8    5.85    3.05
  -8  -7  11  414.94   14.96
  -8  -7  14   18.15    1.93
  -8  -7  17   46.71    1.40
  -8  -7  20    4.70    0.83
  -8  -7  23   18.18    1.97
  -8  -7  26    0.72    0.79
  -8  -7  29    2.39    0.67
  -8  -6 -29    0.22    0.78
  -8  -6 -26   10.62    1.18
  -8  -6 -23    3.91    1.18
  -8  -6 -20   13.23    1.05
  -8  -6 -17    0.95    1.14
  -8  -6 -14  116.10    3.73
  -8  -6 -11  189.96    4.93
  -8  -6  -8  248.97    5.10
  -8  -6  -5   51.81    1.60
  -8  -6  -2   24.65    5.61
  -8  -6   1  227.86    2.90
  -8  -6   4  112.31    2.70
  -8  -6   7  125.29    6.35
  -8  -6  10   16.29    1.54
  -8  -6  13   22.62    3.47
  -8  -6  16    9.19    1.14
  -8  -6  19   18.78    1.23
  -8  -6  22    1.36    0.79
  -8  -6  25    4.66    0.64
  -8  -6  28    0.65    0.75
  -8  -6  31    0.12    0.99
  -8  -5 -30    0.29    0.86
  -8  -5 -27    3.18    0.66
  -8  -5 -24    4.26    0.70
  -8  -5 -21    1.29    0.65
  -8  -5 -18    0.07    0.95
  -8  -5 -15   52.97    3.36
  -8  -5 -12  146.33    3.38
  -8  -5  -9   10.30    1.58
  -8  -5  -6  444.43    6.51
  -8  -5  -3   76.28   12.34
  -8  -5   0  211.51    7.76
  -8  -5   3   30.50    1.19
  -8  -5   6   29.84    1.48
  -8  -5   9  239.99    6.53
  -8  -5  12  256.80    5.32
  -8  -5  15   44.05    2.21
  -8  -5  18   26.06    2.76
  -8  -5  21   10.92    1.41
  -8  -5  24    3.13    0.65
  -8  -5  27    1.59    0.69
  -8  -5  30    1.34    0.87
  -8  -4 -31    0.19    0.71
  -8  -4 -28    1.79    0.98
  -8  -4 -25    2.51    1.10
  -8  -4 -22    1.82    0.65
  -8  -4 -19    0.54    1.43
  -8  -4 -16    8.82    3.03
  -8  -4 -13   26.85    1.62
  -8  -4 -10  411.28   19.11
  -8  -4  -7  418.19   16.53
  -8  -4  -4  791.50   14.79
  -8  -4  -1  205.16    5.34
  -8  -4   2   64.35    2.93
  -8  -4   5  142.06    3.12
  -8  -4   8   20.82    2.92
  -8  -4  11   23.80    2.22
  -8  -4  14    5.79    0.73
  -8  -4  17   32.46    1.40
  -8  -4  20   20.08    1.38
  -8  -4  23    1.94    0.94
  -8  -4  26    0.91    1.02
  -8  -4  29    0.72    0.64
  -8  -3 -32    0.09    1.31
  -8  -3 -29    1.28    0.65
  -8  -3 -26    0.68    0.64
  -8  -3 -23    0.33    0.60
  -8  -3 -20    1.09    1.12
  -8  -3 -17    4.77    0.91
  -8  -3 -14   16.23    0.77
  -8  -3 -11  242.89    7.46
  -8  -3  -8  163.20    5.50
  -8  -3  -5  881.79   22.08
  -8  -3  -2  396.89   15.09
  -8  -3   1  726.43   22.26
  -8  -3   4  377.15    9.27
  -8  -3   7   39.28    1.21
  -8  -3  10  236.12   10.01
  -8  -3  13    8.85    1.15
  -8  -3  16    4.34    0.57
  -8  -3  19    2.77    0.48
  -8  -3  22    4.01    0.65
  -8  -3  25    3.22    1.26
  -8  -3  28    0.38    0.69
  -8  -3  31    0.01    0.58
  -8  -2 -30    0.46    0.76
  -8  -2 -27    3.48    0.66
  -8  -2 -24    5.53    1.66
  -8  -2 -21    0.03    0.80
  -8  -2 -18   15.72    0.87
  -8  -2 -15    4.98    1.36
  -8  -2 -12  273.57   12.67
  -8  -2  -9  253.36    5.82
  -8  -2  -6  637.27   15.09
  -8  -2  -3  374.73   12.33
  -8  -2   0   70.40    0.81
  -8  -2   3  466.21   10.96
  -8  -2   6  397.01    4.81
  -8  -2   9   39.72    2.50
  -8  -2  12  142.42    4.11
  -8  -2  15    6.18    1.38
  -8  -2  18   20.55    1.06
  -8  -2  21    4.23    1.71
  -8  -2  24    1.66    0.69
  -8  -2  27    0.20    0.68
  -8  -2  30    0.11    0.65
  -8  -1 -31    0.01    0.72
  -8  -1 -28    3.60    0.62
  -8  -1 -25    6.59    1.47
  -8  -1 -22    2.57    1.18
  -8  -1 -19   18.59    1.77
  -8  -1 -16   59.99    1.74
  -8  -1 -13   62.28    2.10
  -8  -1 -10   73.55    3.48
  -8  -1  -7  506.52   12.03
  -8  -1  -4 1239.32   22.60
  -8  -1  -1  473.96    3.39
  -8  -1   2   33.96    3.16
  -8  -1   5  121.37    2.62
  -8  -1   8   62.84    6.63
  -8  -1  11   19.66    1.22
  -8  -1  14   45.82    1.76
  -8  -1  17   10.71    0.94
  -8  -1  20    1.72    0.79
  -8  -1  23    8.04    0.73
  -8  -1  26    2.11    0.68
  -8  -1  29    0.15    0.69
  -7  -7 -30    0.39    0.58
  -7  -7 -27    1.42    0.66
  -7  -7 -24   12.72    1.22
  -7  -7 -21    6.11    1.94
  -7  -7 -18   61.40    2.73
  -7  -7 -15  109.43    4.41
  -7  -7 -12   10.32    1.76
  -7  -7  -9  234.37    6.22
  -7  -7  -6   66.42    2.31
  -7  -7  -3   48.69    0.97
  -7  -7   0  154.38    6.76
  -7  -6 -31    1.47    1.20
  -7  -6 -28    0.88    0.67
  -7  -6 -25    2.04    0.74
  -7  -6 -22    2.78    0.93
  -7  -6 -19   22.58    1.50
  -7  -6 -16    3.70    0.58
  -7  -6 -13  250.85    6.99
  -7  -6 -10   72.37    2.20
  -7  -6  -7  545.62   18.57
  -7  -6  -4  151.02    1.31
  -7  -6  -1    2.66    2.41
  -7  -6   2  218.57   14.10
  -7  -6   5 1790.11   21.31
  -7  -6   8    3.71    1.55
  -7  -6  11  317.25    7.84
  -7  -6  14    0.79    0.57
  -7  -6  17   44.61    1.60
  -7  -6  20    0.77    0.82
  -7  -6  23   18.40    1.07
  -7  -6  26    2.08    0.84
  -7  -6  29    2.13    0.70
  -7  -5 -29    0.11    0.65
  -7  -5 -26    0.52    0.65
  -7  -5 -23    2.47    0.74
  -7  -5 -20   31.49    1.53
  -7  -5 -17   27.40    3.29
  -7  -5 -14   62.67    2.15
  -7  -5 -11   96.34    5.71
  -7  -5  -8   96.70    1.31
  -7  -5  -5    7.18    0.60
  -7  -5  -2   51.42    4.74
  -7  -5   1  145.65    9.13
  -7  -5   4  212.64    1.97
  -7  -5   7   96.02    3.51
  -7  -5  10  447.09    9.76
  -7  -5  13  168.52    6.85
  -7  -5  16   47.76    2.39
  -7  -5  19   19.08    1.46
  -7  -5  22    2.08    0.56
  -7  -5  25    3.69    0.74
  -7  -5  28    0.18    0.80
  -7  -5  31    0.42    0.57
  -7  -4 -30    2.44    0.66
  -7  -4 -27    0.49    0.63
  -7  -4 -24    4.87    0.64
  -7  -4 -21    6.35    0.68
  -7  -4 -18    0.62    0.55
  -7  -4 -15   21.81    1.86
  -7  -4 -12   35.13    1.19
  -7  -4  -9  620.20   14.24
  -7  -4  -6   99.71    1.82
  -7  -4  -3   15.42    1.12
  -7  -4   0  196.35    7.52
  -7  -4   3  372.54    8.61
  -7  -4   6  171.77    7.08
  -7  -4   9  856.14   19.92
  -7  -4  12   60.15    3.85
  -7  -4  15   75.20    3.11
  -7  -4  18    0.16    0.49
  -7  -4  21    4.88    1.40
  -7  -4  24    1.24    0.66
  -7  -4  27    2.54    0.69
  -7  -4  30    0.33    0.54
  -7  -3 -31    0.16    0.69
  -7  -3 -28    0.30    0.63
  -7  -3 -25    5.83    1.21
  -7  -3 -22   12.63    1.67
  -7  -3 -19    3.71    1.39
  -7  -3 -16    2.80    0.54
  -7  -3 -13   13.12    1.90
  -7  -3 -10  205.20    4.42
  -7  -3  -7   65.84    1.49
  -7  -3  -4   72.79    1.76
  -7  -3  -1  511.83   24.41
  -7  -3   2  285.45   21.08
  -7  -3   5  285.80   16.45
  -7  -3   8  135.88    2.63
  -7  -3  11   46.81    3.51
  -7  -3  14  110.33    3.57
  -7  -3  17   15.25    1.25
  -7  -3  20    1.53    0.59
  -7  -3  23   14.94    1.85
  -7  -3  26    0.29    1.12
  -7  -3  29    0.30    0.65
  -7  -3  32    1.86    1.38
  -7  -2 -32    0.60    0.66
  -7  -2 -29    1.61    0.73
  -7  -2 -26    5.06    0.79
  -7  -2 -23    0.86    0.56
  -7  -2 -20   23.48    0.86
  -7  -2 -17    3.32    1.51
  -7  -2 -14  115.73    4.33
  -7  -2 -11   41.09    1.68
  -7  -2  -8  322.22    7.99
  -7  -2  -5   37.35    2.38
  -7  -2  -2  150.45    6.67
  -7  -2   1  790.61   11.95
  -7  -2   4 1179.26   52.23
  -7  -2   7  219.65    5.01
  -7  -2  10  505.53    8.82
  -7  -2  13  192.45    5.04
  -7  -2  16   84.64    3.12
  -7  -2  19   14.73    1.38
  -7  -2  22   13.01    1.41
  -7  -2  25   18.72    1.36
  -7  -2  28    0.73    0.67
  -7  -2  31    0.16    0.57
  -7  -1 -30    0.11    0.75
  -7  -1 -27    0.56    0.66
  -7  -1 -24    1.07    1.13
  -7  -1 -21    1.90    0.50
  -7  -1 -18   15.86    0.60
  -7  -1 -15    2.28    1.03
  -7  -1 -12    4.23    0.63
  -7  -1  -9   37.81    1.83
  -7  -1  -6   12.72    1.88
  -7  -1  -3  190.27    4.42
  -7  -1   0  140.11    1.43
  -7  -1   3   22.05    2.15
  -7  -1   6  198.53    3.69
  -7  -1   9  131.80    3.28
  -7  -1  12    7.50    1.20
  -7  -1  15   70.24    2.33
  -7  -1  18    7.07    0.70
  -7  -1  21    7.50    1.21
  -7  -1  24    3.55    0.57
  -7  -1  27    0.92    1.08
  -7  -1  30    0.05    0.53
  -6  -6 -30    0.39    0.51
  -6  -6 -27    1.17    0.76
  -6  -6 -24    2.24    0.93
  -6  -6 -21   19.66    1.01
  -6  -6 -18   15.43    1.29
  -6  -6 -15   38.96    1.74
  -6  -6 -12  166.58    6.04
  -6  -6  -9    3.51    2.44
  -6  -6  -6  686.68   13.93
  -6  -6  -3  450.42   14.05
  -6  -6   0  330.62    7.51
  -6  -5 -31    0.80    0.62
  -6  -5 -28    0.03    0.99
  -6  -5 -25    2.63    0.74
  -6  -5 -22    2.07    0.93
  -6  -5 -19    0.07    1.33
  -6  -5 -16   15.78    1.74
  -6  -5 -13  197.93    4.96
  -6  -5 -10  187.62    5.66
  -6  -5  -7  197.84    3.06
  -6  -5  -4  454.38   33.29
  -6  -5  -1  443.35   17.26
  -6  -5   2  153.68   10.81
  -6  -5   5   81.78    5.87
  -6  -5   8  982.92   27.77
  -6  -5  11   25.58    1.37
  -6  -5  14   49.53    1.25
  -6  -5  17    1.18    1.76
  -6  -5  20    3.74    1.15
  -6  -5  23    0.42    0.83
  -6  -5  26    2.77    0.68
  -6  -5  29    0.26    0.68
  -6  -5  32    0.76    1.38
  -6  -4 -32    0.60    1.11
  -6  -4 -29    0.17    0.58
  -6  -4 -26    1.06    0.74
  -6  -4 -23   18.71    1.43
  -6  -4 -20    3.25    0.78
  -6  -4 -17    3.71    1.21
  -6  -4 -14   65.81    2.77
  -6  -4 -11   49.23    1.75
  -6  -4  -8  263.57    7.65
  -6  -4  -5  515.21   28.69
  -6  -4  -2  405.83   10.43
  -6  -4   1 1709.19   71.65
  -6  -4   4  491.78   12.21
  -6  -4   7  191.63    8.88
  -6  -4  10  150.51    6.07
  -6  -4  13   22.07    3.69
  -6  -4  16    0.67    1.13
  -6  -4  19    0.04    0.82
  -6  -4  22    4.00    0.99
  -6  -4  25    2.20    1.04
  -6  -4  28    1.46    0.66
  -6  -4  31    3.87    1.18
  -6  -3 -30    4.42    0.70
  -6  -3 -27    1.19    0.91
  -6  -3 -24    5.22    0.73
  -6  -3 -21    1.18    0.75
  -6  -3 -18    5.69    0.91
  -6  -3 -15    4.32    1.87
  -6  -3 -12  169.52    2.99
  -6  -3  -9  119.50    5.39
  -6  -3  -6  154.33    6.75
  -6  -3  -3   31.33    1.84
  -6  -3   0  999.81   21.75
  -6  -3   3  211.44    6.76
  -6  -3   6  385.05    6.98
  -6  -3   9  285.15    3.44
  -6  -3  12   12.26    2.77
  -6  -3  15   33.28    1.56
  -6  -3  18    0.44    0.63
  -6  -3  21   25.01    0.91
  -6  -3  24    0.37    0.98
  -6  -3  27    6.46    1.61
  -6  -3  30    0.17    0.53
  -6  -2 -31    1.34    0.74
  -6  -2 -28    0.34    0.62
  -6  -2 -25    3.98    0.73
  -6  -2 -22   17.06    1.20
  -6  -2 -19   13.51    1.12
  -6  -2 -16    1.13    0.61
  -6  -2 -13   44.40    3.82
  -6  -2 -10  157.10    6.01
  -6  -2  -7   62.33    1.51
  -6  -2  -4  213.01    1.21
  -6  -2  -1  147.76   13.90
  -6  -2   2    1.72    0.55
  -6  -2   5 1244.30   28.56
  -6  -2   8  261.39    7.62
  -6  -2  11  153.03    3.67
  -6  -2  14   50.18    3.01
  -6  -2  17   33.41    1.08
  -6  -2  20    2.40    0.48
  -6  -2  23    4.19    1.46
  -6  -2  26    2.00    1.24
  -6  -2  29    0.43    0.58
  -6  -2  32    0.12    1.09
  -6  -1 -32    0.10    0.67
  -6  -1 -29    0.47    0.64
  -6  -1 -26    5.07    1.02
  -6  -1 -23   37.01    1.82
  -6  -1 -20    0.51    0.69
  -6  -1 -17   10.92    0.68
  -6  -1 -14   24.01    2.12
  -6  -1 -11   41.08    3.52
  -6  -1  -8  318.53   11.46
  -6  -1  -5  472.49    6.11
  -6  -1  -2 2031.87   51.12
  -6  -1   1   75.48    5.52
  -6  -1   4   71.24    2.25
  -6  -1   7   78.60    3.20
  -6  -1  10  220.77    6.57
  -6  -1  13    5.53    0.77
  -6  -1  16  153.97    4.44
  -6  -1  19    2.83    1.09
  -6  -1  22   13.09    1.26
  -6  -1  25    8.67    1.44
  -6  -1  28    2.10    0.75
  -6  -1  31    0.48    0.60
  -5  -5 -30    0.15    0.51
  -5  -5 -27    1.71    2.53
  -5  -5 -24   10.28    1.08
  -5  -5 -21    5.41    0.59
  -5  -5 -18    4.71    0.99
  -5  -5 -15   40.59    1.58
  -5  -5 -12   53.00    2.02
  -5  -5  -9   66.24    1.49
  -5  -5  -6  182.36    5.70
  -5  -5  -3  158.29   12.23
  -5  -5   0  225.89    1.82
  -5  -4 -31    0.96    0.63
  -5  -4 -28    0.01    0.65
  -5  -4 -25    2.45    1.12
  -5  -4 -22    9.14    1.49
  -5  -4 -19    2.80    1.29
  -5  -4 -16    0.01    0.64
  -5  -4 -13   78.91    2.05
  -5  -4 -10  278.28    8.72
  -5  -4  -7  213.47    2.28
  -5  -4  -4  415.21    5.52
  -5  -4  -1  256.05    9.23
  -5  -4   2 1376.73   23.66
  -5  -4   5  139.40    4.15
  -5  -4   8    2.80    1.51
  -5  -4  11  102.19    3.85
  -5  -4  14  128.36    6.16
  -5  -4  17    0.14    0.83
  -5  -4  20    1.30    0.63
  -5  -4  23    6.64    0.59
  -5  -4  26    3.94    0.70
  -5  -4  29    0.02    0.57
  -5  -4  32    0.87    1.14
  -5  -3 -32    0.21    1.08
  -5  -3 -29    3.20    0.65
  -5  -3 -26    3.61    1.37
  -5  -3 -23    0.91    0.96
  -5  -3 -20   11.42    0.85
  -5  -3 -17   29.00    1.28
  -5  -3 -14    2.84    0.90
  -5  -3 -11    0.01    1.05
  -5  -3  -8  170.03    4.43
  -5  -3  -5  862.69   19.06
  -5  -3  -2   13.54    4.76
  -5  -3   1 1201.30   22.83
  -5  -3   4  477.19    5.31
  -5  -3   7  130.49   12.67
  -5  -3  10   83.17    1.35
  -5  -3  13    8.62    2.76
  -5  -3  16   13.73    2.21
  -5  -3  19    1.12    0.59
  -5  -3  22    3.12    0.77
  -5  -3  25    9.73    0.83
  -5  -3  28    0.11    0.65
  -5  -3  31    1.47    0.50
  -5  -2 -30    3.32    0.62
  -5  -2 -27    4.61    0.79
  -5  -2 -24    2.55    0.52
  -5  -2 -21    3.33    0.58
  -5  -2 -18   29.14    2.12
  -5  -2 -15   85.38    3.57
  -5  -2 -12   43.02    2.37
  -5  -2  -9   88.57    4.75
  -5  -2  -6  489.34   17.18
  -5  -2  -3  287.71    4.35
  -5  -2   0    6.92    0.63
  -5  -2   3 1157.99   25.58
  -5  -2   6   33.34    1.58
  -5  -2   9  561.96    7.37
  -5  -2  12   77.31    0.64
  -5  -2  15   10.06    0.80
  -5  -2  18    2.94    0.53
  -5  -2  21   12.88    1.11
  -5  -2  24    6.33    0.67
  -5  -2  27    0.47    0.67
  -5  -2  30    2.56    0.67
  -5  -1 -31    0.22    0.75
  -5  -1 -28    0.33    0.49
  -5  -1 -25    1.59    1.39
  -5  -1 -22    0.57    0.49
  -5  -1 -19    9.21    0.81
  -5  -1 -16    0.12    0.92
  -5  -1 -13   12.57    1.34
  -5  -1 -10  230.19    3.99
  -5  -1  -7   69.55    4.41
  -5  -1  -4  258.92    8.05
  -5  -1  -1 3103.57   48.90
  -5  -1   2   12.33    1.07
  -5  -1   5  282.85    9.24
  -5  -1   8  110.02    4.57
  -5  -1  11  193.71    7.08
  -5  -1  14   18.25    1.83
  -5  -1  17   29.57    1.33
  -5  -1  20    8.07    0.61
  -5  -1  23   10.68    1.06
  -5  -1  26    0.36    0.67
  -5  -1  29    1.33    0.53
  -5  -1  32    0.23    0.77
  -4  -4 -30    0.82    0.54
  -4  -4 -27    1.10    0.64
  -4  -4 -24    2.76    0.71
  -4  -4 -21   27.35    1.99
  -4  -4 -18   12.57    0.84
  -4  -4 -15    1.04    0.95
  -4  -4 -12   34.91    2.32
  -4  -4  -9  889.48   10.18
  -4  -4  -6   68.70    0.85
  -4  -4  -3   68.96    2.84
  -4  -4   0 4142.70  142.55
  -4  -3 -31    1.46    0.68
  -4  -3 -28    0.62    0.64
  -4  -3 -25   13.77    1.38
  -4  -3 -22   12.86    1.09
  -4  -3 -19    8.46    0.85
  -4  -3 -16   48.86    1.66
  -4  -3 -13  180.81    5.24
  -4  -3 -10  104.93    7.71
  -4  -3  -7  458.09   11.65
  -4  -3  -4  193.05    4.47
  -4  -3  -1  947.84    5.71
  -4  -3   2  214.27    7.75
  -4  -3   5  549.49   23.79
  -4  -3   8  120.60    2.04
  -4  -3  11   62.97    1.36
  -4  -3  14   26.39    4.80
  -4  -3  17   22.71    1.08
  -4  -3  20    9.00    0.89
  -4  -3  23    0.88    1.43
  -4  -3  26    1.53    0.83
  -4  -3  29    1.20    0.87
  -4  -3  32    0.03    1.09
  -4  -2 -32    0.25    0.66
  -4  -2 -29    1.70    0.55
  -4  -2 -26    1.55    1.24
  -4  -2 -23   24.41    1.45
  -4  -2 -20   18.30    1.58
  -4  -2 -17    0.31    0.75
  -4  -2 -14   14.24    0.99
  -4  -2 -11  199.89    5.81
  -4  -2  -8  176.55    9.04
  -4  -2  -5 2292.62   52.80
  -4  -2  -2   75.15    6.13
  -4  -2   1  558.12    7.33
  -4  -2   4   62.63    5.21
  -4  -2   7  454.22   26.78
  -4  -2  10  200.43    3.11
  -4  -2  13   58.65    2.73
  -4  -2  16   33.09    0.62
  -4  -2  19   11.06    0.88
  -4  -2  22    3.41    0.67
  -4  -2  25    6.62    1.75
  -4  -2  28    0.09    0.56
  -4  -2  31    0.19    0.49
  -4  -1 -30    0.62    0.65
  -4  -1 -27    5.72    0.75
  -4  -1 -24    8.59    1.04
  -4  -1 -21   21.39    0.94
  -4  -1 -18   10.02    1.19
  -4  -1 -15   48.06    2.69
  -4  -1 -12   85.20    4.71
  -4  -1  -9   31.72    1.83
  -4  -1  -6  873.22   21.39
  -4  -1  -3   71.52    0.51
  -4  -1   0 1105.82    4.26
  -4  -1   3   17.64    1.01
  -4  -1   6   87.96    3.31
  -4  -1   9   25.95    2.31
  -4  -1  12   12.56    2.07
  -4  -1  15    1.12    1.12
  -4  -1  18    6.40    0.75
  -4  -1  21    4.43    1.01
  -4  -1  24    6.52    1.04
  -4  -1  27    1.81    0.63
  -4  -1  30    1.03    0.53
  -3  -3 -30    0.42    0.55
  -3  -3 -27    0.24    0.68
  -3  -3 -24    8.91    1.45
  -3  -3 -21    4.98    0.91
  -3  -3 -18   16.16    0.81
  -3  -3 -15   41.14    0.90
  -3  -3 -12  158.98    6.06
  -3  -3  -9  459.51    5.98
  -3  -3  -6  722.52   43.72
  -3  -3  -3  666.77    7.28
  -3  -3   0 2124.31   16.16
  -3  -2 -31    1.37    0.60
  -3  -2 -28    0.21    0.52
  -3  -2 -25    6.90    0.59
  -3  -2 -22    6.25    2.16
  -3  -2 -19   11.41    0.94
  -3  -2 -16   78.26    2.92
  -3  -2 -13   36.78    1.28
  -3  -2 -10   50.84    1.41
  -3  -2  -7    1.10    1.04
  -3  -2  -4 1661.30   22.43
  -3  -2  -1   54.12    1.33
  -3  -2   2   34.30    3.56
  -3  -2   5  918.27   12.35
  -3  -2   8  289.48    9.98
  -3  -2  11    7.76    1.19
  -3  -2  14   30.64    2.90
  -3  -2  17   43.71    2.79
  -3  -2  20   28.93    1.27
  -3  -2  23    3.03    1.59
  -3  -2  26    4.84    0.62
  -3  -2  29    1.91    0.57
  -3  -2  32    1.44    0.92
  -3  -1 -32    0.04    0.67
  -3  -1 -29    0.62    0.48
  -3  -1 -26    1.80    0.62
  -3  -1 -23    2.00    0.95
  -3  -1 -20    3.67    0.45
  -3  -1 -17   49.96    2.57
  -3  -1 -14   22.36    1.53
  -3  -1 -11   51.47    2.42
  -3  -1  -8  260.28    4.45
  -3  -1  -5 1044.72   22.25
  -3  -1  -2  261.55    0.53
  -3  -1   1  756.86    8.70
  -3  -1   4   85.29    5.12
  -3  -1   7  260.42    0.94
  -3  -1  10  144.65    3.47
  -3  -1  13   56.78    2.93
  -3  -1  16   38.85    2.30
  -3  -1  19   34.33    1.55
  -3  -1  22   51.01    2.25
  -3  -1  25   19.40    1.47
  -3  -1  28    0.14    0.50
  -3  -1  31    0.18    0.49
  -2  -2 -30    2.83    0.58
  -2  -2 -27    1.52    0.87
  -2  -2 -24   12.22    0.75
  -2  -2 -21  105.18    2.44
  -2  -2 -18   20.34    1.41
  -2  -2 -15   34.49    1.35
  -2  -2 -12   38.17    1.79
  -2  -2  -9   19.92    1.30
  -2  -2  -6  192.74   10.20
  -2  -2  -3  835.26    6.22
  -2  -2   0 4672.17  207.47
  -2  -1 -31    1.00    0.59
  -2  -1 -28    2.96    0.48
  -2  -1 -25    3.03    1.06
  -2  -1 -22   19.92    0.90
  -2  -1 -19    4.71    0.68
  -2  -1 -16   51.24    1.71
  -2  -1 -13    9.41    2.24
  -2  -1 -10   66.67    3.03
  -2  -1  -7  487.97    9.62
  -2  -1  -4  196.02    1.88
  -2  -1   2 1933.72   11.14
  -2  -1   5   81.79    0.78
  -2  -1   8  120.60    5.80
  -2  -1  11  109.11    2.54
  -2  -1  14    3.77    0.89
  -2  -1  17   31.79    1.49
  -2  -1  20   10.14    0.90
  -2  -1  23    1.16    0.70
  -2  -1  26    0.68    1.19
  -2  -1  29    1.25    0.52
  -2  -1  32    0.40    0.78
  -1  -1 -30    0.74    0.46
  -1  -1 -27    1.20    0.47
  -1  -1 -24   44.25    2.07
  -1  -1 -21   15.82    0.68
  -1  -1 -18   19.42    0.86
  -1  -1 -15    4.64    0.82
  -1  -1 -12    3.76    1.40
  -1  -1  -9   32.70    3.26
  -1  -1  -6   13.36    1.82
  -1  -1  -3  260.04    1.58
  -1  -1   0 5166.76    0.02
   0   0   3  110.44    0.52
   0   0   6 5246.07  319.97
   0   0   9  208.21    2.29
   0   0  12 1552.41  117.81
   0   0  15    0.94    0.99
   0   0  18  101.03    2.65
   0   0  21   86.29    5.10
   0   0  24    9.07    0.99
   0   0  27    0.78    0.83
   0   0  30    2.91    0.78
   1   0 -32    0.18    0.77
   1   0 -29    0.24    0.44
   1   0 -26    3.76    0.52
   1   0 -23    7.57    1.62
   1   0 -20    0.65    0.46
   1   0 -17   63.67    1.91
   1   0 -14   87.42    1.12
   1   0 -11  851.50    8.66
   1   0  -8   69.21    0.39
   1   0  -5 3723.06   69.64
   1   0   1 9048.55    0.01
   1   0   4 3003.34   37.14
   1   0   7    0.20    0.53
   1   0  10  958.63   12.13
   1   0  13  109.21    2.92
   1   0  16   30.64    1.43
   1   0  19    2.31    0.45
   1   0  22   69.30    4.06
   1   0  25    4.90    0.46
   1   0  28    0.98    0.42
   1   0  31    0.03    0.52
   1   1   0 5163.88    0.03
   1   1   3  253.13    1.45
   1   1   6   16.44    2.00
   1   1   9   32.10    2.92
   1   1  12    3.40    1.36
   1   1  15    4.04    0.95
   1   1  18   19.76    0.86
   1   1  21   14.36    0.66
   1   1  24   45.95    2.20
   1   1  27    1.02    0.47
   1   1  30    0.74    0.47
   2   0 -31    0.26    0.49
   2   0 -28    7.36    0.73
   2   0 -25   14.67    1.13
   2   0 -22   19.86    2.25
   2   0 -19    1.95    0.83
   2   0 -16   65.21    2.18
   2   0 -13    5.89    1.99
   2   0 -10  465.34    7.74
   2   0  -7  347.82   18.45
   2   0  -4 1600.52   15.03
   2   0   5  186.30    4.15
   2   0   8  817.53   24.86
   2   0  11    7.66    1.94
   2   0  14   44.30    1.05
   2   0  17    1.79    0.75
   2   0  20   58.71    1.94
   2   0  23    1.53    1.19
   2   0  26   21.83    1.24
   2   0  29    1.00    0.46
   2   0  32    0.53    0.79
   2   1 -32    0.16    0.65
   2   1 -29    1.30    0.53
   2   1 -26    1.73    1.03
   2   1 -23    1.17    0.78
   2   1 -20   10.17    0.90
   2   1 -17   29.56    1.49
   2   1 -14    3.74    0.69
   2   1 -11  112.07    2.25
   2   1  -8  125.92    6.15
   2   1  -5   74.08    0.61
   2   1  -2 1903.37   14.87
   2   1   4  199.46    2.04
   2   1   7  506.18   10.65
   2   1  10   67.85    2.29
   2   1  13    8.34    2.54
   2   1  16   50.83    1.74
   2   1  19    3.85    0.64
   2   1  22   19.47    0.92
   2   1  25    2.48    1.14
   2   1  28    3.03    0.48
   2   1  31    0.94    0.60
   2   2   3  856.83    5.61
   2   2   6  196.53   10.90
   2   2   9   19.96    1.17
   2   2  12   36.22    1.61
   2   2  15   37.76    1.92
   2   2  18   20.98    1.47
   2   2  21  110.74    2.96
   2   2  24   11.31    0.79
   2   2  27    1.81    0.84
   2   2  30    2.62    0.57
   3   0 -30    4.51    0.81
   3   0 -27    0.14    0.52
   3   0 -24    2.77    0.69
   3   0 -21   44.29    2.74
   3   0 -18   42.74    2.25
   3   0 -15   15.57    2.70
   3   0 -12   11.03    0.74
   3   0  -9  167.53    8.82
   3   0  -6   25.35    1.06
   3   0  -3  902.73    6.67
   3   0   0  165.99   17.99
   3   0   3 2931.06   18.56
   3   0   6  662.34   41.84
   3   0   9  309.57    4.91
   3   0  12   49.01    1.52
   3   0  15   93.75    7.18
   3   0  18   28.48    2.86
   3   0  21   16.41    1.09
   3   0  24    4.06    0.89
   3   0  27    4.15    0.79
   3   0  30    0.05    0.54
   3   1 -31    0.18    0.60
   3   1 -28    0.21    0.49
   3   1 -25   14.38    1.79
   3   1 -22   50.90    2.29
   3   1 -19   32.05    1.52
   3   1 -16   37.43    4.24
   3   1 -13   46.28    2.82
   3   1 -10  156.21    3.87
   3   1  -7  260.52    0.89
   3   1  -4   98.75    4.76
   3   1  -1  769.37    8.72
   3   1   2  261.68    0.60
   3   1   5 1039.26   21.68
   3   1   8  286.60    4.91
   3   1  11   52.44    2.59
   3   1  14   17.14    1.40
   3   1  17   53.90    2.58
   3   1  20    3.69    0.44
   3   1  23    2.71    0.92
   3   1  26    1.65    0.65
   3   1  29    0.57    0.47
   3   1  32    0.04    0.65
   3   2 -32    0.99    0.68
   3   2 -29    1.78    0.54
   3   2 -26    4.00    0.60
   3   2 -23    4.48    1.47
   3   2 -20   27.34    1.24
   3   2 -17   45.14    2.86
   3   2 -14   36.23    2.92
   3   2 -11    8.73    0.66
   3   2  -8  262.93    9.95
   3   2  -5  913.99   12.35
   3   2  -2   33.27    3.62
   3   2   1   59.95    1.36
   3   2   4 1659.81   18.78
   3   2   7    1.17    1.37
   3   2  10   49.99    1.40
   3   2  13   43.65    1.23
   3   2  16   82.09    2.76
   3   2  19    9.20    0.89
   3   2  22    6.87    3.05
   3   2  25    8.91    0.79
   3   2  28    0.15    0.51
   3   2  31    0.94    0.61
   3   3   0 2101.49   21.18
   3   3   3  672.30    6.69
   3   3   6  709.19   42.58
   3   3   9  471.85    6.67
   3   3  12  171.87    5.52
   3   3  15   37.76    0.76
   3   3  18   18.40    0.85
   3   3  21    6.12    1.34
   3   3  24    9.10    0.87
   3   3  27    0.48    0.58
   3   3  30    0.36    0.67
   4   0 -32    3.78    0.78
   4   0 -29    0.00    0.55
   4   0 -26    4.48    1.05
   4   0 -23    1.32    1.00
   4   0 -20    5.36    0.53
   4   0 -17    8.92    1.42
   4   0 -14   88.19    0.91
   4   0 -11  454.27    5.96
   4   0  -8  177.19    3.30
   4   0  -5    0.00    0.57
   4   0  -2 4140.23   45.67
   4   0   1 5523.98   20.32
   4   0   4 3720.34   66.17
   4   0   7   39.68    4.06
   4   0  10   20.10    1.47
   4   0  13  137.94    2.24
   4   0  16   40.59    1.86
   4   0  19   25.46    0.79
   4   0  22    1.44    0.54
   4   0  25    0.63    0.96
   4   0  28    4.71    0.78
   4   0  31    0.00    0.70
   4   1 -30    1.18    0.53
   4   1 -27    2.54    0.65
   4   1 -24    6.31    0.86
   4   1 -21    6.24    0.91
   4   1 -18    6.88    0.98
   4   1 -15    0.67    0.84
   4   1 -12   13.33    1.97
   4   1  -9   29.18    3.84
   4   1  -6   89.01    3.50
   4   1  -3   17.20    0.86
   4   1   0 1092.09    4.52
   4   1   3   75.73    0.55
   4   1   6  874.09   18.01
   4   1   9   29.65    2.43
   4   1  12   88.09    4.25
   4   1  15   41.57    2.83
   4   1  18    8.68    1.10
   4   1  21   22.97    0.97
   4   1  24    8.63    0.99
   4   1  27    5.14    0.57
   4   1  30    0.54    0.62
   4   2 -31    0.67    0.62
   4   2 -28    0.41    0.55
   4   2 -25    6.37    1.70
   4   2 -22    2.83    0.68
   4   2 -19   14.29    0.84
   4   2 -16   32.45    0.63
   4   2 -13   52.08    1.81
   4   2 -10  197.67    3.42
   4   2  -7  441.57   25.48
   4   2  -4   65.35    4.51
   4   2  -1  551.65    6.44
   4   2   2   76.38    5.96
   4   2   5 2351.24   51.28
   4   2   8  196.46    8.87
   4   2  11  213.70    7.27
   4   2  14   14.89    0.81
   4   2  17    0.91    0.80
   4   2  20   16.46    1.66
   4   2  23   25.24    1.39
   4   2  26    1.30    1.15
   4   2  29    2.11    0.53
   4   2  32    0.25    0.65
   4   3 -32    0.02    0.66
   4   3 -29    1.27    0.71
   4   3 -26    0.82    0.74
   4   3 -23    0.42    1.18
   4   3 -20    8.96    0.87
   4   3 -17   22.20    0.98
   4   3 -14   27.07    4.27
   4   3 -11   65.40    1.42
   4   3  -8  123.53    1.91
   4   3  -5  554.87   22.48
   4   3  -2  236.56    7.24
   4   3   1  931.85    5.53
   4   3   4  189.87    4.48
   4   3   7  481.96   12.86
   4   3  10  100.62    7.28
   4   3  13  189.31    5.24
   4   3  16   52.11    1.70
   4   3  19    9.42    0.84
   4   3  22   15.56    1.03
   4   3  25   12.33    1.23
   4   3  28    0.61    0.53
   4   3  31    1.37    0.68
   4   4   0 4070.94  161.65
   4   4   3   69.06    2.85
   4   4   6   67.39    0.86
   4   4   9  885.17   11.47
   4   4  12   33.09    1.48
   4   4  15    1.02    0.92
   4   4  18   12.37    0.74
   4   4  21   24.15    1.54
   4   4  24    3.46    0.67
   4   4  27    1.52    0.61
   4   4  30    1.27    0.66
   5   0 -31    1.37    0.63
   5   0 -28    0.00    0.57
   5   0 -25    1.49    0.60
   5   0 -22    3.75    0.68
   5   0 -19    0.31    0.42
   5   0 -16   39.91    1.59
   5   0 -13   28.30    4.39
   5   0 -10   30.26    2.08
   5   0  -7  918.98   61.36
   5   0  -4 1472.20   44.41
   5   0  -1  121.18    4.63
   5   0   2 2044.59   33.89
   5   0   5  225.45    1.68
   5   0   8   67.96    5.91
   5   0  11  342.30    6.36
   5   0  14   27.57    2.65
   5   0  17   43.94    2.09
   5   0  20   21.03    1.16
   5   0  23   27.21    1.15
   5   0  26    0.72    1.34
   5   0  29    0.03    0.59
   5   0  32    0.17    0.66
   5   1 -32    0.20    0.64
   5   1 -29    1.34    0.54
   5   1 -26    0.14    0.89
   5   1 -23   10.14    1.12
   5   1 -20    8.09    0.47
   5   1 -17   31.71    1.28
   5   1 -14   17.42    3.51
   5   1 -11  184.27    6.45
   5   1  -8  106.47    4.68
   5   1  -5  296.12    8.98
   5   1  -2   12.50    0.72
   5   1   1 3042.56   53.60
   5   1   4  258.63    8.47
   5   1   7   70.33    4.39
   5   1  10  257.75    3.82
   5   1  13   12.87    1.77
   5   1  16    0.13    0.93
   5   1  19    9.45    0.82
   5   1  22    0.60    0.49
   5   1  25    2.05    1.09
   5   1  28    0.11    0.56
   5   1  31    0.18    0.77
   5   2 -30    2.41    0.76
   5   2 -27    0.76    0.65
   5   2 -24    6.32    0.70
   5   2 -21   14.55    1.11
   5   2 -18    3.19    0.50
   5   2 -15   10.78    0.83
   5   2 -12   76.77    0.63
   5   2  -9  565.75    7.88
   5   2  -6   36.48    1.92
   5   2  -3 1161.12   24.07
   5   2   0    7.32    0.68
   5   2   3  297.49    4.39
   5   2   6  484.65   18.06
   5   2   9   95.84    5.10
   5   2  12   46.21    2.71
   5   2  15   80.87    3.55
   5   2  18   25.51    1.99
   5   2  21    5.37    0.89
   5   2  24    2.40    0.52
   5   2  27    4.45    0.64
   5   2  30    4.32    0.61
   5   3 -31    1.53    0.61
   5   3 -28    0.84    0.54
   5   3 -25    9.77    0.80
   5   3 -22    3.41    1.04
   5   3 -19    1.28    0.46
   5   3 -16   15.29    2.43
   5   3 -13    8.37    2.30
   5   3 -10   84.31    1.65
   5   3  -7  129.29   11.35
   5   3  -4  469.61    5.49
   5   3  -1 1238.13   23.53
   5   3   2   12.51    4.40
   5   3   5  844.87   20.03
   5   3   8  160.46    4.42
   5   3  11    0.03    0.76
   5   3  14    2.73    0.88
   5   3  17   27.33    1.33
   5   3  20   11.70    0.75
   5   3  23    0.97    0.79
   5   3  26    2.89    1.26
   5   3  29    2.71    0.71
   5   3  32    0.21    0.65
   5   4 -32    0.95    0.75
   5   4 -29    0.10    0.67
   5   4 -26    4.18    0.66
   5   4 -23    6.39    0.61
   5   4 -20    1.52    0.58
   5   4 -17    0.48    0.66
   5   4 -14  126.67    4.96
   5   4 -11  103.29    2.99
   5   4  -8    2.61    2.31
   5   4  -5  128.31    2.92
   5   4  -2 1367.09   20.32
   5   4   1  264.94    9.44
   5   4   4  401.60    5.68
   5   4   7  213.32    1.62
   5   4  10  288.27   10.53
   5   4  13   83.19    1.95
   5   4  16    0.02    0.56
   5   4  19    3.58    0.86
   5   4  22    5.09    1.58
   5   4  25    1.95    0.93
   5   4  28    0.01    0.75
   5   4  31    0.83    0.62
   5   5   0  223.78    1.83
   5   5   3  172.31   10.41
   5   5   6  170.90    6.17
   5   5   9   67.22    1.66
   5   5  12   51.79    1.96
   5   5  15   41.18    1.58
   5   5  18    4.85    1.31
   5   5  21    4.72    0.60
   5   5  24   11.01    1.04
   5   5  27    1.59    1.26
   5   5  30    0.13    0.62
   6   0 -30    0.27    0.56
   6   0 -27    7.54    1.56
   6   0 -24    4.21    1.45
   6   0 -21   10.72    0.57
   6   0 -18   22.61    1.16
   6   0 -15  138.76    3.28
   6   0 -12   53.44    1.55
   6   0  -9  323.10    3.13
   6   0  -6  153.20    2.13
   6   0  -3 6548.68  211.28
   6   0   0    4.54    1.74
   6   0   3 1479.49   28.04
   6   0   6  255.07    7.01
   6   0   9  540.10   17.49
   6   0  12   28.35    1.34
   6   0  15  112.52    1.32
   6   0  18   33.68    1.85
   6   0  21    9.36    0.61
   6   0  24    1.99    0.74
   6   0  27    3.42    0.56
   6   0  30    0.15    0.79
   6   1 -31    0.60    0.61
   6   1 -28    1.75    0.70
   6   1 -25    8.49    1.36
   6   1 -22   17.18    1.81
   6   1 -19    2.90    1.03
   6   1 -16  146.09    3.63
   6   1 -13    5.55    1.23
   6   1 -10  240.25    6.60
   6   1  -7   77.94    3.41
   6   1  -4   71.11    2.30
   6   1  -1   59.87    5.64
   6   1   2 1987.31   53.31
   6   1   5  481.37    7.10
   6   1   8  323.81   11.50
   6   1  11   34.48    3.59
   6   1  14   21.95    2.04
   6   1  17   14.15    0.73
   6   1  20    0.65    0.73
   6   1  23   39.10    2.07
   6   1  26    5.14    0.97
   6   1  29    0.46    0.62
   6   1  32    0.10    0.64
   6   2 -32    0.19    0.69
   6   2 -29    1.05    0.59
   6   2 -26    2.00    0.95
   6   2 -23    3.40    1.72
   6   2 -20    2.52    0.49
   6   2 -17   35.27    0.99
   6   2 -14   53.95    2.82
   6   2 -11  151.70    3.95
   6   2  -8  264.04    7.45
   6   2  -5 1266.94   26.55
   6   2  -2    1.71    0.48
   6   2   1  140.91   12.99
   6   2   4  214.00    1.61
   6   2   7   65.36    1.32
   6   2  10  152.10    6.50
   6   2  13   44.75    3.11
   6   2  16    1.17    0.67
   6   2  19   15.56    0.96
   6   2  22   16.89    1.12
   6   2  25    3.99    0.77
   6   2  28    0.10    0.62
   6   2  31    0.96    0.74
   6   3 -30    0.29    0.63
   6   3 -27    5.91    1.49
   6   3 -24    0.20    0.75
   6   3 -21   23.47    0.90
   6   3 -18    0.47    0.54
   6   3 -15   37.88    1.47
   6   3 -12   12.15    1.99
   6   3  -9  279.56    3.82
   6   3  -6  389.16    6.48
   6   3  -3  213.59    5.96
   6   3   0  984.63   23.69
   6   3   3   49.96    2.38
   6   3   6  141.42    6.91
   6   3   9  119.30    4.86
   6   3  12  189.21    3.38
   6   3  15    4.16    1.38
   6   3  18    3.58    0.69
   6   3  21    1.97    0.51
   6   3  24    5.14    0.75
   6   3  27    1.13    1.05
   6   3  30    3.37    0.71
   6   4 -31    1.43    1.13
   6   4 -28    1.00    0.83
   6   4 -25    2.03    0.84
   6   4 -22    3.78    1.23
   6   4 -19    0.01    0.72
   6   4 -16    0.68    0.93
   6   4 -13   20.12    2.73
   6   4 -10  160.08    8.71
   6   4  -7  187.67    9.11
   6   4  -4  547.22   13.20
   6   4  -1 1745.01   64.81
   6   4   2  411.35   10.44
   6   4   5  488.44   31.11
   6   4   8  275.81    9.05
   6   4  11   49.57    1.51
   6   4  14   60.21    2.16
   6   4  17    3.13    1.00
   6   4  20    3.73    0.68
   6   4  23   14.20    1.42
   6   4  26    0.65    0.72
   6   4  29    0.02    0.64
   6   4  32    0.10    0.68
   6   5 -32    0.10    1.17
   6   5 -29    0.79    0.69
   6   5 -26    1.90    0.62
   6   5 -23    0.03    0.88
   6   5 -20    2.06    0.97
   6   5 -17    1.04    1.00
   6   5 -14   51.46    1.19
   6   5 -11   26.55    1.55
   6   5  -8  915.93   27.68
   6   5  -5   82.58    6.03
   6   5  -2  151.28    9.67
   6   5   1  409.64   17.27
   6   5   4  461.77   32.49
   6   5   7  192.58    1.85
   6   5  10  188.55    6.16
   6   5  13  204.88    5.20
   6   5  16   16.59    1.75
   6   5  19    0.02    1.22
   6   5  22    1.99    0.91
   6   5  25    2.01    0.72
   6   5  28    0.01    0.85
   6   5  31    0.81    0.75
   6   6   0  358.63    8.93
   6   6   3  471.85   12.48
   6   6   6  733.18   14.67
   6   6   9    4.45    2.14
   6   6  12  185.67    6.64
   6   6  15   37.69    1.27
   6   6  18   15.40    1.06
   6   6  21   16.08    0.71
   6   6  24    2.97    1.57
   6   6  27    1.22    0.96
   6   6  30    0.08    0.60
   7   0 -32    0.77    0.85
   7   0 -29    1.06    0.56
   7   0 -26   14.24    1.08
   7   0 -23    0.02    0.54
   7   0 -20   25.17    1.58
   7   0 -17   24.90    1.68
   7   0 -14   19.88    1.11
   7   0 -11   94.00    1.02
   7   0  -8  824.62   13.25
   7   0  -5 2634.89   86.23
   7   0  -2  883.23    8.87
   7   0   1 3378.34   77.64
   7   0   4   67.13    4.61
   7   0   7   51.44    1.87
   7   0  10  274.77    3.82
   7   0  13   38.07    1.78
   7   0  16   66.81    1.97
   7   0  19    0.72    0.44
   7   0  22   16.28    0.73
   7   0  25    0.64    0.66
   7   0  28    1.96    0.58
   7   0  31    0.28    0.76
   7   1 -30    0.19    0.63
   7   1 -27    0.97    1.00
   7   1 -24    3.76    0.56
   7   1 -21    5.77    1.18
   7   1 -18    7.36    0.83
   7   1 -15   72.20    2.08
   7   1 -12    8.02    1.32
   7   1  -9  127.70    4.36
   7   1  -6  179.24    3.78
   7   1  -3   21.81    2.20
   7   1   0  140.05    1.39
   7   1   3  178.38    4.13
   7   1   6   13.09    2.80
   7   1   9   39.02    1.50
   7   1  12    5.04    0.56
   7   1  15    2.63    0.96
   7   1  18   15.04    0.42
   7   1  21    3.00    0.65
   7   1  24    0.40    1.03
   7   1  27    0.32    0.59
   7   1  30    0.01    1.13
   7   2 -31    0.24    0.60
   7   2 -28    0.77    0.68
   7   2 -25   17.86    1.39
   7   2 -22   14.96    2.43
   7   2 -19   16.27    1.65
   7   2 -16   72.68    2.59
   7   2 -13  208.51    4.32
   7   2 -10  495.01   10.15
   7   2  -7  231.88    5.02
   7   2  -4 1130.99   48.08
   7   2  -1  793.67   10.90
   7   2   2  139.45    6.35
   7   2   5   39.72    3.15
   7   2   8  336.97   10.92
   7   2  11   42.08    2.22
   7   2  14  122.62    4.26
   7   2  17    2.85    1.15
   7   2  20   24.40    0.79
   7   2  23    0.11    0.50
   7   2  26    4.68    0.70
   7   2  29    1.16    0.68
   7   2  32    0.34    0.64
   7   3 -32    2.55    1.25
   7   3 -29    0.00    0.69
   7   3 -26    0.14    0.74
   7   3 -23   14.89    1.59
   7   3 -20    1.86    0.55
   7   3 -17   13.43    0.99
   7   3 -14  112.42    2.68
   7   3 -11   41.31    3.50
   7   3  -8  140.21    3.35
   7   3  -5  284.12   15.26
   7   3  -2  279.93   19.56
   7   3   1  488.67   24.99
   7   3   4   73.02    2.03
   7   3   7   67.69    1.57
   7   3  10  197.75    3.88
   7   3  13   16.47    1.58
   7   3  16    2.80    0.51
   7   3  19    2.64    1.21
   7   3  22   13.32    1.60
   7   3  25    6.25    1.03
   7   3  28    0.13    0.63
   7   3  31    0.15    0.70
   7   4 -30    0.20    0.62
   7   4 -27    2.52    0.87
   7   4 -24    1.27    0.65
   7   4 -21    6.33    1.91
   7   4 -18    0.25    0.46
   7   4 -15   71.40    3.10
   7   4 -12   60.11    2.74
   7   4  -9  842.35   16.38
   7   4  -6  184.07    5.97
   7   4  -3  398.01    7.18
   7   4   0  198.25    7.36
   7   4   3   15.26    1.97
   7   4   6   99.03    2.34
   7   4   9  644.54   15.64
   7   4  12   40.38    2.53
   7   4  15   19.32    1.89
   7   4  18    0.45    0.44
   7   4  21    5.90    0.56
   7   4  24    4.47    0.64
   7   4  27    0.37    0.66
   7   4  30    1.27    0.64
   7   5 -31    0.73    0.57
   7   5 -28    0.11    0.95
   7   5 -25    3.77    0.73
   7   5 -22    1.50    0.57
   7   5 -19   21.41    2.22
   7   5 -16   47.01    1.92
   7   5 -13  179.28    7.40
   7   5 -10  427.20   11.27
   7   5  -7   97.63    3.54
   7   5  -4  207.33    1.75
   7   5  -1  145.51    8.61
   7   5   2   51.82    3.49
   7   5   5    8.03    0.66
   7   5   8   97.55    0.83
   7   5  11   87.38    4.78
   7   5  14   64.55    2.69
   7   5  17   24.56    1.48
   7   5  20   33.48    1.36
   7   5  23    1.95    0.64
   7   5  26    0.51    0.79
   7   5  29    0.12    0.63
   7   6 -29    1.91    0.70
   7   6 -26    3.74    1.04
   7   6 -23   19.73    1.48
   7   6 -20    0.82    0.59
   7   6 -17   40.64    1.76
   7   6 -14    1.07    0.57
   7   6 -11  321.96    7.89
   7   6  -8    4.42    1.31
   7   6  -5 1742.44   19.91
   7   6  -2  233.27   11.95
   7   6   1    3.01    2.56
   7   6   4  150.60    1.21
   7   6   7  572.77   19.29
   7   6  10   71.52    1.96
   7   6  13  225.36    6.01
   7   6  16    4.38    0.45
   7   6  19   25.14    1.47
   7   6  22    1.96    0.79
   7   6  25    1.95    0.83
   7   6  28    1.04    0.65
   7   6  31    1.76    0.71
   7   7   0  158.58   10.41
   7   7   3   54.73    0.95
   7   7   6   64.87    2.21
   7   7   9  221.92    6.06
   7   7  12    6.86    1.21
   7   7  15  118.01    4.10
   7   7  18   56.01    1.83
   7   7  21    6.40    1.30
   7   7  24    8.93    1.48
   7   7  27    1.40    0.83
   7   7  30    1.63    0.63
   8   0 -31    0.00    0.62
   8   0 -28    1.32    0.69
   8   0 -25    1.62    0.62
   8   0 -22   24.23    1.10
   8   0 -19    7.52    1.18
   8   0 -16   17.63    1.11
   8   0 -13   18.52    1.78
   8   0 -10   70.88    4.19
   8   0  -7  600.42    7.93
   8   0  -4 3236.42  130.96
   8   0  -1  198.61    3.60
   8   0   2  410.49   37.54
   8   0   5   48.67   15.55
   8   0   8 1985.23   29.11
   8   0  11   24.21    2.56
   8   0  14   53.32    2.69
   8   0  17    0.32    0.53
   8   0  20   24.31    0.86
   8   0  23    6.15    0.65
   8   0  26    0.67    0.62
   8   0  29    2.30    0.72
   8   0  32    0.30    0.66
   8   1 -32    0.26    1.35
   8   1 -29    0.15    0.71
   8   1 -26    1.57    0.74
   8   1 -23    8.19    0.70
   8   1 -20    1.91    0.92
   8   1 -17   12.92    0.94
   8   1 -14   46.23    1.81
   8   1 -11   20.64    1.30
   8   1  -8   65.87    7.74
   8   1  -5  124.21    3.02
   8   1  -2   33.49    2.74
   8   1   1  438.69    3.47
   8   1   4 1259.06   22.60
   8   1   7  521.07   13.92
   8   1  10   77.91    3.80
   8   1  13   57.66    2.10
   8   1  16   57.92    1.49
   8   1  19   12.83    1.42
   8   1  22    2.94    1.04
   8   1  25    7.51    3.70
   8   1  28    2.06    0.74
   8   1  31    0.09    0.74
   8   2 -30    0.11    0.63
   8   2 -27    0.24    0.67
   8   2 -24    1.85    0.68
   8   2 -21    4.98    1.03
   8   2 -18   24.20    1.16
   8   2 -15    7.42    1.21
   8   2 -12  138.95    4.12
   8   2  -9   40.58    2.35
   8   2  -6  393.89    4.91
   8   2  -3  459.09   10.61
   8   2   0   65.31    0.64
   8   2   3  374.88   13.15
   8   2   6  613.68   17.33
   8   2   9  272.32    6.64
   8   2  12  281.52   13.12
   8   2  15    4.35    1.09
   8   2  18   17.16    0.73
   8   2  21    0.01    0.68
   8   2  24    6.18    2.21
   8   2  27    3.53    0.67
   8   2  30    0.53    0.71
   8   3 -31    0.13    0.59
   8   3 -28    0.28    0.90
   8   3 -25    3.16    0.80
   8   3 -22    2.90    0.60
   8   3 -19    2.32    0.48
   8   3 -16    3.28    0.49
   8   3 -13    9.32    1.32
   8   3 -10  236.22    7.44
   8   3  -7   41.35    1.39
   8   3  -4  364.31    8.76
   8   3  -1  720.50   19.31
   8   3   2  425.72   14.52
   8   3   5  919.91   21.66
   8   3   8  171.79    5.38
   8   3  11  262.22    6.13
   8   3  14   16.11    0.71
   8   3  17    4.54    0.69
   8   3  20    0.21    0.87
   8   3  23    0.34    0.61
   8   3  26    0.82    0.81
   8   3  29    1.71    0.67
   8   3  32    0.07    0.81
   8   4 -29    0.10    0.65
   8   4 -26    1.18    0.92
   8   4 -23    2.47    0.65
   8   4 -20   20.24    1.31
   8   4 -17   30.47    1.40
   8   4 -14    4.76    0.65
   8   4 -11   26.39    2.33
   8   4  -8   20.83    2.66
   8   4  -5  140.63    2.77
   8   4  -2   65.12    2.49
   8   4   1  192.87    5.60
   8   4   4  830.90   13.07
   8   4   7  442.96   17.05
   8   4  10  439.89   19.40
   8   4  13   28.41    2.39
   8   4  16    6.98    1.20
   8   4  19    0.73    1.14
   8   4  22    1.76    0.60
   8   4  25    2.01    0.88
   8   4  28    2.00    0.79
   8   4  31    0.00    0.70
   8   5 -30    0.42    0.65
   8   5 -27    1.85    0.88
   8   5 -24    2.80    0.62
   8   5 -21    7.66    1.68
   8   5 -18   32.41    2.80
   8   5 -15   40.43    2.14
   8   5 -12  250.78    8.55
   8   5  -9  261.63    5.12
   8   5  -6   26.38    1.34
   8   5  -3   30.84    0.94
   8   5   0  206.78    7.97
   8   5   3   75.53   12.87
   8   5   6  406.42    6.32
   8   5   9   10.17    2.60
   8   5  12  143.83    3.36
   8   5  15   53.10    1.93
   8   5  18    0.29    0.79
   8   5  21    1.08    0.56
   8   5  24    6.09    1.07
   8   5  27    2.80    0.84
   8   5  30    0.10    0.76
   8   6 -31    0.27    1.12
   8   6 -28    0.61    0.91
   8   6 -25    2.39    0.74
   8   6 -22    1.32    0.74
   8   6 -19   16.25    1.05
   8   6 -16   10.86    1.08
   8   6 -13   17.42    3.57
   8   6 -10   14.75    2.08
   8   6  -7  129.50    3.60
   8   6  -4  117.37    2.56
   8   6  -1  238.36    3.55
   8   6   2   28.24    5.09
   8   6   5   57.98    1.64
   8   6   8  232.14    4.28
   8   6  11  185.68    5.13
   8   6  14  118.47    3.48
   8   6  17    0.53    0.63
   8   6  20   11.75    1.04
   8   6  23    3.51    1.26
   8   6  26   14.08    1.52
   8   6  29    0.09    0.66
   8   7 -29    2.53    0.68
   8   7 -26    1.29    0.98
   8   7 -23   13.78    1.74
   8   7 -20    4.18    0.83
   8   7 -17   38.24    1.15
   8   7 -14   20.78    1.79
   8   7 -11  423.58   15.57
   8   7  -8    9.22    2.50
   8   7  -5  542.57    9.28
   8   7  -2  397.71    6.07
   8   7   1  760.64   20.95
   8   7   4  251.92    4.38
   8   7   7  130.41    6.13
   8   7  10  241.91    6.61
   8   7  13    5.14    1.16
   8   7  16    8.72    1.13
   8   7  19   10.29    0.78
   8   7  22   18.72    2.04
   8   7  25    1.05    0.83
   8   7  28    5.20    0.76
   8   7  31    0.01    0.70
   8   8   0  490.38   32.05
   8   8   3  776.02   15.35
   8   8   6  716.84   18.54
   8   8   9   32.05    4.41
   8   8  12   24.93    2.85
   8   8  15   10.63    2.13
   8   8  18    3.71    0.94
   8   8  21   12.98    1.13
   8   8  24    2.72    0.82
   8   8  27    7.10    1.69
   8   8  30    0.20    0.61
   9   0 -30    0.00    0.61
   9   0 -27    0.08    0.70
   9   0 -24    0.03    0.60
   9   0 -21   15.66    0.87
   9   0 -18    9.45    0.52
   9   0 -15    4.94    1.45
   9   0 -12  207.32    5.79
   9   0  -9  124.31    1.86
   9   0  -6  374.56    7.07
   9   0  -3  709.20   31.32
   9   0   0   77.94    0.97
   9   0   3  107.59    6.68
   9   0   6  239.49    2.29
   9   0   9   67.07    3.83
   9   0  12  125.92    6.58
   9   0  15   22.14    2.14
   9   0  18   48.97    1.57
   9   0  21    5.58    0.53
   9   0  24   15.28    1.48
   9   0  27    0.01    0.66
   9   0  30    0.18    0.73
   9   1 -31    1.09    0.66
   9   1 -28    2.38    0.82
   9   1 -25    0.36    0.80
   9   1 -22    1.86    0.83
   9   1 -19    3.22    0.70
   9   1 -16   16.67    0.94
   9   1 -13  133.42   12.95
   9   1 -10   30.96    2.39
   9   1  -7  187.83    7.45
   9   1  -4  113.20    7.58
   9   1  -1  487.00    6.05
   9   1   2  112.19    4.00
   9   1   5  106.23    2.90
   9   1   8  244.72    3.61
   9   1  11   74.93    3.71
   9   1  14   53.97    1.86
   9   1  17    0.08    1.19
   9   1  20   13.04    1.03
   9   1  23    0.69    0.54
   9   1  26    5.61    0.84
   9   1  29    0.43    0.75
   9   1  32    0.92    0.86
   9   2 -29    0.22    0.67
   9   2 -26    4.03    0.62
   9   2 -23    2.00    0.68
   9   2 -20   28.51    2.29
   9   2 -17    5.67    1.00
   9   2 -14   30.62    1.13
   9   2 -11    4.11    1.17
   9   2  -8   23.79    1.61
   9   2  -5  484.58    9.07
   9   2  -2  272.50    8.06
   9   2   1  273.04   23.60
   9   2   4  417.71   10.80
   9   2   7  378.10    6.14
   9   2  10  225.14    8.16
   9   2  13   30.61    1.27
   9   2  16   25.58    3.01
   9   2  19   10.26    1.41
   9   2  22    4.11    0.77
   9   2  25    1.35    1.26
   9   2  28    0.60    0.73
   9   2  31    0.60    0.69
   9   3 -30    0.37    0.62
   9   3 -27    2.19    2.36
   9   3 -24    2.49    0.64
   9   3 -21    5.81    1.07
   9   3 -18   10.53    0.81
   9   3 -15   39.05    2.49
   9   3 -12   15.91    2.81
   9   3  -9   56.61    7.40
   9   3  -6  398.23    9.80
   9   3  -3  220.62    2.34
   9   3   0   60.14    5.92
   9   3   3  247.55    8.55
   9   3   6  162.82    3.21
   9   3   9  199.71    4.05
   9   3  12   41.69    2.24
   9   3  15   10.83    0.94
   9   3  18   24.03    1.36
   9   3  21    2.30    0.64
   9   3  24    0.92    2.46
   9   3  27    1.27    0.68
   9   3  30    1.29    0.73
   9   4 -31    0.37    0.57
   9   4 -28    0.80    0.95
   9   4 -25    0.95    0.76
   9   4 -22   13.36    1.66
   9   4 -19   10.07    1.29
   9   4 -16    0.50    0.58
   9   4 -13   46.81    1.58
   9   4 -10   25.10    3.33
   9   4  -7  182.75    4.06
   9   4  -4  106.41    3.46
   9   4  -1  470.67   12.03
   9   4   2   34.06    1.86
   9   4   5    2.40    0.91
   9   4   8  264.15   10.38
   9   4  11   45.78    3.31
   9   4  14   46.17    1.51
   9   4  17   26.98    1.73
   9   4  20    4.93    1.13
   9   4  23    0.04    0.75
   9   4  26    4.16    0.87
   9   4  29    0.67    0.70
   9   5 -29    0.07    0.70
   9   5 -26    0.40    0.85
   9   5 -23    6.51    1.03
   9   5 -20    5.36    0.57
   9   5 -17   14.56    1.66
   9   5 -14   38.09    1.23
   9   5 -11   96.43    6.95
   9   5  -8   36.62    3.56
   9   5  -5   65.80    0.80
   9   5  -2   83.97    1.88
   9   5   1  508.80    5.95
   9   5   4   75.64    0.69
   9   5   7   74.60    3.19
   9   5  10   19.25    0.79
   9   5  13    8.90    0.62
   9   5  16    4.25    1.17
   9   5  19    0.47    0.53
   9   5  22    0.38    0.81
   9   5  25    0.94    0.81
   9   5  28    1.08    0.67
   9   5  31    0.05    0.65
   9   6 -30    0.44    0.61
   9   6 -27    0.15    0.83
   9   6 -24    9.16    1.41
   9   6 -21    1.27    0.83
   9   6 -18   23.58    2.34
   9   6 -15    6.89    0.73
   9   6 -12  101.80    2.64
   9   6  -9   87.17    2.11
   9   6  -6    8.01    0.83
   9   6  -3  135.43    1.86
   9   6   0  280.29   15.58
   9   6   3  207.24    5.85
   9   6   6   82.62    6.57
   9   6   9    8.47    0.97
   9   6  12  156.10    3.56
   9   6  15   58.66    2.40
   9   6  18   19.48    0.89
   9   6  21    6.59    1.20
   9   6  24    0.60    0.87
   9   6  27    1.02    0.88
   9   6  30    1.07    0.73
   9   7 -31    0.19    0.70
   9   7 -28    0.81    0.84
   9   7 -25    2.48    0.76
   9   7 -22   10.07    0.88
   9   7 -19    4.74    0.63
   9   7 -16   10.24    1.18
   9   7 -13   26.38    2.30
   9   7 -10  182.88   20.72
   9   7  -7  101.39    2.93
   9   7  -4  295.04   12.24
   9   7  -1  703.23    9.90
   9   7   2  208.75    7.38
   9   7   5  112.68    3.76
   9   7   8    8.14    1.23
   9   7  11  176.63    6.47
   9   7  14   36.18    1.86
   9   7  17    9.80    1.23
   9   7  20    8.56    0.71
   9   7  23    1.37    0.72
   9   7  26    3.00    0.83
   9   7  29    1.25    0.61
   9   8 -29    0.30    0.63
   9   8 -26    0.92    0.97
   9   8 -23    0.83    0.74
   9   8 -20   49.76    2.12
   9   8 -17   12.11    1.37
   9   8 -14   41.09    3.43
   9   8 -11   13.08    1.22
   9   8  -8  148.46    3.70
   9   8  -5  175.45    6.76
   9   8  -2   25.87    1.22
   9   8   1   10.12    1.47
   9   8   4   12.95    0.54
   9   8   7    4.23    0.74
   9   8  10   40.80    2.88
   9   8  13   12.77    1.25
   9   8  16    2.54    1.30
   9   8  19   14.53    0.81
   9   8  22   11.37    1.77
   9   8  25    0.46    0.77
   9   8  28    0.10    0.63
   9   8  31    0.49    0.73
   9   9   0    8.39    3.79
   9   9   3  491.96    9.08
   9   9   6   14.60    0.83
   9   9   9   17.07    0.95
   9   9  12    6.63    1.21
   9   9  15   12.79    0.58
   9   9  18    0.09    0.57
   9   9  21   10.83    1.35
   9   9  24    6.44    1.01
   9   9  27    3.34    0.92
   9   9  30    0.99    0.76
  10   0 -29    0.80    0.83
  10   0 -26    2.69    0.67
  10   0 -23    2.64    0.92
  10   0 -20    6.26    0.58
  10   0 -17   36.33    1.24
  10   0 -14    0.95    1.18
  10   0 -11  109.83    2.39
  10   0  -8  154.72    1.82
  10   0  -5    7.47    0.98
  10   0  -2  767.60   26.15
  10   0   1   14.36    2.13
  10   0   4    2.55    5.24
  10   0   7  497.36   16.31
  10   0  10   12.95    1.81
  10   0  13    0.97    0.97
  10   0  16    2.45    0.58
  10   0  19   51.61    4.20
  10   0  22    2.34    0.55
  10   0  25    3.65    0.63
  10   0  28    0.17    0.72
  10   0  31    0.71    0.72
  10   1 -30    0.94    0.71
  10   1 -27    1.61    0.83
  10   1 -24    1.99    0.82
  10   1 -21   11.32    0.95
  10   1 -18    1.43    0.48
  10   1 -15    0.39    0.85
  10   1 -12   39.69    2.21
  10   1  -9   15.89    2.36
  10   1  -6   27.52    1.81
  10   1  -3  572.47   10.78
  10   1   0   19.78    1.11
  10   1   3   34.11    1.70
  10   1   6   33.87    1.22
  10   1   9  160.13    4.79
  10   1  12   13.79    2.61
  10   1  15    8.23    1.35
  10   1  18   23.99    1.38
  10   1  21    8.44    0.86
  10   1  24    3.39    1.82
  10   1  27    0.48    0.73
  10   1  30    0.61    0.78
  10   2 -31    0.60    0.64
  10   2 -28    0.85    0.91
  10   2 -25    2.90    1.04
  10   2 -22    0.93    0.57
  10   2 -19    6.05    0.78
  10   2 -16    3.27    1.08
  10   2 -13   27.07    2.19
  10   2 -10  159.87    6.95
  10   2  -7  184.21    6.57
  10   2  -4  420.95    8.53
  10   2  -1  474.61   15.34
  10   2   2  336.73    6.31
  10   2   5   52.61    2.21
  10   2   8   71.67    7.29
  10   2  11   27.37    6.47
  10   2  14   23.66    1.33
  10   2  17   17.70    0.96
  10   2  20    9.36    0.61
  10   2  23    3.23    0.77
  10   2  26    2.96    0.90
  10   2  29    1.40    0.81
  10   3 -29    0.44    0.85
  10   3 -26    5.70    0.93
  10   3 -23   11.49    1.31
  10   3 -20   26.96    1.44
  10   3 -17   17.06    1.20
  10   3 -14    2.27    0.65
  10   3 -11  125.61    6.67
  10   3  -8  473.00   23.50
  10   3  -5   51.23    5.62
  10   3  -2   68.50    2.08
  10   3   1  197.59    2.07
  10   3   4   85.68    5.17
  10   3   7  155.83    1.29
  10   3  10  181.53    6.05
  10   3  13    3.67    0.89
  10   3  16   94.12    2.92
  10   3  19    8.18    0.70
  10   3  22    0.59    1.23
  10   3  25    4.47    0.85
  10   3  28    6.29    1.09
  10   3  31    0.00    0.70
  10   4 -30    0.35    0.60
  10   4 -27    0.53    2.79
  10   4 -24    6.94    0.80
  10   4 -21    3.75    0.77
  10   4 -18    2.90    1.14
  10   4 -15   41.62    1.89
  10   4 -12   65.23    4.38
  10   4  -9   16.85    1.18
  10   4  -6   35.45    1.58
  10   4  -3   36.77    1.84
  10   4   0  300.78    4.82
  10   4   3  265.11    4.45
  10   4   6  311.51    7.25
  10   4   9  171.18    3.88
  10   4  12   91.61    2.29
  10   4  15   24.84    2.47
  10   4  18    1.01    0.87
  10   4  21    4.50    1.03
  10   4  24    0.23    0.77
  10   4  27    0.23    0.68
  10   4  30    1.42    0.77
  10   5 -31    0.01    0.66
  10   5 -28    2.30    0.96
  10   5 -25    2.58    0.84
  10   5 -22    2.84    1.52
  10   5 -19    4.65    1.54
  10   5 -16   13.85    1.46
  10   5 -13   20.47    1.68
  10   5 -10   23.42    3.28
  10   5  -7  155.60    6.29
  10   5  -4  524.28   12.98
  10   5  -1   79.77    4.33
  10   5   2   17.16    4.46
  10   5   5   28.50    0.98
  10   5   8   14.40    2.47
  10   5  11   88.33    3.02
  10   5  14    0.86    0.59
  10   5  17    6.04    0.57
  10   5  20   12.28    1.44
  10   5  23    1.92    0.79
  10   5  26    1.36    0.87
  10   5  29    0.12    0.77
  10   6 -29    2.74    0.66
  10   6 -26    0.03    0.85
  10   6 -23    4.04    0.94
  10   6 -20    3.83    1.03
  10   6 -17   14.51    1.38
  10   6 -14    1.55    0.49
  10   6 -11  107.01    3.38
  10   6  -8   11.64    3.69
  10   6  -5   89.96    3.46
  10   6  -2  621.60   12.53
  10   6   1  725.54   24.19
  10   6   4   59.68    1.58
  10   6   7   18.18    2.08
  10   6  10   95.10    2.18
  10   6  13   58.66    1.64
  10   6  16   29.13    1.15
  10   6  19    4.01    1.06
  10   6  22   16.92    1.92
  10   6  25    0.75    0.78
  10   6  28    1.21    0.64
  10   6  31    0.42    0.64
  10   7 -30    0.09    0.59
  10   7 -27    4.35    0.96
  10   7 -24    1.33    3.08
  10   7 -21    0.24    0.71
  10   7 -18   13.54    1.29
  10   7 -15    3.69    1.14
  10   7 -12   46.79    1.46
  10   7  -9  207.81    7.00
  10   7  -6   18.34    2.56
  10   7  -3  170.89    3.83
  10   7   0  745.66   15.67
  10   7   3   28.05    2.00
  10   7   6  131.69    5.24
  10   7   9  248.56    8.38
  10   7  12    4.49    1.10
  10   7  15    1.94    0.83
  10   7  18   27.97    1.21
  10   7  21   18.19    1.97
  10   7  24    1.07    0.79
  10   7  27    0.92    0.84
  10   7  30    2.06    0.76
  10   8 -28    0.09    0.83
  10   8 -25    2.04    0.91
  10   8 -22    5.57    0.82
  10   8 -19    0.40    0.94
  10   8 -16   21.48    2.16
  10   8 -13    9.50    1.12
  10   8 -10    4.31    1.23
  10   8  -7   62.85    3.23
  10   8  -4    8.24    1.97
  10   8  -1   55.13    4.00
  10   8   2  104.94    1.70
  10   8   5    3.78    0.89
  10   8   8  138.44    4.35
  10   8  11    1.95    1.31
  10   8  14   32.77    1.30
  10   8  17    4.61    0.75
  10   8  20   17.76    1.24
  10   8  23    1.37    0.71
  10   8  26    1.13    0.81
  10   8  29    2.33    0.63
  10   9 -29    0.08    0.60
  10   9 -26    1.66    0.78
  10   9 -23    3.94    0.84
  10   9 -20    0.22    0.67
  10   9 -17    3.59    0.61
  10   9 -14    5.47    0.51
  10   9 -11   29.38    2.12
  10   9  -8  155.00    2.84
  10   9  -5    9.63    1.20
  10   9  -2    3.86    1.40
  10   9   1  165.20    5.47
  10   9   4   46.86    2.68
  10   9   7   70.43    1.31
  10   9  10   25.36    1.39
  10   9  13   38.74    1.23
  10   9  16    0.44    0.57
  10   9  19   37.93    2.24
  10   9  22    0.77    1.18
  10   9  25    0.53    0.74
  10   9  28    0.36    0.66
  10  10   0   47.73    1.88
  10  10   3   31.26    3.77
  10  10   6  285.40    7.74
  10  10   9   50.73    1.95
  10  10  12  119.36    2.72
  10  10  15   30.21    1.46
  10  10  18    9.64    0.79
  10  10  21    1.00    0.73
  10  10  24   12.61    3.25
  10  10  27    0.48    0.88
  10  10  30    0.31    0.68
  11   0 -31    2.67    0.61
  11   0 -28    0.72    0.91
  11   0 -25    3.02    0.71
  11   0 -22    4.34    2.00
  11   0 -19    0.13    0.64
  11   0 -16   34.55    0.65
  11   0 -13   50.91    1.62
  11   0 -10   32.43    3.05
  11   0  -7  907.25   17.66
  11   0  -4  705.65    6.12
  11   0  -1   12.28   11.01
  11   0   2   22.06    0.88
  11   0   5   54.34    0.77
  11   0   8  113.78    4.18
  11   0  11  160.15    9.13
  11   0  14   17.93    1.52
  11   0  17   86.22    3.38
  11   0  20    9.37    1.10
  11   0  23    6.38    0.74
  11   0  26    2.30    0.77
  11   0  29    6.46    1.30
  11   1 -29    0.24    0.88
  11   1 -26    1.81    0.68
  11   1 -23    8.41    0.70
  11   1 -20    4.07    1.00
  11   1 -17    9.47    1.20
  11   1 -14    8.56    1.44
  11   1 -11   58.75    1.55
  11   1  -8  555.44   11.16
  11   1  -5  440.35    6.05
  11   1  -2   65.59    0.95
  11   1   1  393.64    8.92
  11   1   4  121.33    2.78
  11   1   7   12.12    1.93
  11   1  10   18.09    1.08
  11   1  13   38.79    2.14
  11   1  16   48.37    3.12
  11   1  19    4.88    1.49
  11   1  22    2.09    1.18
  11   1  25    4.52    1.29
  11   1  28    5.83    0.84
  11   1  31    0.08    0.69
  11   2 -30    1.03    0.65
  11   2 -27    0.89    0.89
  11   2 -24    1.82    0.67
  11   2 -21    2.37    1.50
  11   2 -18   11.21    0.70
  11   2 -15   39.28    1.26
  11   2 -12    5.04    0.76
  11   2  -9  244.37    7.78
  11   2  -6  235.04    9.23
  11   2  -3  192.72    5.77
  11   2   0  103.06    5.86
  11   2   3   41.50    2.78
  11   2   6  134.20    2.20
  11   2   9   12.10    0.46
  11   2  12   54.54    3.06
  11   2  15   35.73    3.17
  11   2  18    9.90    1.57
  11   2  21    2.87    1.06
  11   2  24    1.68    0.84
  11   2  27    0.69    1.24
  11   2  30    0.07    0.75
  11   3 -31    0.83    0.58
  11   3 -28    0.59    0.88
  11   3 -25    7.27    1.08
  11   3 -22    1.14    0.65
  11   3 -19   26.65    1.85
  11   3 -16    5.66    0.46
  11   3 -13   12.63    1.98
  11   3 -10   54.17    1.84
  11   3  -7   97.86    6.67
  11   3  -4   91.08    1.46
  11   3  -1   49.27    2.83
  11   3   2   62.65    0.68
  11   3   5   34.39    1.61
  11   3   8   91.70    5.76
  11   3  11   96.36    3.91
  11   3  14   21.37    1.90
  11   3  17   42.62    1.28
  11   3  20   10.68    0.70
  11   3  23    5.68    1.00
  11   3  26    0.02    0.67
  11   3  29    1.22    0.77
  11   4 -29    0.32    0.82
  11   4 -26    0.40    0.84
  11   4 -23    0.09    0.81
  11   4 -20    5.26    1.02
  11   4 -17    6.38    1.52
  11   4 -14   44.15    1.58
  11   4 -11  101.72    2.37
  11   4  -8   85.59    1.40
  11   4  -5   16.07    0.76
  11   4  -2   51.59    1.77
  11   4   1   22.46    0.45
  11   4   4   52.40    0.63
  11   4   7  132.26    2.53
  11   4  10   23.85    3.41
  11   4  13   28.53    2.26
  11   4  16   15.36    0.93
  11   4  19    3.04    0.63
  11   4  22    3.81    0.73
  11   4  25    2.75    0.83
  11   4  28    2.04    0.80
  11   4  31    0.12    0.67
  11   5 -30    0.08    0.63
  11   5 -27    0.38    0.89
  11   5 -24    4.24    0.76
  11   5 -21   21.31    1.98
  11   5 -18    9.29    1.17
  11   5 -15   45.96    1.95
  11   5 -12   26.18    1.12
  11   5  -9   13.40    1.50
  11   5  -6  132.45    3.50
  11   5  -3  781.37   16.83
  11   5   0  165.55    8.18
  11   5   3   95.89    3.68
  11   5   6   80.08    3.71
  11   5   9   75.79    3.08
  11   5  12    6.66    0.61
  11   5  15   30.71    1.61
  11   5  18    3.24    0.58
  11   5  21    0.16    0.78
  11   5  24    0.78    0.76
  11   5  27    0.33    0.64
  11   5  30    1.06    0.74
  11   6 -31    0.46    1.34
  11   6 -28    0.27    0.91
  11   6 -25    0.86    0.77
  11   6 -22    5.51    1.44
  11   6 -19   12.60    1.41
  11   6 -16   31.29    1.78
  11   6 -13    1.36    0.59
  11   6 -10   35.58    2.52
  11   6  -7   41.54    1.31
  11   6  -4  110.03    2.61
  11   6  -1   99.38    5.72
  11   6   2   46.71    2.25
  11   6   5  207.59    4.89
  11   6   8    5.03    1.22
  11   6  11  109.94    5.24
  11   6  14   38.35    1.87
  11   6  17   10.48    0.48
  11   6  20    2.22    1.09
  11   6  23   10.51    1.49
  11   6  26    0.05    0.86
  11   6  29    0.63    0.75
  11   7 -29    0.67    0.62
  11   7 -26    0.42    0.80
  11   7 -23    2.48    0.84
  11   7 -20    6.16    0.98
  11   7 -17    1.95    0.67
  11   7 -14   10.61    1.17
  11   7 -11   71.41    3.38
  11   7  -8  175.30    5.26
  11   7  -5  209.33    9.10
  11   7  -2  392.10   11.72
  11   7   1   60.70    2.41
  11   7   4  193.46    4.86
  11   7   7    2.80    1.20
  11   7  10   38.88    1.01
  11   7  13   81.19    2.42
  11   7  16   11.51    0.80
  11   7  19   26.88    1.16
  11   7  22   16.69    1.39
  11   7  25    4.75    1.32
  11   7  28    2.15    0.76
  11   8 -30    0.09    0.68
  11   8 -27    0.02    0.87
  11   8 -24    0.24    0.76
  11   8 -21    0.27    0.80
  11   8 -18   14.00    1.22
  11   8 -15    8.68    0.84
  11   8 -12    4.42    0.89
  11   8  -9   39.23    1.47
  11   8  -6    8.82    1.45
  11   8  -3  475.14   11.85
  11   8   0  758.64   20.19
  11   8   3   30.95    0.77
  11   8   6   74.11    2.16
  11   8   9   40.26    2.34
  11   8  12   69.99    1.29
  11   8  15    1.78    0.72
  11   8  18   28.99    1.30
  11   8  21    2.39    0.80
  11   8  24    1.25    1.04
  11   8  27    1.13    0.67
  11   8  30    0.38    0.71
  11   9 -28    0.48    0.65
  11   9 -25    0.30    0.81
  11   9 -22    9.39    1.16
  11   9 -19    6.47    0.83
  11   9 -16   14.03    1.14
  11   9 -13    7.40    0.63
  11   9 -10  152.91    3.53
  11   9  -7  119.36    1.72
  11   9  -4   87.72    4.87
  11   9  -1  424.56   10.24
  11   9   2    4.88    1.02
  11   9   5   66.86    1.82
  11   9   8   50.55    4.32
  11   9  11   89.44    2.00
  11   9  14   24.96    1.22
  11   9  17   19.78    1.20
  11   9  20    5.41    1.20
  11   9  23    1.25    0.77
  11   9  26    0.93    0.84
  11   9  29    1.79    1.06
  11  10 -29    0.79    0.61
  11  10 -26    0.33    0.82
  11  10 -23    9.29    1.09
  11  10 -20    5.29    0.67
  11  10 -17    4.25    0.73
  11  10 -14   30.42    1.96
  11  10 -11   27.65    0.86
  11  10  -8   29.52    1.32
  11  10  -5  323.29   13.80
  11  10  -2  169.58    6.51
  11  10   1  251.93    9.83
  11  10   4   91.61    2.48
  11  10   7  371.00    6.89
  11  10  10   52.42    2.99
  11  10  13   14.46    0.43
  11  10  16    5.29    0.50
  11  10  19    5.21    0.70
  11  10  22    1.67    0.73
  11  10  25    1.32    0.82
  11  10  28    1.27    0.65
  11  11   0   14.93    4.56
  11  11   3   22.90    1.87
  11  11   6   40.75    2.83
  11  11   9    0.20    0.81
  11  11  12   24.51    1.50
  11  11  15    2.64    0.60
  11  11  18    7.48    1.46
  11  11  21    7.97    1.33
  11  11  24    0.02    0.76
  11  11  27    0.59    0.84
  12   0 -30    0.12    0.63
  12   0 -27    0.43    0.87
  12   0 -24    1.23    0.65
  12   0 -21   15.38    1.16
  12   0 -18    1.44    0.49
  12   0 -15    3.98    0.63
  12   0 -12   43.89    0.57
  12   0  -9   14.44    0.59
  12   0  -6  507.29    8.12
  12   0  -3   31.42    0.93
  12   0   0  717.79   24.56
  12   0   3  208.08    0.43
  12   0   6   50.27    1.21
  12   0   9  776.18   16.84
  12   0  12   51.32    3.39
  12   0  15  126.20    5.09
  12   0  18   16.51    0.75
  12   0  21   29.37    2.16
  12   0  24   14.08    2.07
  12   0  27    3.11    0.77
  12   0  30    0.02    0.73
  12   1 -31    0.61    0.66
  12   1 -28    0.66    1.10
  12   1 -25    3.67    0.75
  12   1 -22   13.46    1.53
  12   1 -19   29.47    3.54
  12   1 -16    4.90    1.15
  12   1 -13  129.12    3.87
  12   1 -10  473.00   12.23
  12   1  -7  126.12    3.79
  12   1  -4  264.91   11.15
  12   1  -1   21.97    0.52
  12   1   2   91.59    2.32
  12   1   5   73.82    1.17
  12   1   8  176.82    5.14
  12   1  11   92.62    4.86
  12   1  14  107.01    4.11
  12   1  17    2.99    0.68
  12   1  20    8.59    0.71
  12   1  23    0.85    1.25
  12   1  26    1.86    0.74
  12   1  29    0.60    0.73
  12   2 -29    0.31    0.86
  12   2 -26    1.20    1.08
  12   2 -23    5.56    0.61
  12   2 -20    5.83    1.45
  12   2 -17    6.12    1.10
  12   2 -14    2.09    0.78
  12   2 -11   27.95    1.62
  12   2  -8   19.97    4.93
  12   2  -5    0.64    1.81
  12   2  -2  797.20   10.52
  12   2   1   54.69    1.86
  12   2   4  125.79    4.87
  12   2   7   56.43    2.70
  12   2  10   15.23    1.82
  12   2  13  108.22    2.41
  12   2  16    7.62    0.80
  12   2  19    4.70    1.24
  12   2  22    8.57    0.83
  12   2  25    1.18    0.73
  12   2  28    1.06    0.79
  12   2  31    0.73    0.67
  12   3 -30    0.62    0.62
  12   3 -27    1.06    0.91
  12   3 -24    1.10    0.88
  12   3 -21    9.07    0.70
  12   3 -18   22.23    1.53
  12   3 -15   19.78    1.48
  12   3 -12  264.35    6.99
  12   3  -9   45.80    2.30
  12   3  -6  493.17   29.69
  12   3  -3  101.66    2.53
  12   3   0  463.64    8.58
  12   3   3   19.09    0.58
  12   3   6   28.52    0.73
  12   3   9    3.90    0.70
  12   3  12   22.52    1.54
  12   3  15   15.12    0.95
  12   3  18    3.44    0.87
  12   3  21    1.80    0.74
  12   3  24    3.55    0.79
  12   3  27    1.08    0.76
  12   3  30    0.15    0.73
  12   4 -31    0.03    0.68
  12   4 -28    0.07    0.86
  12   4 -25    1.98    0.83
  12   4 -22    0.88    0.82
  12   4 -19    6.54    1.38
  12   4 -16    0.50    0.63
  12   4 -13   24.81    2.32
  12   4 -10   39.38    1.75
  12   4  -7  167.56    3.79
  12   4  -4  948.24   19.63
  12   4  -1  479.44   10.34
  12   4   2    0.32    0.42
  12   4   5  460.78    9.45
  12   4   8  106.23    2.69
  12   4  11   21.46    0.68
  12   4  14    8.69    0.57
  12   4  17    3.38    0.46
  12   4  20    2.57    0.98
  12   4  23    1.00    0.73
  12   4  26    0.67    0.66
  12   4  29    0.47    0.73
  12   5 -29    0.78    1.15
  12   5 -26    0.33    0.87
  12   5 -23    0.07    0.81
  12   5 -20    7.04    1.34
  12   5 -17   19.64    1.08
  12   5 -14   12.58    0.83
  12   5 -11   73.04    4.81
  12   5  -8   95.75    4.48
  12   5  -5  107.64    2.68
  12   5  -2  207.33    5.97
  12   5   1   54.01    0.77
  12   5   4   95.63    2.60
  12   5   7    0.85    0.89
  12   5  10    8.84    1.32
  12   5  13   37.95    3.93
  12   5  16    7.07    0.74
  12   5  19    4.82    1.31
  12   5  22   13.73    1.18
  12   5  25    1.02    0.80
  12   5  28    0.66    0.74
  12   6 -30    0.04    0.59
  12   6 -27    0.71    0.89
  12   6 -24    4.03    1.17
  12   6 -21   12.43    1.00
  12   6 -18   10.17    0.84
  12   6 -15    1.61    0.61
  12   6 -12    3.23    0.82
  12   6  -9   61.96    3.39
  12   6  -6   62.63    1.30
  12   6  -3  237.41    9.60
  12   6   0  284.34    4.66
  12   6   3  238.28   11.44
  12   6   6   25.42    1.40
  12   6   9  103.53    3.88
  12   6  12    3.81    0.85
  12   6  15    7.41    0.54
  12   6  18   34.80    1.99
  12   6  21    0.58    1.24
  12   6  24   15.86    1.32
  12   6  27    0.69    0.65
  12   6  30    2.22    0.72
  12   7 -28    0.43    0.84
  12   7 -25    1.67    0.75
  12   7 -22    5.80    0.71
  12   7 -19    5.33    0.70
  12   7 -16    8.86    1.04
  12   7 -13   24.01    1.48
  12   7 -10   69.77    2.10
  12   7  -7  112.63    5.37
  12   7  -4  139.02    2.22
  12   7  -1    8.16    2.11
  12   7   2  160.48    6.80
  12   7   5   14.57    0.90
  12   7   8   54.49    1.94
  12   7  11   19.56    0.93
  12   7  14    5.08    1.24
  12   7  17   13.72    1.36
  12   7  20    1.57    0.83
  12   7  23    0.86    0.76
  12   7  26    4.75    0.80
  12   7  29    1.26    0.83
  12   8 -29    0.02    0.60
  12   8 -26    0.70    0.89
  12   8 -23    2.30    0.73
  12   8 -20    4.51    0.80
  12   8 -17    9.46    0.79
  12   8 -14   32.43    1.06
  12   8 -11   16.54    0.50
  12   8  -8   28.67    1.85
  12   8  -5  367.01   12.20
  12   8  -2   62.73   10.13
  12   8   1  192.12    9.57
  12   8   4    7.12    1.74
  12   8   7   52.36    1.46
  12   8  10    8.31    0.56
  12   8  13   12.49    0.95
  12   8  16    6.91    0.85
  12   8  19   28.59    1.86
  12   8  22   25.61    1.99
  12   8  25    7.07    1.81
  12   8  28    1.78    0.68
  12   9 -27    0.13    0.94
  12   9 -24    2.22    0.76
  12   9 -21    4.70    0.90
  12   9 -18   24.25    1.81
  12   9 -15    7.49    0.60
  12   9 -12    6.61    1.20
  12   9  -9   12.72    1.34
  12   9  -6   14.13    0.61
  12   9  -3  229.40    4.62
  12   9   0  162.26    3.50
  12   9   3   35.90    3.29
  12   9   6   33.06    3.50
  12   9   9    1.44    0.98
  12   9  12   21.59    0.86
  12   9  15   10.65    1.41
  12   9  18    4.72    1.11
  12   9  21    1.15    1.13
  12   9  24    2.02    1.04
  12   9  27    1.38    0.64
  12  10 -28    0.78    0.63
  12  10 -25    2.87    0.85
  12  10 -22    1.35    0.96
  12  10 -19    8.39    1.26
  12  10 -16    1.56    0.55
  12  10 -13    6.10    0.69
  12  10 -10   65.86    2.09
  12  10  -7   21.74    1.68
  12  10  -4  271.28   11.30
  12  10  -1   52.30    1.91
  12  10   2  362.59    8.98
  12  10   5    0.84    3.61
  12  10   8   76.23    3.44
  12  10  11   12.98    0.85
  12  10  14    3.80    0.45
  12  10  17    4.21    0.50
  12  10  20   12.02    1.12
  12  10  23    6.87    0.93
  12  10  26    0.75    0.81
  12  10  29    0.01    0.71
  12  11 -29    0.88    0.66
  12  11 -26    0.01    0.80
  12  11 -23    1.16    0.78
  12  11 -20   17.26    1.53
  12  11 -17   10.63    1.41
  12  11 -14    3.21    0.54
  12  11 -11   70.02    1.93
  12  11  -8   61.50    3.13
  12  11  -5   47.67    1.59
  12  11  -2   31.12    1.14
  12  11   1   45.28    2.16
  12  11   4   24.06    2.00
  12  11   7    5.81    0.94
  12  11  10    0.27    0.41
  12  11  13   10.95    0.53
  12  11  16    3.70    0.93
  12  11  19    5.70    1.46
  12  11  22    2.48    0.75
  12  11  25    0.64    0.75
  12  11  28    0.79    0.64
  12  12   0  129.04   10.09
  12  12   3   24.36    1.52
  12  12   6   21.28    1.95
  12  12   9    2.30    0.72
  12  12  12   10.27    0.68
  12  12  15   10.16    1.14
  12  12  18   28.40    1.71
  12  12  21    7.17    0.95
  12  12  24    0.89    0.84
  12  12  27    1.04    0.78
  13   0 -29    0.91    0.85
  13   0 -26    0.83    1.00
  13   0 -23   19.44    1.39
  13   0 -20   19.56    1.42
  13   0 -17    0.41    1.05
  13   0 -14   20.84    1.55
  13   0 -11  201.92    6.03
  13   0  -8   10.97    3.66
  13   0  -5    0.03    0.69
  13   0  -2  780.06   18.82
  13   0   1  492.10    5.58
  13   0   4   53.56    2.63
  13   0   7   56.74    0.87
  13   0  10  873.57   23.38
  13   0  13  624.27   15.96
  13   0  16  101.46    2.35
  13   0  19   19.93    0.71
  13   0  22    6.57    0.72
  13   0  25    9.88    1.28
  13   0  28    0.02    0.71
  13   0  31    0.13    0.65
  13   1 -30    0.30    0.62
  13   1 -27    0.87    0.97
  13   1 -24    5.70    0.75
  13   1 -21   33.89    2.30
  13   1 -18    1.30    0.83
  13   1 -15   59.36    2.46
  13   1 -12   64.40    1.66
  13   1  -9  455.91   14.23
  13   1  -6    8.82    1.22
  13   1  -3  175.19    3.95
  13   1   0   78.24    1.33
  13   1   3  877.66   10.70
  13   1   6    8.56    4.00
  13   1   9   49.83    1.45
  13   1  12   66.27    2.64
  13   1  15  198.41    4.73
  13   1  18   14.68    2.01
  13   1  21   19.39    2.10
  13   1  24    5.33    1.12
  13   1  27    3.45    0.78
  13   1  30    0.92    0.80
  13   2 -31    0.75    0.80
  13   2 -28    0.81    1.91
  13   2 -25    3.23    0.90
  13   2 -22    0.87    0.69
  13   2 -19   30.66    1.45
  13   2 -16   23.04    1.86
  13   2 -13   95.09    2.90
  13   2 -10   12.54    0.97
  13   2  -7  202.97    4.03
  13   2  -4   19.37    2.70
  13   2  -1  156.83    8.18
  13   2   2   34.45    1.13
  13   2   5  194.22    2.11
  13   2   8  282.75    7.98
  13   2  11   77.74    3.60
  13   2  14    8.54    1.10
  13   2  17   26.53    1.68
  13   2  20    4.25    1.45
  13   2  23    0.15    0.74
  13   2  26    0.84    4.27
  13   2  29    0.34    0.69
  13   3 -29    3.86    0.90
  13   3 -26    0.37    1.26
  13   3 -23    6.69    0.82
  13   3 -20    4.85    0.68
  13   3 -17   69.92    3.35
  13   3 -14   58.07    3.25
  13   3 -11  150.97    3.82
  13   3  -8  574.24   22.06
  13   3  -5  903.32   22.48
  13   3  -2  265.53    9.14
  13   3   1  215.65    4.67
  13   3   4   60.02    5.92
  13   3   7  615.98   18.26
  13   3  10   35.98    1.87
  13   3  13    9.21    1.01
  13   3  16   26.57    1.03
  13   3  19    6.17    1.67
  13   3  22    0.40    0.94
  13   3  25    0.00    0.74
  13   3  28    3.34    0.86
  13   3  31    0.76    0.85
  13   4 -30    0.31    0.63
  13   4 -27    1.71    0.92
  13   4 -24    3.77    0.90
  13   4 -21    9.58    1.19
  13   4 -18   16.23    1.23
  13   4 -15   11.78    1.52
  13   4 -12   62.41    4.63
  13   4  -9    2.13    0.54
  13   4  -6  215.86    4.82
  13   4  -3  529.89   11.53
  13   4   0   33.13    0.73
  13   4   3  171.34    2.58
  13   4   6  182.64    3.51
  13   4   9   18.64    1.56
  13   4  12   34.43    1.26
  13   4  15    5.88    0.47
  13   4  18    9.26    0.48
  13   4  21    1.43    0.84
  13   4  24    1.21    0.78
  13   4  27    3.02    0.98
  13   4  30    0.02    0.69
  13   5 -28    0.09    0.86
  13   5 -25    2.45    0.95
  13   5 -22    3.95    0.87
  13   5 -19   22.89    2.52
  13   5 -16    2.53    1.37
  13   5 -13   33.14    1.33
  13   5 -10   63.98    2.19
  13   5  -7  126.27    4.52
  13   5  -4  199.46    8.37
  13   5  -1  205.32    6.98
  13   5   2   45.59    3.89
  13   5   5  273.36    9.07
  13   5   8   43.17    3.40
  13   5  11    3.11    0.81
  13   5  14    3.02    0.45
  13   5  17   14.52    1.80
  13   5  20    1.15    0.72
  13   5  23    0.26    0.79
  13   5  26    7.65    1.01
  13   5  29    0.79    0.81
  13   6 -29    0.25    0.63
  13   6 -26    0.99    0.86
  13   6 -23    0.21    0.76
  13   6 -20   51.07    2.80
  13   6 -17    0.54    0.63
  13   6 -14   11.30    0.95
  13   6 -11    4.68    2.00
  13   6  -8   48.27    1.59
  13   6  -5   18.23    0.77
  13   6  -2  374.91    9.76
  13   6   1  105.30    7.03
  13   6   4  534.00   14.71
  13   6   7   44.15    0.98
  13   6  10   79.42    2.91
  13   6  13   26.77    1.45
  13   6  16   23.24    1.37
  13   6  19    2.71    0.85
  13   6  22    0.78    0.72
  13   6  25    0.73    0.80
  13   6  28    1.34    0.72
  13   7 -30    1.21    0.67
  13   7 -27    0.25    0.90
  13   7 -24    4.79    0.73
  13   7 -21    9.87    1.11
  13   7 -18   49.37    2.64
  13   7 -15    6.15    0.49
  13   7 -12  171.95    4.63
  13   7  -9   31.98    1.76
  13   7  -6   92.45    6.27
  13   7  -3  334.93   11.17
  13   7   0  161.16    6.72
  13   7   3  153.06    3.09
  13   7   6   48.68    1.64
  13   7   9   58.47    3.00
  13   7  12   20.46    1.42
  13   7  15   21.31    0.77
  13   7  18   11.40    1.27
  13   7  21    0.79    1.19
  13   7  24    0.68    0.76
  13   7  27    1.03    0.72
  13   7  30    0.04    0.68
  13   8 -28    0.15    0.79
  13   8 -25    1.84    0.77
  13   8 -22    3.37    0.94
  13   8 -19   16.22    1.53
  13   8 -16    6.25    0.96
  13   8 -13   67.93    2.11
  13   8 -10   25.50    1.92
  13   8  -7   37.61    2.25
  13   8  -4  138.35    5.15
  13   8  -1   69.81    6.87
  13   8   2  243.26    9.54
  13   8   5  100.93    3.37
  13   8   8    5.73    1.01
  13   8  11   16.75    1.81
  13   8  14   53.08    1.39
  13   8  17   28.38    1.54
  13   8  20   14.51    1.15
  13   8  23    1.01    0.72
  13   8  26    0.91    0.67
  13   8  29    0.48    0.75
  13   9 -29    0.85    0.75
  13   9 -26    1.04    0.91
  13   9 -23    0.00    0.94
  13   9 -20    5.14    0.67
  13   9 -17   26.02    1.36
  13   9 -14    7.55    0.59
  13   9 -11    2.86    0.85
  13   9  -8   11.01    1.51
  13   9  -5  221.51    6.13
  13   9  -2    8.78    0.93
  13   9   1  315.16   12.54
  13   9   4   33.32    3.32
  13   9   7   53.95    7.49
  13   9  10    8.00    0.64
  13   9  13   60.58    1.88
  13   9  16    8.01    1.36
  13   9  19    6.43    0.86
  13   9  22    0.09    0.73
  13   9  25    0.61    0.77
  13   9  28    0.29    0.78
  13  10 -27    0.59    0.84
  13  10 -24    0.23    0.78
  13  10 -21    6.33    2.10
  13  10 -18   28.03    1.67
  13  10 -15    3.60    0.66
  13  10 -12    4.34    0.46
  13  10  -9   75.17    3.05
  13  10  -6   84.28    1.43
  13  10  -3   34.07    1.18
  13  10   0   82.08    4.10
  13  10   3  114.05    3.41
  13  10   6   30.26    2.57
  13  10   9   20.62    0.73
  13  10  12   37.20    0.88
  13  10  15    9.64    1.23
  13  10  18   23.40    1.86
  13  10  21    1.13    1.33
  13  10  24    4.70    0.84
  13  10  27    1.84    0.68
  13  11 -28    1.79    0.63
  13  11 -25    0.89    0.83
  13  11 -22    3.23    0.72
  13  11 -19   16.37    1.24
  13  11 -16    2.94    1.15
  13  11 -13    0.54    0.48
  13  11 -10   70.02    1.95
  13  11  -7   10.83    1.83
  13  11  -4   23.69    2.03
  13  11  -1   10.32    1.56
  13  11   2   42.96    1.23
  13  11   5   87.69    3.12
  13  11   8    0.17    0.56
  13  11  11    3.05    0.42
  13  11  14    1.67    0.71
  13  11  17    1.95    0.64
  13  11  20    9.77    0.94
  13  11  23    2.52    0.73
  13  11  26    0.34    0.82
  13  12 -26    1.44    0.83
  13  12 -23    0.21    1.17
  13  12 -20    2.59    0.74
  13  12 -17   11.65    1.33
  13  12 -14   49.11    1.93
  13  12 -11   60.91    2.05
  13  12  -8   30.85    1.22
  13  12  -5   25.06    3.35
  13  12  -2  102.55    2.11
  13  12   1  311.96   10.37
  13  12   4   48.68    1.24
  13  12   7    6.35    0.75
  13  12  10    9.00    0.54
  13  12  13   30.95    1.75
  13  12  16    5.21    0.85
  13  12  19    0.69    0.68
  13  12  22    7.84    0.81
  13  12  25    0.82    0.90
  13  12  28    0.37    0.68
  13  13   0  405.47   18.34
  13  13   3   24.57    0.95
  13  13   6   31.77    1.28
  13  13   9   14.52    0.52
  13  13  12   58.67    4.12
  13  13  15    1.03    0.91
  13  13  18   11.68    0.98
  13  13  21    0.30    0.79
  13  13  24    2.08    0.85
  13  13  27    0.25    0.64
  14   0 -31    0.64    0.86
  14   0 -28    2.65    0.96
  14   0 -25    4.60    1.33
  14   0 -22    7.76    1.63
  14   0 -19    0.21    0.65
  14   0 -16   26.19    1.82
  14   0 -13   36.29    2.70
  14   0 -10  142.16    3.94
  14   0  -7    2.23    1.02
  14   0  -4  176.30    6.70
  14   0  -1    0.12    0.30
  14   0   2  184.74    6.23
  14   0   5    3.33    0.37
  14   0   8 1243.08   27.84
  14   0  11  236.05    4.86
  14   0  14  263.64    5.49
  14   0  17    2.48    0.59
  14   0  20   59.14    3.88
  14   0  23    2.11    1.49
  14   0  26    3.68    0.79
  14   0  29    0.06    0.73
  14   1 -29    1.11    0.84
  14   1 -26    0.06    0.90
  14   1 -23    8.56    0.78
  14   1 -20    0.92    0.69
  14   1 -17    1.88    0.80
  14   1 -14    4.78    1.02
  14   1 -11   25.16    1.89
  14   1  -8    8.67    1.69
  14   1  -5  140.95    5.70
  14   1  -2   11.59    1.63
  14   1   1   79.09    1.32
  14   1   4   79.88    3.41
  14   1   7   94.80    3.55
  14   1  10   43.97    3.11
  14   1  13   45.40    6.97
  14   1  16    0.70    0.78
  14   1  19    9.14    1.35
  14   1  22    0.80    0.86
  14   1  25    2.79    0.87
  14   1  28    0.96    0.72
  14   1  31    0.51    0.73
  14   2 -30    0.50    0.66
  14   2 -27    0.66    0.91
  14   2 -24    1.89    0.96
  14   2 -21    4.49    0.72
  14   2 -18   33.25    1.73
  14   2 -15    2.11    0.60
  14   2 -12    4.30    1.72
  14   2  -9   20.39    2.11
  14   2  -6   35.63    2.54
  14   2  -3  113.55    2.26
  14   2   0  513.23    7.83
  14   2   3    4.42    0.77
  14   2   6  195.56    7.65
  14   2   9   86.83    2.60
  14   2  12  136.11    3.89
  14   2  15    3.22    0.69
  14   2  18   13.13    1.32
  14   2  21    4.17    0.74
  14   2  24    4.93    1.03
  14   2  27    6.17    0.84
  14   2  30    0.12    0.72
  14   3 -28    0.16    0.90
  14   3 -25    2.33    0.85
  14   3 -22    3.62    1.17
  14   3 -19    8.60    1.19
  14   3 -16    6.43    0.86
  14   3 -13   98.40    5.64
  14   3 -10   14.49    1.45
  14   3  -7  136.49    7.96
  14   3  -4   17.12    1.37
  14   3  -1    0.06    1.02
  14   3   2  169.26    4.03
  14   3   5  180.16    4.71
  14   3   8   25.25    0.95
  14   3  11   62.17    2.13
  14   3  14    3.12    0.51
  14   3  17   11.96    1.21
  14   3  20   10.39    0.67
  14   3  23    1.59    0.72
  14   3  26    2.06    0.81
  14   3  29    0.37    1.08
  14   4 -29    0.19    0.82
  14   4 -26    0.03    0.87
  14   4 -23    4.45    0.82
  14   4 -20    1.93    0.89
  14   4 -17    2.30    1.12
  14   4 -14    9.94    1.28
  14   4 -11    6.04    1.57
  14   4  -8   13.10    0.99
  14   4  -5   73.43    3.81
  14   4  -2   57.23    1.75
  14   4   1  232.98    4.34
  14   4   4  222.82    4.90
  14   4   7   33.97    1.69
  14   4  10  101.46    3.28
  14   4  13    0.70    0.44
  14   4  16    3.18    0.44
  14   4  19    0.89    0.65
  14   4  22    0.41    0.73
  14   4  25    1.50    0.71
  14   4  28    0.83    0.72
  14   5 -30    0.50    0.59
  14   5 -27    0.56    0.85
  14   5 -24    4.38    1.87
  14   5 -21   11.76    1.05
  14   5 -18    5.93    0.63
  14   5 -15   29.51    2.67
  14   5 -12   87.46    3.69
  14   5  -9   66.48    1.23
  14   5  -6    4.65    0.45
  14   5  -3   33.72    1.72
  14   5   0   15.94    1.52
  14   5   3  156.36    6.99
  14   5   6    5.19    1.16
  14   5   9   35.68    1.62
  14   5  12   35.12    1.13
  14   5  15   24.42    1.17
  14   5  18    1.27    1.19
  14   5  21    0.91    0.68
  14   5  24    3.40    0.84
  14   5  27    0.99    0.77
  14   5  30    0.10    0.89
  14   6 -28    0.05    0.81
  14   6 -25    2.17    0.98
  14   6 -22    1.89    0.89
  14   6 -19   14.37    2.15
  14   6 -16    1.17    0.98
  14   6 -13   11.30    1.43
  14   6 -10    0.48    1.63
  14   6  -7  166.83    4.77
  14   6  -4   31.66    0.57
  14   6  -1   90.23    5.11
  14   6   2  558.70   27.97
  14   6   5   16.22    0.96
  14   6   8    6.56    0.73
  14   6  11   29.06    1.07
  14   6  14   39.58    2.07
  14   6  17   22.13    0.67
  14   6  20   12.39    1.20
  14   6  23    6.46    1.55
  14   6  26    1.58    0.95
  14   6  29    1.74    0.77
  14   7 -29    0.45    0.60
  14   7 -26    0.84    0.88
  14   7 -23    9.90    1.86
  14   7 -20    7.36    1.05
  14   7 -17    4.67    0.67
  14   7 -14   49.92    1.35
  14   7 -11  143.95    3.30
  14   7  -8   25.86    1.18
  14   7  -5  275.76   10.76
  14   7  -2   87.79    2.37
  14   7   1   23.37    3.03
  14   7   4   15.93    4.28
  14   7   7   56.33    1.41
  14   7  10   19.47    0.95
  14   7  13   22.52    0.93
  14   7  16    5.33    0.57
  14   7  19   18.79    1.20
  14   7  22    0.30    0.71
  14   7  25    0.79    0.77
  14   7  28    1.85    0.79
  14   8 -27    1.47    0.90
  14   8 -24    4.34    0.87
  14   8 -21    8.83    1.00
  14   8 -18    8.92    1.81
  14   8 -15    5.54    0.58
  14   8 -12    8.09    1.18
  14   8  -9   81.02    2.00
  14   8  -6   59.73    2.46
  14   8  -3  132.03    3.45
  14   8   0  283.46   13.26
  14   8   3   14.47    1.47
  14   8   6  111.89    3.74
  14   8   9   15.22    0.87
  14   8  12    3.02    1.29
  14   8  15    8.19    1.07
  14   8  18    3.35    0.76
  14   8  21    2.80    1.51
  14   8  24    1.41    0.83
  14   8  27    0.53    0.74
  14   9 -28    0.76    0.64
  14   9 -25    1.44    0.83
  14   9 -22   11.31    2.65
  14   9 -19    2.40    0.87
  14   9 -16    3.94    0.66
  14   9 -13   36.59    1.64
  14   9 -10   31.11    1.24
  14   9  -7   20.59    1.43
  14   9  -4  117.96    2.62
  14   9  -1   18.82    3.14
  14   9   2   60.59    0.82
  14   9   5    3.17    0.60
  14   9   8    7.16    1.06
  14   9  11    2.23    0.59
  14   9  14    8.89    1.22
  14   9  17   32.31    2.07
  14   9  20    0.20    0.85
  14   9  23    0.18    0.88
  14   9  26    0.32    0.68
  14   9  29    0.13    0.77
  14  10 -26    1.02    0.89
  14  10 -23    2.10    0.83
  14  10 -20    8.07    2.31
  14  10 -17   15.65    1.28
  14  10 -14    3.73    0.56
  14  10 -11    8.99    0.85
  14  10  -8   13.24    0.56
  14  10  -5   12.55    0.77
  14  10  -2   10.30    1.00
  14  10   1    8.92    1.21
  14  10   4   59.09    3.19
  14  10   7    2.01    0.54
  14  10  10    5.02    0.63
  14  10  13    1.03    0.46
  14  10  16   18.34    1.02
  14  10  19   20.08    1.21
  14  10  22    8.59    1.76
  14  10  25    0.03    0.83
  14  10  28    1.03    0.80
  14  11 -27    0.54    0.63
  14  11 -24    0.76    0.85
  14  11 -21    1.90    0.73
  14  11 -18    1.98    0.81
  14  11 -15    8.98    1.23
  14  11 -12    4.43    1.63
  14  11  -9   30.91    1.47
  14  11  -6   32.91    1.12
  14  11  -3   19.50    0.63
  14  11   0   47.21    1.73
  14  11   3   31.70    1.54
  14  11   6   12.79    0.84
  14  11   9    6.99    0.94
  14  11  12   26.86    0.66
  14  11  15   19.64    1.99
  14  11  18   13.11    1.20
  14  11  21    0.28    0.77
  14  11  24    0.51    0.85
  14  11  27    0.92    0.66
  14  12 -28    0.32    1.08
  14  12 -25    1.87    0.95
  14  12 -22    0.98    0.83
  14  12 -19    4.08    0.73
  14  12 -16    0.81    0.58
  14  12 -13   31.85    1.55
  14  12 -10   20.05    1.82
  14  12  -7    9.76    0.57
  14  12  -4   12.69    1.90
  14  12  -1    7.29    0.57
  14  12   2  118.70    2.70
  14  12   5   64.84    0.92
  14  12   8    8.45    0.87
  14  12  11   13.68    1.08
  14  12  14   12.00    0.76
  14  12  17    4.69    1.46
  14  12  20    4.02    0.80
  14  12  23    0.42    0.89
  14  12  26    0.03    0.68
  14  13 -26    0.21    0.64
  14  13 -23    0.63    0.85
  14  13 -20   10.21    1.68
  14  13 -17    0.94    0.72
  14  13 -14    9.12    1.21
  14  13 -11   15.44    1.52
  14  13  -8    2.97    0.53
  14  13  -5   68.99    2.52
  14  13  -2   36.24    2.17
  14  13   1   45.40    2.16
  14  13   4   10.94    1.72
  14  13   7   11.19    1.28
  14  13  10   26.32    1.52
  14  13  13    1.61    0.70
  14  13  16    8.08    0.64
  14  13  19    6.24    1.64
  14  13  22    0.75    1.68
  14  13  25    0.01    0.83
  14  14   0  169.58   10.07
  14  14   3    9.91    0.97
  14  14   6    9.17    0.40
  14  14   9   13.68    2.48
  14  14  12    4.61    1.05
  14  14  15    0.31    0.72
  14  14  18    0.90    0.75
  14  14  21    0.16    0.92
  14  14  24    0.54    0.89
  14  14  27    1.63    1.40
  15   0 -30    0.06    0.79
  15   0 -27    0.62    1.25
  15   0 -24    0.26    1.26
  15   0 -21   26.05    2.15
  15   0 -18    2.50    1.26
  15   0 -15   10.11    0.76
  15   0 -12   11.58    1.56
  15   0  -9  179.93   11.48
  15   0  -6    2.42    0.76
  15   0  -3  158.58    6.49
  15   0   0  150.94    2.83
  15   0   3  269.60    9.29
  15   0   6  665.17   12.64
  15   0   9   78.44    3.84
  15   0  12   43.90    1.38
  15   0  15   71.80    1.59
  15   0  18   19.36    1.01
  15   0  21    0.19    0.73
  15   0  24    2.87    0.73
  15   0  27    2.50    0.86
  15   0  30    2.23    0.79
  15   1 -28    0.73    1.10
  15   1 -25    2.49    0.89
  15   1 -22    5.71    1.47
  15   1 -19   33.67    2.14
  15   1 -16    6.48    1.99
  15   1 -13   20.67    2.50
  15   1 -10  223.52    7.08
  15   1  -7  177.06    9.22
  15   1  -4  164.65    6.82
  15   1  -1   60.12    1.47
  15   1   2   46.13    0.75
  15   1   5  169.28    5.02
  15   1   8   35.43    1.88
  15   1  11   16.38    2.77
  15   1  14   39.78    0.99
  15   1  17   41.17    1.73
  15   1  20   13.97    0.92
  15   1  23    3.34    1.62
  15   1  26    1.42    0.85
  15   1  29    2.14    0.86
  15   2 -29    1.26    0.79
  15   2 -26    1.10    0.86
  15   2 -23   11.77    0.87
  15   2 -20    5.20    0.94
  15   2 -17   42.21    1.38
  15   2 -14   45.54    1.82
  15   2 -11   19.73    0.81
  15   2  -8   21.67    1.26
  15   2  -5  264.13    8.13
  15   2  -2  144.04    6.73
  15   2   1  193.01    5.28
  15   2   4    1.41    1.04
  15   2   7    0.04    0.93
  15   2  10   19.46    1.68
  15   2  13   44.91    2.22
  15   2  16   10.06    0.98
  15   2  19    5.74    0.92
  15   2  22    0.74    0.85
  15   2  25    2.48    0.80
  15   2  28    2.19    0.78
  15   3 -30    0.41    0.59
  15   3 -27    0.95    0.86
  15   3 -24    7.67    1.14
  15   3 -21    4.16    1.55
  15   3 -18    2.25    1.24
  15   3 -15    5.81    1.94
  15   3 -12   58.77    2.08
  15   3  -9    9.74    1.87
  15   3  -6   56.81    1.95
  15   3  -3   78.23    4.87
  15   3   0   90.71    3.00
  15   3   3  323.94    7.48
  15   3   6   23.75    0.53
  15   3   9    4.22    2.05
  15   3  12   28.51    1.40
  15   3  15   47.46    1.87
  15   3  18    8.96    1.27
  15   3  21    4.91    1.44
  15   3  24    3.44    0.98
  15   3  27    0.50    0.75
  15   3  30    0.35    0.69
  15   4 -28    0.83    0.90
  15   4 -25    0.04    0.89
  15   4 -22   17.90    1.46
  15   4 -19   11.84    1.74
  15   4 -16   10.17    1.31
  15   4 -13    1.36    1.39
  15   4 -10   21.36    1.64
  15   4  -7    9.57    0.81
  15   4  -4   74.84    1.14
  15   4  -1   33.03    2.75
  15   4   2   63.01    7.16
  15   4   5   55.93    1.77
  15   4   8   12.14    0.57
  15   4  11   52.46    2.13
  15   4  14   18.95    0.98
  15   4  17    8.06    0.58
  15   4  20    0.17    0.68
  15   4  23    0.73    0.84
  15   4  26    0.25    0.76
  15   4  29    0.74    0.76
  15   5 -29    0.17    0.80
  15   5 -26    1.18    0.97
  15   5 -23    3.86    0.88
  15   5 -20    5.70    0.99
  15   5 -17    0.43    0.74
  15   5 -14   31.39    2.16
  15   5 -11   62.72    2.71
  15   5  -8   19.62    2.09
  15   5  -5   62.83    3.45
  15   5  -2  109.68    2.07
  15   5   1    9.29    1.75
  15   5   4   18.14    0.85
  15   5   7   21.86    1.39
  15   5  10    6.99    0.89
  15   5  13   13.69    0.85
  15   5  16   13.45    1.14
  15   5  19    4.66    0.87
  15   5  22    4.27    0.77
  15   5  25    0.36    0.72
  15   5  28    0.49    0.72
  15   6 -27    1.29    0.91
  15   6 -24    0.25    0.83
  15   6 -21   10.02    1.19
  15   6 -18   21.94    1.45
  15   6 -15   12.82    1.23
  15   6 -12   18.11    1.55
  15   6  -9   55.45    1.71
  15   6  -6   39.30    3.74
  15   6  -3  119.52    8.04
  15   6   0  108.24    3.26
  15   6   3    0.77    0.83
  15   6   6    5.60    0.67
  15   6   9    2.80    0.48
  15   6  12   37.56    2.51
  15   6  15   13.08    1.43
  15   6  18    3.22    0.51
  15   6  21   10.25    1.85
  15   6  24    1.46    0.72
  15   6  27    0.49    0.78
  15   7 -28    1.35    0.82
  15   7 -25    1.34    0.85
  15   7 -22    1.37    0.77
  15   7 -19    4.01    0.84
  15   7 -16    2.82    0.81
  15   7 -13   57.11    1.85
  15   7 -10   13.09    1.07
  15   7  -7   85.62    5.37
  15   7  -4   65.24    3.80
  15   7  -1   55.86    4.01
  15   7   2   52.13    4.67
  15   7   5   21.83    1.34
  15   7   8    0.47    1.14
  15   7  11   48.10    2.28
  15   7  14    4.23    0.59
  15   7  17    0.03    0.51
  15   7  20    2.53    0.70
  15   7  23    1.17    0.73
  15   7  26    0.40    0.76
  15   7  29    0.78    0.73
  15   8 -29    0.73    0.66
  15   8 -26    0.21    0.84
  15   8 -23    0.06    0.78
  15   8 -20   22.37    1.05
  15   8 -17   17.45    0.93
  15   8 -14   18.98    1.99
  15   8 -11    2.24    0.62
  15   8  -8    3.65    1.07
  15   8  -5   47.80    2.02
  15   8  -2    7.13    2.30
  15   8   1    3.28    0.78
  15   8   4   75.71    1.72
  15   8   7    3.93    0.87
  15   8  10   29.57    1.72
  15   8  13   12.41    0.93
  15   8  16    6.28    1.04
  15   8  19    1.26    0.67
  15   8  22    6.63    0.81
  15   8  25    2.55    0.66
  15   8  28    0.32    0.74
  15   9 -27    0.11    0.82
  15   9 -24    2.26    0.84
  15   9 -21    5.76    0.91
  15   9 -18    0.42    0.68
  15   9 -15   11.37    1.46
  15   9 -12   46.75    1.31
  15   9  -9    0.74    0.44
  15   9  -6   17.06    1.28
  15   9  -3    2.67    0.69
  15   9   0   53.28    3.21
  15   9   3   40.71    2.06
  15   9   6   35.18    1.44
  15   9   9   10.20    0.42
  15   9  12   29.36    1.40
  15   9  15   17.13    0.91
  15   9  18    2.74    0.54
  15   9  21    6.65    0.72
  15   9  24    1.49    0.94
  15   9  27    0.02    0.73
  15  10 -28    1.10    0.64
  15  10 -25    0.36    1.08
  15  10 -22    0.21    0.70
  15  10 -19   11.62    1.15
  15  10 -16   16.42    2.14
  15  10 -13   10.57    1.42
  15  10 -10   31.13    1.09
  15  10  -7   18.86    1.43
  15  10  -4    2.45    0.62
  15  10  -1    1.36    0.64
  15  10   2  137.94    4.59
  15  10   5   11.22    0.88
  15  10   8    3.18    0.41
  15  10  11    4.79    0.47
  15  10  14    9.67    1.61
  15  10  17    6.96    1.40
  15  10  20    2.14    0.76
  15  10  23    1.66    1.04
  15  10  26    0.21    0.62
  15  11 -26    3.14    0.92
  15  11 -23    1.72    0.94
  15  11 -20    3.52    0.77
  15  11 -17    1.70    0.68
  15  11 -14   12.86    1.33
  15  11 -11   21.23    2.04
  15  11  -8   34.38    1.10
  15  11  -5   26.61    1.88
  15  11  -2  177.55    5.49
  15  11   1   78.96    2.19
  15  11   4   54.76    1.83
  15  11   7   27.58    1.89
  15  11  10   13.53    0.44
  15  11  13    6.91    1.22
  15  11  16    4.09    1.52
  15  11  19    2.95    1.11
  15  11  22    0.34    0.76
  15  11  25    0.42    0.66
  15  12 -27    0.05    0.59
  15  12 -24    0.05    0.85
  15  12 -21    0.43    0.82
  15  12 -18   12.42    1.28
  15  12 -15    8.05    0.94
  15  12 -12   14.30    0.85
  15  12  -9   16.48    2.20
  15  12  -6    0.12    0.56
  15  12  -3    0.96    0.86
  15  12   0    6.06    1.21
  15  12   3   11.61    1.99
  15  12   6   58.58    2.55
  15  12   9    3.34    1.35
  15  12  12    2.76    0.59
  15  12  15    8.75    0.81
  15  12  18    3.96    1.26
  15  12  21    4.07    1.07
  15  12  24    1.38    0.86
  15  12  27    1.29    0.72
  15  13 -25    0.06    0.82
  15  13 -22    0.32    0.81
  15  13 -19    0.90    1.01
  15  13 -16   15.60    1.13
  15  13 -13   15.03    1.47
  15  13 -10   34.65    1.70
  15  13  -7    8.43    0.42
  15  13  -4   55.09    1.37
  15  13  -1    4.35    0.64
  15  13   2   97.85    3.34
  15  13   5   23.35    1.57
  15  13   8   34.96    2.72
  15  13  11   23.25    1.32
  15  13  14   27.69    1.27
  15  13  17   10.08    1.45
  15  13  20    1.80    0.77
  15  13  23    1.88    0.84
  15  13  26    0.46    0.83
  15  14 -26    1.17    0.84
  15  14 -23    1.12    0.88
  15  14 -20    9.91    0.86
  15  14 -17    9.84    1.93
  15  14 -14    2.70    0.88
  15  14 -11    5.37    1.19
  15  14  -8    0.70    0.51
  15  14  -5   48.89    1.16
  15  14  -2    9.33    0.60
  15  14   1   59.78    1.90
  15  14   4    8.05    0.41
  15  14   7   58.66    1.40
  15  14  10    0.06    0.79
  15  14  13    6.63    1.31
  15  14  16    3.05    0.64
  15  14  19    8.86    1.11
  15  14  22    2.22    0.81
  15  14  25    0.93    0.68
  15  15   0    6.09    1.89
  15  15   3    5.22    1.31
  15  15   6    2.94    0.90
  15  15   9   10.60    1.35
  15  15  12    0.28    0.54
  15  15  15   20.75    2.63
  15  15  18    3.61    1.22
  15  15  21    1.40    0.86
  15  15  24    0.13    1.03
  16   0 -29    0.14    0.82
  16   0 -26    0.67    0.86
  16   0 -23    3.97    0.78
  16   0 -20   73.08    2.78
  16   0 -17    0.87    1.81
  16   0 -14   74.05    1.85
  16   0 -11   15.59    0.84
  16   0  -8  227.93   21.06
  16   0  -5    5.38    0.75
  16   0  -2    3.51    0.46
  16   0   1    4.21    5.12
  16   0   4  886.59   44.52
  16   0   7   31.80    1.90
  16   0  10   69.43    1.37
  16   0  13   24.87    2.06
  16   0  16  136.02    5.47
  16   0  19    1.92    0.66
  16   0  22   21.38    0.86
  16   0  25    1.68    0.76
  16   0  28    3.87    0.88
  16   1 -30    0.56    0.69
  16   1 -27    0.04    0.84
  16   1 -24    1.71    1.19
  16   1 -21    8.63    1.05
  16   1 -18   17.32    1.74
  16   1 -15    4.65    2.60
  16   1 -12    3.98    1.79
  16   1  -9  111.41    3.78
  16   1  -6  502.86   16.63
  16   1  -3   25.60    1.31
  16   1   0  124.83    4.58
  16   1   3  130.38    5.68
  16   1   6  140.24    5.07
  16   1   9   38.59    1.25
  16   1  12   11.04    1.66
  16   1  15   31.90    2.43
  16   1  18   13.44    1.28
  16   1  21    9.68    1.26
  16   1  24    2.06    0.71
  16   1  27    1.84    0.82
  16   1  30    0.04    0.69
  16   2 -28    0.24    0.85
  16   2 -25    0.06    0.89
  16   2 -22    7.02    1.25
  16   2 -19    4.18    1.06
  16   2 -16    2.17    0.68
  16   2 -13   66.10    2.78
  16   2 -10   48.26    3.97
  16   2  -7   91.04    2.59
  16   2  -4   50.35    1.18
  16   2  -1   11.27    3.11
  16   2   2  369.80    5.87
  16   2   5    3.55    0.70
  16   2   8    1.78    0.68
  16   2  11   15.41    1.29
  16   2  14   35.81    1.12
  16   2  17    0.43    0.69
  16   2  20    3.58    0.91
  16   2  23    0.69    0.75
  16   2  26    8.97    0.88
  16   2  29    0.26    0.78
  16   3 -29    0.09    0.84
  16   3 -26    2.08    0.86
  16   3 -23    5.81    1.44
  16   3 -20    3.56    0.97
  16   3 -17    0.65    1.06
  16   3 -14   14.66    1.58
  16   3 -11   77.21    4.10
  16   3  -8   43.59    1.62
  16   3  -5   65.90    2.14
  16   3  -2   37.15    0.71
  16   3   1   35.57    3.69
  16   3   4  223.63    4.46
  16   3   7    6.45    0.48
  16   3  10   55.79    1.92
  16   3  13  106.28    3.08
  16   3  16   22.47    1.02
  16   3  19    0.43    0.60
  16   3  22   16.92    1.58
  16   3  25    4.22    0.99
  16   3  28    0.68    0.76
  16   4 -27    0.55    0.85
  16   4 -24    0.73    0.81
  16   4 -21   18.29    1.57
  16   4 -18    0.16    0.94
  16   4 -15  119.18    4.07
  16   4 -12   65.65    3.47
  16   4  -9   88.66    2.07
  16   4  -6   60.76    1.04
  16   4  -3  392.42    7.64
  16   4   0   32.52    1.54
  16   4   3   58.79    3.92
  16   4   6    3.84    0.52
  16   4   9   34.76    1.43
  16   4  12    8.63    0.87
  16   4  15    6.52    0.49
  16   4  18    3.51    0.54
  16   4  21    3.16    0.74
  16   4  24    1.52    0.76
  16   4  27    2.79    0.86
  16   5 -28    0.61    0.82
  16   5 -25    0.03    0.88
  16   5 -22    1.46    1.10
  16   5 -19   21.43    1.22
  16   5 -16    3.77    1.44
  16   5 -13   17.27    2.25
  16   5 -10    0.78    1.05
  16   5  -7   89.46    3.32
  16   5  -4   19.57    2.39
  16   5  -1  196.44    6.57
  16   5   2   12.55    1.15
  16   5   5   45.83    1.30
  16   5   8    5.60    1.12
  16   5  11   46.67    2.16
  16   5  14   11.77    0.70
  16   5  17    9.94    1.79
  16   5  20   12.87    1.62
  16   5  23    6.35    1.03
  16   5  26    0.40    0.85
  16   5  29    0.18    0.71
  16   6 -29    0.34    0.57
  16   6 -26    0.55    0.99
  16   6 -23    1.43    2.02
  16   6 -20   10.78    1.45
  16   6 -17    0.38    0.84
  16   6 -14   26.18    1.63
  16   6 -11   13.74    0.99
  16   6  -8   23.76    1.74
  16   6  -5   15.23    1.78
  16   6  -2   88.22    8.22
  16   6   1    8.72    0.58
  16   6   4   28.28    1.62
  16   6   7   47.09    2.52
  16   6  10    6.92    0.68
  16   6  13   40.14    2.17
  16   6  16   15.21    1.27
  16   6  19   21.15    1.23
  16   6  22    6.35    0.77
  16   6  25    6.30    0.74
  16   6  28    0.07    0.76
  16   7 -27    1.34    0.91
  16   7 -24    1.25    0.95
  16   7 -21    1.61    0.71
  16   7 -18    6.95    1.11
  16   7 -15   17.16    1.91
  16   7 -12   12.07    1.10
  16   7  -9   35.85    1.97
  16   7  -6   97.54    2.46
  16   7  -3   91.38    4.59
  16   7   0   49.55    3.46
  16   7   3   11.35    1.20
  16   7   6   13.20    0.69
  16   7   9   21.33    1.38
  16   7  12   66.17    2.41
  16   7  15   16.09    1.23
  16   7  18    1.38    0.66
  16   7  21   10.98    1.62
  16   7  24    4.05    0.87
  16   7  27    0.20    0.74
  16   8 -28    0.58    0.83
  16   8 -25    0.60    0.87
  16   8 -22    1.06    0.91
  16   8 -19   22.38    2.67
  16   8 -16   16.44    0.95
  16   8 -13    6.31    1.14
  16   8 -10    4.87    0.50
  16   8  -7   61.75    2.05
  16   8  -4   60.01    3.11
  16   8  -1    3.09    0.67
  16   8   2   41.30    1.59
  16   8   5  117.85    4.11
  16   8   8   32.40    2.32
  16   8  11    0.65    0.48
  16   8  14   11.10    1.49
  16   8  17    5.97    0.66
  16   8  20    1.68    1.08
  16   8  23    1.35    0.83
  16   8  26    2.68    0.75
  16   9 -26    0.22    0.85
  16   9 -23    1.98    1.03
  16   9 -20    1.93    0.75
  16   9 -17    4.88    0.82
  16   9 -14   19.41    1.08
  16   9 -11    9.31    1.14
  16   9  -8   26.13    1.67
  16   9  -5   36.21    3.06
  16   9  -2   34.25    1.04
  16   9   1   65.19    4.80
  16   9   4   32.50    1.60
  16   9   7   49.61    1.56
  16   9  10   14.66    1.04
  16   9  13   51.84    1.38
  16   9  16   10.20    1.11
  16   9  19    2.77    1.81
  16   9  22    7.42    1.21
  16   9  25    0.12    0.65
  16   9  28    1.54    0.92
  16  10 -27    1.87    0.82
  16  10 -24    0.49    0.87
  16  10 -21    3.20    0.83
  16  10 -18   18.09    1.42
  16  10 -15   53.31    2.75
  16  10 -12   12.28    1.17
  16  10  -9   29.82    0.70
  16  10  -6    0.04    0.87
  16  10  -3   47.20    2.33
  16  10   0   83.41    2.19
  16  10   3   98.29    2.50
  16  10   6   14.46    0.80
  16  10   9    7.35    0.42
  16  10  12    7.40    0.53
  16  10  15    1.27    0.65
  16  10  18    4.62    0.89
  16  10  21    7.13    1.43
  16  10  24    0.87    0.92
  16  10  27    0.36    0.84
  16  11 -25    2.61    0.92
  16  11 -22    0.44    0.91
  16  11 -19    2.31    1.31
  16  11 -16    0.40    0.90
  16  11 -13   45.88    3.49
  16  11 -10   28.00    1.15
  16  11  -7   34.41    1.33
  16  11  -4   72.39    2.86
  16  11  -1  219.46    5.95
  16  11   2   61.70    2.92
  16  11   5    2.70    0.55
  16  11   8    9.36    0.76
  16  11  11    1.16    0.46
  16  11  14    3.17    1.46
  16  11  17    6.78    1.13
  16  11  20    4.80    1.16
  16  11  23    0.04    0.85
  16  11  26    0.21    0.70
  16  12 -26    1.02    0.90
  16  12 -23    3.79    1.13
  16  12 -20    6.42    1.37
  16  12 -17    4.39    1.11
  16  12 -14    6.71    1.18
  16  12 -11   43.84    2.92
  16  12  -8    8.10    0.97
  16  12  -5    3.43    2.02
  16  12  -2    1.11    0.44
  16  12   1   25.24    1.50
  16  12   4   16.93    0.85
  16  12   7   17.44    0.74
  16  12  10    5.82    0.46
  16  12  13   38.26    1.42
  16  12  16   15.55    1.24
  16  12  19   11.51    1.33
  16  12  22    1.07    0.82
  16  12  25    1.33    0.69
  16  13 -24    0.77    0.83
  16  13 -21    5.41    1.15
  16  13 -18    3.52    0.78
  16  13 -15    6.01    1.01
  16  13 -12   12.05    1.25
  16  13  -9   97.54    1.90
  16  13  -6   51.11    2.26
  16  13  -3   23.15    1.56
  16  13   0   23.34    1.79
  16  13   3   93.94    3.00
  16  13   6   33.82    2.00
  16  13   9    5.03    0.95
  16  13  12    5.90    3.38
  16  13  15   32.69    1.98
  16  13  18    6.37    1.49
  16  13  21    2.41    0.82
  16  13  24    1.61    0.64
  16  14 -25    0.78    0.72
  16  14 -22    0.17    0.85
  16  14 -19    5.00    1.44
  16  14 -16   29.06    2.73
  16  14 -13   18.32    1.28
  16  14 -10    4.84    0.59
  16  14  -7    2.21    0.47
  16  14  -4   12.71    1.94
  16  14  -1    9.83    0.72
  16  14   2    5.95    1.22
  16  14   5    0.07    0.72
  16  14   8    6.29    1.24
  16  14  11   27.70    2.02
  16  14  14    6.55    0.89
  16  14  17   11.65    1.94
  16  14  20    4.77    1.74
  16  14  23    1.25    0.95
  16  15 -23    1.57    2.13
  16  15 -20    6.83    1.77
  16  15 -17    1.36    1.02
  16  15 -14   13.12    0.95
  16  15 -11    6.00    0.95
  16  15  -8   24.72    1.18
  16  15  -5    2.68    0.46
  16  15  -2   38.19    1.35
  16  15   1   27.60    1.56
  16  15   4    0.57    0.58
  16  15   7   20.53    1.56
  16  15  10    4.18    0.63
  16  15  13   49.61    2.21
  16  15  16    4.50    1.06
  16  15  19    0.05    0.96
  16  15  22    2.65    2.53
  16  16   0   60.81    4.46
  16  16   3    8.19    0.90
  16  16   6   13.21    3.42
  16  16   9    8.56    1.15
  16  16  12   50.18    3.23
  16  16  15    3.78    1.00
  16  16  18    4.83    1.14
  16  16  21    0.20    2.01
  17   0 -28    1.61    0.99
  17   0 -25    4.83    1.49
  17   0 -22    0.72    0.80
  17   0 -19    3.03    1.19
  17   0 -16    4.53    0.98
  17   0 -13    6.05    0.62
  17   0 -10   14.33    0.89
  17   0  -7    1.54    1.31
  17   0  -4    2.12    2.60
  17   0  -1   51.86    1.45
  17   0   2  187.99    6.05
  17   0   5  101.03    2.09
  17   0   8    3.04    1.13
  17   0  11    2.84    0.57
  17   0  14  198.80    8.58
  17   0  17    2.55    0.65
  17   0  20    0.02    0.69
  17   0  23    4.46    0.78
  17   0  26   14.69    2.18
  17   0  29    0.29    0.75
  17   1 -29    0.35    0.83
  17   1 -26    0.86    0.93
  17   1 -23    3.33    1.37
  17   1 -20    1.81    2.31
  17   1 -17    0.42    0.84
  17   1 -14    2.73    0.63
  17   1 -11   20.63    2.05
  17   1  -8   49.02    3.90
  17   1  -5   45.73    1.72
  17   1  -2    4.73    1.74
  17   1   1   48.66    5.91
  17   1   4   39.19    0.64
  17   1   7   29.50    1.24
  17   1  10   73.91    2.04
  17   1  13  118.30    3.87
  17   1  16   43.98    1.22
  17   1  19    7.04    0.95
  17   1  22    2.23    0.77
  17   1  25   13.77    1.26
  17   1  28    0.83    1.13
  17   2 -30    0.29    0.88
  17   2 -27    0.27    0.90
  17   2 -24    0.26    0.86
  17   2 -21   19.56    1.93
  17   2 -18    2.91    1.03
  17   2 -15   22.77    1.41
  17   2 -12   15.82    1.56
  17   2  -9   73.94    1.40
  17   2  -6  106.67    1.52
  17   2  -3   39.54    2.24
  17   2   0   26.76    1.55
  17   2   3   33.60    4.05
  17   2   6    9.13    0.68
  17   2   9   26.48    2.38
  17   2  12   14.65    3.49
  17   2  15    1.13    0.50
  17   2  18    7.81    0.55
  17   2  21    5.32    1.09
  17   2  24    5.89    1.11
  17   2  27    0.31    0.77
  17   3 -28    1.10    0.88
  17   3 -25    0.08    0.84
  17   3 -22    0.50    0.79
  17   3 -19   34.41    2.40
  17   3 -16   14.23    2.06
  17   3 -13   21.21    1.70
  17   3 -10  166.85    5.00
  17   3  -7   20.33    1.43
  17   3  -4  134.83    5.38
  17   3  -1    6.01    3.72
  17   3   2  165.34    4.04
  17   3   5   31.98    1.53
  17   3   8   48.70    1.72
  17   3  11   30.06    1.36
  17   3  14   35.19    1.13
  17   3  17    4.14    0.49
  17   3  20   14.18    1.74
  17   3  23    3.57    0.92
  17   3  26    0.69    0.84
  17   3  29    0.33    0.76
  17   4 -29    0.05    0.78
  17   4 -26    1.84    0.90
  17   4 -23    2.32    1.24
  17   4 -20   21.42    2.67
  17   4 -17    9.35    1.05
  17   4 -14   56.57    2.42
  17   4 -11   13.89    1.41
  17   4  -8   39.88    1.63
  17   4  -5   58.95    3.64
  17   4  -2  332.89   11.44
  17   4   1   27.52    2.81
  17   4   4   12.87    0.71
  17   4   7   54.49    3.46
  17   4  10    6.26    0.84
  17   4  13    3.70    0.81
  17   4  16    2.67    0.89
  17   4  19    1.85    0.58
  17   4  22    0.41    0.93
  17   4  25    1.41    0.71
  17   4  28    0.91    0.76
  17   5 -27    0.25    0.80
  17   5 -24    0.10    0.81
  17   5 -21    1.08    0.79
  17   5 -18   10.09    1.67
  17   5 -15   10.53    0.93
  17   5 -12   30.73    1.65
  17   5  -9   62.12    2.11
  17   5  -6  218.51    7.17
  17   5  -3   89.72    4.19
  17   5   0   12.39    1.84
  17   5   3    7.20    1.08
  17   5   6   53.25    2.49
  17   5   9   43.50    1.95
  17   5  12    0.50    0.52
  17   5  15    4.72    0.56
  17   5  18    5.09    0.60
  17   5  21    5.67    0.97
  17   5  24    3.00    0.71
  17   5  27    0.53    0.77
  17   6 -28    0.13    0.86
  17   6 -25    0.31    0.88
  17   6 -22    0.54    0.83
  17   6 -19    9.90    1.73
  17   6 -16   18.28    2.32
  17   6 -13   15.33    1.60
  17   6 -10    5.79    0.94
  17   6  -7    5.15    0.92
  17   6  -4    9.19    1.70
  17   6  -1   44.47    3.33
  17   6   2   10.22    1.08
  17   6   5   39.14    1.05
  17   6   8    3.98    0.85
  17   6  11    2.85    1.14
  17   6  14   25.72    0.88
  17   6  17   39.38    1.81
  17   6  20   25.77    2.10
  17   6  23    0.43    0.83
  17   6  26    2.62    0.78
  17   7 -26    0.48    0.83
  17   7 -23    0.49    1.89
  17   7 -20    4.66    0.79
  17   7 -17    6.26    0.95
  17   7 -14   10.16    1.85
  17   7 -11    0.49    0.62
  17   7  -8   94.38    3.89
  17   7  -5   33.54    1.85
  17   7  -2    2.29    1.40
  17   7   1   77.25    3.65
  17   7   4   41.49    2.01
  17   7   7   44.99    1.75
  17   7  10   16.75    1.11
  17   7  13    4.89    0.66
  17   7  16   29.27    1.34
  17   7  19   10.37    1.15
  17   7  22    7.54    1.50
  17   7  25    0.41    0.87
  17   7  28    0.87    0.72
  17   8 -27    1.42    0.85
  17   8 -24    0.25    0.90
  17   8 -21    3.25    0.75
  17   8 -18    6.76    0.89
  17   8 -15    0.76    0.72
  17   8 -12    6.73    0.54
  17   8  -9   13.79    1.33
  17   8  -6   81.01    2.61
  17   8  -3    6.14    0.78
  17   8   0   51.18    1.73
  17   8   3    8.21    0.78
  17   8   6   32.75    1.73
  17   8   9   17.53    1.25
  17   8  12    5.43    0.60
  17   8  15    5.89    0.78
  17   8  18    0.38    0.55
  17   8  21    0.08    0.82
  17   8  24    1.45    0.78
  17   8  27    0.26    0.71
  17   9 -28    0.20    1.47
  17   9 -25    0.57    0.86
  17   9 -22    4.42    0.84
  17   9 -19    3.15    0.69
  17   9 -16    2.06    1.37
  17   9 -13    0.97    1.05
  17   9 -10    0.33    0.86
  17   9  -7   19.47    1.48
  17   9  -4   15.57    1.04
  17   9  -1    0.65    0.53
  17   9   2   19.91    1.77
  17   9   5    7.98    0.74
  17   9   8   11.88    0.85
  17   9  11    2.20    0.44
  17   9  14    1.52    1.10
  17   9  17    7.18    0.65
  17   9  20    2.30    0.75
  17   9  23    2.28    0.82
  17   9  26    0.49    0.72
  17  10 -26    0.74    0.82
  17  10 -23    0.03    0.90
  17  10 -20    9.28    1.13
  17  10 -17    6.58    1.29
  17  10 -14    5.69    0.66
  17  10 -11    4.01    1.20
  17  10  -8   28.92    1.69
  17  10  -5   28.36    2.64
  17  10  -2   37.62    1.28
  17  10   1   60.33    1.62
  17  10   4   54.92    1.92
  17  10   7   20.96    0.83
  17  10  10    8.73    1.01
  17  10  13    7.32    1.37
  17  10  16    1.51    1.06
  17  10  19    3.41    0.78
  17  10  22    0.44    0.83
  17  10  25    0.01    0.80
  17  11 -27    0.11    1.01
  17  11 -24    0.92    0.88
  17  11 -21    0.32    0.83
  17  11 -18    6.10    1.03
  17  11 -15    2.70    1.30
  17  11 -12   19.85    1.08
  17  11  -9   26.45    1.48
  17  11  -6   59.88    2.05
  17  11  -3   53.55    3.50
  17  11   0   99.91    4.07
  17  11   3   14.41    0.53
  17  11   6    2.77    0.87
  17  11   9   15.25    1.33
  17  11  12   12.60    0.84
  17  11  15    7.15    0.92
  17  11  18    4.03    1.26
  17  11  21    1.77    0.77
  17  11  24    2.95    0.69
  17  12 -25    0.39    0.79
  17  12 -22    5.17    1.39
  17  12 -19    2.28    1.41
  17  12 -16   15.17    1.79
  17  12 -13   47.12    1.31
  17  12 -10   20.70    1.05
  17  12  -7    2.75    1.06
  17  12  -4   15.27    2.23
  17  12  -1   12.27    0.53
  17  12   2  116.16    4.41
  17  12   5   16.33    0.93
  17  12   8    1.94    0.69
  17  12  11    6.53    1.23
  17  12  14   37.09    1.47
  17  12  17   21.51    1.25
  17  12  20    4.52    1.13
  17  12  23    0.88    0.79
  17  12  26    2.95    1.11
  17  13 -23    1.30    0.87
  17  13 -20    1.58    0.86
  17  13 -17    5.82    0.93
  17  13 -14   18.39    1.69
  17  13 -11    7.44    1.11
  17  13  -8    4.07    1.02
  17  13  -5    9.97    1.04
  17  13  -2    2.72    0.51
  17  13   1   75.41    3.28
  17  13   4    2.34    0.85
  17  13   7    7.55    0.88
  17  13  10    5.89    2.01
  17  13  13   77.16    3.84
  17  13  16   10.38    0.88
  17  13  19    7.43    1.30
  17  13  22    1.12    1.13
  17  13  25    6.40    1.52
  17  14 -24    2.98    1.25
  17  14 -21    0.27    0.88
  17  14 -18    4.45    1.03
  17  14 -15    2.47    1.03
  17  14 -12    6.24    3.22
  17  14  -9    1.30    1.55
  17  14  -6    4.32    1.04
  17  14  -3    4.76    1.00
  17  14   0    0.49    0.57
  17  14   3    7.04    0.73
  17  14   6   26.42    1.19
  17  14   9    6.76    0.86
  17  14  12   33.86    2.49
  17  14  15    6.76    1.38
  17  14  18    2.56    1.67
  17  14  21    0.86    1.73
  17  14  24    0.78    0.91
  17  15 -22    0.12    1.97
  17  15 -19    3.16    1.27
  17  15 -16    1.39    1.12
  17  15 -13   11.07    1.40
  17  15 -10    7.27    1.77
  17  15  -7    8.29    1.08
  17  15  -4    2.43    1.22
  17  15  -1   18.36    1.27
  17  15   2    2.25    0.64
  17  15   5   23.91    2.33
  17  15   8    0.04    0.70
  17  15  11   22.74    3.04
  17  15  14    1.00    0.86
  17  15  17    1.42    1.43
  17  15  20    0.74    1.69
  17  15  23    3.64    2.08
  17  16 -23    0.03    1.94
  17  16 -20    0.56    2.21
  17  16 -17    6.06    1.60
  17  16 -14   11.48    1.60
  17  16 -11    9.49    1.53
  17  16  -8    5.65    0.96
  17  16  -5   13.74    2.67
  17  16  -2   15.53    2.21
  17  16   1    5.67    1.57
  17  16   4    9.28    0.89
  17  16   7    5.93    0.65
  17  16  10   27.80    2.97
  17  16  13    3.63    0.72
  17  16  16    0.43    1.28
  17  16  19    2.39    1.65
  17  16  22    4.01    2.15
  17  17   0   12.72    2.43
  17  17   3    3.01    1.00
  17  17   6    1.41    0.52
  17  17   9   14.18    1.32
  17  17  12    2.68    1.01
  17  17  15    4.43    1.52
  17  17  18    0.80    1.95
  17  17  21    0.61    1.92
  18   0 -30    0.30    0.93
  18   0 -27    4.68    0.93
  18   0 -24    1.22    0.85
  18   0 -21    0.25    1.28
  18   0 -18   25.13    2.01
  18   0 -15    0.08    0.67
  18   0 -12   62.03    1.16
  18   0  -9   94.63    7.89
  18   0  -6   88.49    3.43
  18   0  -3   41.16    1.69
  18   0   0    7.33    1.52
  18   0   3  139.93    3.85
  18   0   6  133.91    2.97
  18   0   9  119.28    2.36
  18   0  12   47.92    3.49
  18   0  15   16.17    0.85
  18   0  18   26.68    1.20
  18   0  21    3.00    0.62
  18   0  24   23.95    1.82
  18   0  27    1.79    0.79
  18   1 -28    0.07    0.80
  18   1 -25    1.35    0.85
  18   1 -22    0.50    0.92
  18   1 -19   10.53    1.15
  18   1 -16    1.71    0.86
  18   1 -13   30.82    2.59
  18   1 -10   30.89    1.70
  18   1  -7   45.29    2.04
  18   1  -4   77.27    3.06
  18   1  -1   88.43    3.03
  18   1   2  159.51    1.96
  18   1   5   50.94    1.79
  18   1   8   43.15    3.01
  18   1  11  100.33    2.34
  18   1  14   23.99    0.50
  18   1  17    1.84    0.58
  18   1  20   12.78    1.52
  18   1  23    3.71    0.82
  18   1  26    3.06    0.93
  18   1  29    0.11    0.75
  18   2 -29    1.15    0.80
  18   2 -26    0.37    0.85
  18   2 -23    2.79    0.99
  18   2 -20   26.74    2.24
  18   2 -17   24.21    1.68
  18   2 -14    0.53    0.76
  18   2 -11   12.58    1.44
  18   2  -8   38.86    1.67
  18   2  -5    9.40    1.31
  18   2  -2  212.71   11.29
  18   2   1   15.95    0.73
  18   2   4    2.95    1.15
  18   2   7   38.38    1.35
  18   2  10   10.82    0.70
  18   2  13    0.18    0.53
  18   2  16    2.02    0.52
  18   2  19   13.91    1.31
  18   2  22    2.41    0.80
  18   2  25    0.82    0.71
  18   2  28    0.34    0.81
  18   3 -27    0.05    0.81
  18   3 -24    1.57    0.85
  18   3 -21    2.44    0.77
  18   3 -18   17.34    1.10
  18   3 -15    1.22    0.96
  18   3 -12    5.58    1.39
  18   3  -9    9.80    1.25
  18   3  -6   46.27    3.65
  18   3  -3   20.87    2.01
  18   3   0   46.57    1.90
  18   3   3   69.56    1.72
  18   3   6  113.60    3.55
  18   3   9  139.17    3.86
  18   3  12   17.27    1.04
  18   3  15   10.97    0.99
  18   3  18   29.24    1.19
  18   3  21    4.26    0.79
  18   3  24    0.17    0.71
  18   3  27    0.91    0.75
  18   4 -28    0.62    0.89
  18   4 -25    0.10    0.86
  18   4 -22    0.77    0.80
  18   4 -19   12.95    1.51
  18   4 -16   16.75    1.07
  18   4 -13   10.71    0.81
  18   4 -10    0.54    0.80
  18   4  -7   18.06    1.44
  18   4  -4  137.80    2.21
  18   4  -1   74.32    2.92
  18   4   2    6.01    2.53
  18   4   5   82.15    5.26
  18   4   8   73.98    2.37
  18   4  11   26.64    1.40
  18   4  14    0.87    0.70
  18   4  17    5.43    0.83
  18   4  20    5.35    1.19
  18   4  23    0.75    0.70
  18   4  26    0.44    0.76
  18   5 -26    0.09    0.83
  18   5 -23    6.36    1.20
  18   5 -20    9.10    1.05
  18   5 -17    9.60    0.82
  18   5 -14    5.20    1.22
  18   5 -11   10.68    0.89
  18   5  -8   45.79    1.79
  18   5  -5   67.03    3.43
  18   5  -2    3.90    0.72
  18   5   1   73.89    2.77
  18   5   4   23.08    1.31
  18   5   7  278.16    8.87
  18   5  10    5.68    0.54
  18   5  13   14.79    1.19
  18   5  16    7.47    0.88
  18   5  19    2.53    0.89
  18   5  22    1.25    0.78
  18   5  25    0.08    0.77
  18   5  28    0.28    0.71
  18   6 -27    0.17    0.83
  18   6 -24    1.46    0.81
  18   6 -21    3.94    0.85
  18   6 -18    4.45    0.93
  18   6 -15   17.00    0.96
  18   6 -12   13.37    1.01
  18   6  -9   16.52    0.68
  18   6  -6   63.24    4.88
  18   6  -3   37.41    1.64
  18   6   0   20.35    2.66
  18   6   3    6.14    1.14
  18   6   6   96.80    2.66
  18   6   9   48.72    1.40
  18   6  12    1.87    0.54
  18   6  15   48.69    2.19
  18   6  18   28.66    1.20
  18   6  21    9.37    1.04
  18   6  24    0.32    0.77
  18   6  27    3.90    0.91
  18   7 -28    0.70    0.82
  18   7 -25    0.84    0.84
  18   7 -22    1.19    0.80
  18   7 -19    1.70    0.81
  18   7 -16    6.00    1.03
  18   7 -13    8.27    1.19
  18   7 -10    6.70    0.94
  18   7  -7   11.66    1.37
  18   7  -4    4.38    1.41
  18   7  -1   52.73    2.57
  18   7   2    1.74    0.99
  18   7   5  101.20    2.73
  18   7   8   21.57    1.10
  18   7  11   63.64    2.04
  18   7  14   55.14    2.18
  18   7  17   31.17    1.93
  18   7  20   11.33    1.38
  18   7  23    0.97    0.90
  18   7  26    3.66    0.90
  18   8 -26    0.19    0.80
  18   8 -23    0.52    0.84
  18   8 -20    0.64    0.88
  18   8 -17    0.46    0.79
  18   8 -14    7.73    1.40
  18   8 -11    3.90    1.28
  18   8  -8   24.99    1.96
  18   8  -5    2.83    0.97
  18   8  -2  141.53    4.00
  18   8   1   13.40    0.97
  18   8   4   20.83    0.64
  18   8   7   14.62    1.89
  18   8  10   27.89    1.26
  18   8  13    3.73    0.61
  18   8  16   18.82    1.75
  18   8  19    5.91    0.72
  18   8  22    1.39    1.00
  18   8  25    0.73    0.74
  18   9 -27    0.27    0.80
  18   9 -24    0.61    0.90
  18   9 -21    0.15    0.80
  18   9 -18    0.79    0.78
  18   9 -15    4.71    1.08
  18   9 -12    9.86    1.44
  18   9  -9    0.66    0.79
  18   9  -6   98.62    3.17
  18   9  -3   85.99    3.22
  18   9   0   16.55    1.10
  18   9   3   42.85    1.90
  18   9   6    6.17    0.49
  18   9   9    6.27    0.63
  18   9  12    3.36    1.12
  18   9  15   25.59    2.44
  18   9  18    0.30    0.65
  18   9  21    0.58    0.99
  18   9  24    1.81    0.76
  18   9  27    0.60    1.30
  18  10 -25    0.41    0.83
  18  10 -22    0.28    0.91
  18  10 -19    0.87    0.85
  18  10 -16   11.18    1.19
  18  10 -13    9.82    1.45
  18  10 -10    1.14    1.46
  18  10  -7    6.14    0.47
  18  10  -4    7.79    1.31
  18  10  -1   35.69    1.50
  18  10   2   42.56    2.10
  18  10   5    4.83    0.65
  18  10   8    0.03    1.13
  18  10  11    3.01    1.70
  18  10  14   16.73    1.11
  18  10  17    6.00    0.71
  18  10  20    1.28    1.12
  18  10  23    0.32    1.58
  18  10  26    2.47    0.76
  18  11 -26    0.56    0.85
  18  11 -23    1.64    0.92
  18  11 -20    6.35    1.05
  18  11 -17    2.23    1.28
  18  11 -14    0.11    0.81
  18  11 -11   34.85    1.82
  18  11  -8   25.45    1.62
  18  11  -5    1.45    1.14
  18  11  -2    7.26    0.46
  18  11   1   33.05    3.15
  18  11   4    4.07    1.22
  18  11   7   20.64    0.52
  18  11  10   29.49    1.71
  18  11  13    9.67    1.51
  18  11  16    5.22    1.56
  18  11  19    4.33    1.09
  18  11  22    0.85    1.42
  18  11  25    1.31    0.86
  18  12 -24    0.85    0.89
  18  12 -21    0.25    0.91
  18  12 -18    1.43    0.88
  18  12 -15    7.50    0.86
  18  12 -12    6.05    1.15
  18  12  -9   17.94    1.42
  18  12  -6    6.74    1.30
  18  12  -3    6.65    1.24
  18  12   0   25.05    1.83
  18  12   3    3.26    0.62
  18  12   6    1.15    0.66
  18  12   9   38.38    3.09
  18  12  12  102.97    3.95
  18  12  15   27.96    2.11
  18  12  18    3.10    1.10
  18  12  21    1.57    1.16
  18  12  24    4.45    1.28
  18  13 -25    0.02    0.88
  18  13 -22    1.63    0.84
  18  13 -19    0.64    0.83
  18  13 -16    7.52    1.26
  18  13 -13    0.69    0.60
  18  13 -10    0.04    0.51
  18  13  -7    4.18    0.52
  18  13  -4   13.19    0.63
  18  13  -1    3.86    0.61
  18  13   2   23.18    0.87
  18  13   5   42.42    1.50
  18  13   8    0.97    0.45
  18  13  11   40.78    2.63
  18  13  14   23.99    1.89
  18  13  17    8.10    0.81
  18  13  20    0.55    1.56
  18  13  23    4.18    1.71
  18  14 -23    1.39    2.09
  18  14 -20    1.78    1.19
  18  14 -17    8.92    2.30
  18  14 -14    9.55    1.40
  18  14 -11    2.49    1.69
  18  14  -8   54.30    2.12
  18  14  -5    6.52    0.49
  18  14  -2    2.60    0.56
  18  14   1    7.14    1.10
  18  14   4    2.69    0.59
  18  14   7    1.61    0.43
  18  14  10    1.48    1.20
  18  14  13    1.12    0.87
  18  14  16    1.36    0.90
  18  14  19    0.59    1.88
  18  14  22    1.37    1.55
  18  15 -21    0.47    2.11
  18  15 -18    0.59    2.05
  18  15 -15    3.76    2.02
  18  15 -12   11.40    1.70
  18  15  -9    1.05    1.45
  18  15  -6    9.32    0.50
  18  15  -3    1.73    0.95
  18  15   0    0.28    0.50
  18  15   3   40.55    1.20
  18  15   6    6.28    1.08
  18  15   9    0.03    0.63
  18  15  12    1.35    0.76
  18  15  15    5.65    1.57
  18  15  18    0.63    1.69
  18  15  21    0.13    1.99
  18  16 -22    0.78    1.94
  18  16 -19    0.12    1.80
  18  16 -16    1.63    1.73
  18  16 -13    5.98    1.16
  18  16 -10   32.52    0.85
  18  16  -7    7.50    1.40
  18  16  -4   20.45    2.88
  18  16  -1    2.45    0.93
  18  16   2   23.58    1.61
  18  16   5    3.32    1.82
  18  16   8    5.24    1.00
  18  16  11    3.24    1.40
  18  16  14    3.25    1.77
  18  16  17    0.01    1.61
  18  16  20    0.00    1.99
  18  17 -20    0.11    1.90
  18  17 -17    2.87    2.44
  18  17 -14   10.26    1.03
  18  17 -11   13.05    0.75
  18  17  -8    6.78    1.12
  18  17  -5   16.07    2.23
  18  17  -2    0.25    0.99
  18  17   1    3.02    0.68
  18  17   4    5.77    2.81
  18  17   7    6.60    2.12
  18  17  10   11.01    1.09
  18  17  13    4.16    0.73
  18  17  16    3.67    1.61
  18  17  19    1.53    2.08
  18  18   0    4.83    1.34
  18  18   3    0.02    0.54
  18  18   6    7.40    2.68
  18  18   9    0.04    1.28
  18  18  12    1.36    0.66
  18  18  15    0.63    2.32
  18  18  18    0.13    1.96
  18  18  21    0.07    1.96
  19   0 -29    0.32    0.82
  19   0 -26    0.18    0.86
  19   0 -23    0.17    0.89
  19   0 -20    7.66    1.08
  19   0 -17    6.88    1.00
  19   0 -14   87.68    3.55
  19   0 -11    6.38    1.02
  19   0  -8   72.17    1.44
  19   0  -5    9.14    0.86
  19   0  -2   57.27    0.59
  19   0   1    7.19    0.65
  19   0   4  196.21    3.15
  19   0   7  449.22   15.82
  19   0  10   67.70    1.51
  19   0  13   17.65    0.71
  19   0  16   22.76    0.88
  19   0  19   11.51    1.80
  19   0  22    2.93    0.66
  19   0  25    1.36    0.73
  19   0  28    2.10    1.35
  19   1 -27    1.38    0.86
  19   1 -24    5.57    0.91
  19   1 -21    0.20    1.33
  19   1 -18   28.18    2.47
  19   1 -15    9.72    1.79
  19   1 -12  161.17    7.63
  19   1  -9   37.41    1.41
  19   1  -6    4.85    0.85
  19   1  -3  177.32    5.84
  19   1   0   68.14    3.26
  19   1   3   81.84    5.00
  19   1   6  104.72    3.49
  19   1   9   22.60    1.45
  19   1  12   56.19    1.65
  19   1  15   27.78    1.57
  19   1  18    8.74    1.23
  19   1  21    0.17    0.70
  19   1  24    2.67    1.50
  19   1  27    0.66    0.80
  19   2 -28    0.96    0.84
  19   2 -25    2.33    0.87
  19   2 -22    4.44    0.98
  19   2 -19    0.51    0.91
  19   2 -16   57.33    2.97
  19   2 -13   62.11    1.94
  19   2 -10   30.16    1.02
  19   2  -7   17.68    1.28
  19   2  -4   73.10    2.06
  19   2  -1  188.15    4.30
  19   2   2   17.14    1.25
  19   2   5   68.19    1.84
  19   2   8   10.12    1.63
  19   2  11    3.68    0.44
  19   2  14   24.45    1.85
  19   2  17    4.98    0.78
  19   2  20    3.02    1.25
  19   2  23    2.67    0.69
  19   2  26    1.47    0.81
  19   2  29    0.09    0.98
  19   3 -29    0.03    0.94
  19   3 -26    1.02    0.85
  19   3 -23    7.46    1.45
  19   3 -20   13.40    2.58
  19   3 -17    2.66    1.26
  19   3 -14    2.03    0.98
  19   3 -11   79.13    4.37
  19   3  -8  111.00    3.23
  19   3  -5   11.99    1.59
  19   3  -2   56.31    4.69
  19   3   1   10.67    2.68
  19   3   4  163.74    6.09
  19   3   7   31.64    1.45
  19   3  10   98.03    3.29
  19   3  13   17.04    0.95
  19   3  16    6.59    1.47
  19   3  19    1.32    0.66
  19   3  22    4.26    0.98
  19   3  25    3.89    0.82
  19   3  28    2.46    0.83
  19   4 -27    2.07    0.83
  19   4 -24    0.47    0.81
  19   4 -21    3.95    1.47
  19   4 -18   11.58    0.98
  19   4 -15    0.07    0.82
  19   4 -12    9.39    1.17
  19   4  -9   64.77    1.64
  19   4  -6   77.23    1.76
  19   4  -3   27.58    1.11
  19   4   0   41.94    4.96
  19   4   3   19.15    1.07
  19   4   6  116.15    3.51
  19   4   9   38.64    2.22
  19   4  12   20.19    0.85
  19   4  15   30.88    1.03
  19   4  18    6.99    0.61
  19   4  21    5.78    0.97
  19   4  24    0.02    0.79
  19   4  27    0.92    0.73
  19   5 -28    1.11    0.79
  19   5 -25    1.20    0.87
  19   5 -22    1.59    0.78
  19   5 -19    1.65    1.20
  19   5 -16    2.65    0.87
  19   5 -13   15.99    1.48
  19   5 -10   10.70    1.26
  19   5  -7   70.57    3.40
  19   5  -4   20.29    0.94
  19   5  -1    8.13    0.60
  19   5   2    2.60    1.10
  19   5   5    0.99    0.55
  19   5   8   50.46    0.75
  19   5  11    0.12    0.49
  19   5  14   14.15    1.39
  19   5  17    0.70    0.85
  19   5  20    0.81    0.83
  19   5  23    7.22    1.02
  19   5  26    0.56    0.79
  19   6 -26    0.25    0.80
  19   6 -23    0.51    0.91
  19   6 -20    1.05    0.77
  19   6 -17   17.40    1.91
  19   6 -14    4.41    0.89
  19   6 -11   57.61    2.75
  19   6  -8   10.65    1.43
  19   6  -5   73.75    3.83
  19   6  -2   10.51    2.04
  19   6   1   21.69    0.63
  19   6   4   78.77    2.29
  19   6   7   30.78    1.75
  19   6  10    6.68    1.13
  19   6  13   32.35    1.71
  19   6  16   25.84    1.72
  19   6  19    0.97    0.57
  19   6  22    4.39    0.72
  19   6  25    1.63    0.73
  19   7 -27    0.29    0.82
  19   7 -24    0.57    0.88
  19   7 -21    3.48    1.07
  19   7 -18    0.41    0.84
  19   7 -15    2.09    0.94
  19   7 -12   18.49    2.08
  19   7  -9   30.58    3.08
  19   7  -6   17.69    1.53
  19   7  -3   28.92    2.46
  19   7   0    0.80    0.80
  19   7   3   91.70    3.30
  19   7   6    7.20    0.45
  19   7   9    6.18    0.84
  19   7  12    1.30    0.80
  19   7  15   33.71    1.94
  19   7  18   25.39    1.54
  19   7  21    4.19    0.96
  19   7  24    0.34    0.72
  19   7  27    3.36    1.14
  19   8 -25    0.24    0.84
  19   8 -22    1.95    0.85
  19   8 -19    0.35    0.78
  19   8 -16    1.16    0.93
  19   8 -13   14.94    2.55
  19   8 -10   16.44    2.03
  19   8  -7   23.01    1.45
  19   8  -4   30.35    1.20
  19   8  -1   27.46    0.88
  19   8   2   61.78    2.68
  19   8   5    1.18    0.87
  19   8   8    6.12    0.66
  19   8  11   34.36    1.67
  19   8  14   17.42    1.03
  19   8  17    7.01    0.89
  19   8  20    4.09    1.12
  19   8  23    0.80    0.78
  19   8  26    0.85    0.73
  19   9 -26    0.07    0.84
  19   9 -23    0.60    0.85
  19   9 -20    6.85    0.82
  19   9 -17    1.65    0.85
  19   9 -14    0.11    1.21
  19   9 -11   29.69    1.09
  19   9  -8   94.01    3.34
  19   9  -5   10.19    0.45
  19   9  -2   18.20    0.88
  19   9   1    5.77    0.79
  19   9   4   22.04    1.30
  19   9   7    3.08    0.49
  19   9  10   35.06    4.28
  19   9  13   31.70    2.74
  19   9  16    8.15    0.65
  19   9  19    0.51    0.96
  19   9  22    0.20    0.81
  19   9  25    1.42    1.23
  19  10 -24    2.54    0.87
  19  10 -21    0.08    0.88
  19  10 -18    4.33    0.82
  19  10 -15    4.02    1.02
  19  10 -12   15.91    2.59
  19  10  -9   26.16    1.39
  19  10  -6    5.68    3.86
  19  10  -3    1.92    0.60
  19  10   0   39.59    2.15
  19  10   3   10.65    1.00
  19  10   6   10.95    1.15
  19  10   9   18.37    1.43
  19  10  12   52.90    2.37
  19  10  15   48.55    1.95
  19  10  18    5.92    1.25
  19  10  21    0.60    1.06
  19  10  24    5.42    1.60
  19  11 -25    0.46    0.84
  19  11 -22    2.08    0.88
  19  11 -19    0.86    0.81
  19  11 -16   10.90    1.26
  19  11 -13   22.05    1.57
  19  11 -10   18.42    2.29
  19  11  -7   22.42    2.23
  19  11  -4    3.64    1.22
  19  11  -1    4.85    0.46
  19  11   2   17.52    1.41
  19  11   5    0.01    0.82
  19  11   8    5.26    0.61
  19  11  11   53.01    3.95
  19  11  14   10.17    1.34
  19  11  17    1.02    0.71
  19  11  20    2.08    1.63
  19  11  23    0.09    0.98
  19  12 -23    0.19    0.81
  19  12 -20    1.98    0.91
  19  12 -17    2.60    1.42
  19  12 -14   28.93    3.71
  19  12 -11   14.24    1.13
  19  12  -8    2.45    0.64
  19  12  -5   36.61    0.93
  19  12  -2   16.24    1.07
  19  12   1    8.46    1.18
  19  12   4   14.94    0.72
  19  12   7   18.66    1.12
  19  12  10   25.45    1.38
  19  12  13   13.47    1.68
  19  12  16    1.88    1.13
  19  12  19    0.54    1.28
  19  12  22    3.90    1.65
  19  13 -21    1.35    1.23
  19  13 -18    7.28    1.12
  19  13 -15   27.74    2.71
  19  13 -12    8.83    1.00
  19  13  -9   45.23    2.61
  19  13  -6    2.47    0.94
  19  13  -3   23.33    1.19
  19  13   0   14.60    2.06
  19  13   3   13.41    0.54
  19  13   6   20.82    1.21
  19  13   9   23.75    1.75
  19  13  12    3.09    0.91
  19  13  15    2.51    0.76
  19  13  18    2.53    1.34
  19  13  21    3.56    1.69
  19  14 -22    0.11    1.94
  19  14 -19    2.45    1.94
  19  14 -16    0.17    1.91
  19  14 -13   26.72    2.66
  19  14 -10   17.98    1.21
  19  14  -7    2.78    1.50
  19  14  -4   18.78    1.03
  19  14  -1   20.09    2.40
  19  14   2    3.49    0.86
  19  14   5   25.48    0.91
  19  14   8    0.02    0.65
  19  14  11    1.91    1.09
  19  14  14    0.28    0.85
  19  14  17    1.44    1.37
  19  14  20    1.59    1.58
  19  14  23    2.57    2.10
  19  15 -20    0.31    1.92
  19  15 -17    0.05    1.62
  19  15 -14    0.19    0.79
  19  15 -11   17.04    1.61
  19  15  -8   23.41    2.43
  19  15  -5   12.82    1.08
  19  15  -2    2.35    0.52
  19  15   1    4.56    0.59
  19  15   4    5.70    0.77
  19  15   7   29.93    1.52
  19  15  10    9.87    1.43
  19  15  13    3.16    0.73
  19  15  16    0.16    0.83
  19  15  19    0.11    1.59
  19  15  22    0.12    1.92
  19  16 -21    1.10    1.92
  19  16 -18    4.16    3.40
  19  16 -15    2.11    1.89
  19  16 -12    8.87    0.63
  19  16  -9   19.07    1.52
  19  16  -6   32.79    3.28
  19  16  -3   14.09    1.14
  19  16   0    5.76    0.84
  19  16   3   16.89    2.66
  19  16   6   16.05    1.01
  19  16   9    5.69    0.67
  19  16  12    3.74    0.71
  19  16  15    6.23    1.38
  19  16  18    0.19    1.78
  19  16  21    1.69    2.06
  19  17 -19    0.56    1.92
  19  17 -16    3.16    1.95
  19  17 -13    8.34    0.96
  19  17 -10    0.39    0.58
  19  17  -7    7.47    1.21
  19  17  -4    2.95    0.98
  19  17  -1    0.31    0.61
  19  17   2    0.67    0.77
  19  17   5    8.06    1.42
  19  17   8    4.43    0.78
  19  17  11    4.06    0.76
  19  17  14    3.10    1.70
  19  17  17    0.67    2.03
  19  17  20    1.45    2.03
  19  18 -20    0.44    1.89
  19  18 -17    0.70    2.12
  19  18 -14    1.56    1.29
  19  18 -11   13.82    1.39
  19  18  -8    1.78    0.61
  19  18  -5   20.94    1.68
  19  18  -2    2.64    0.54
  19  18   1    4.53    0.69
  19  18   4    6.67    1.11
  19  18   7    4.31    0.55
  19  18  10    2.70    1.25
  19  18  13    1.22    1.46
  19  18  16    0.73    2.02
  19  18  19    0.71    1.95
  19  19   0    0.90    1.19
  19  19   3    0.42    0.59
  19  19   6    4.56    0.85
  19  19   9   10.81    1.29
  19  19  12    3.43    0.80
  19  19  15    1.69    2.50
  19  19  18    0.14    1.95
  20   0 -28    0.02    0.84
  20   0 -25    0.06    0.91
  20   0 -22    4.78    3.39
  20   0 -19   18.41    2.20
  20   0 -16    5.05    1.63
  20   0 -13   40.72    1.91
  20   0 -10    0.30    0.49
  20   0  -7  143.36    4.68
  20   0  -4   65.48    1.85
  20   0  -1   10.86    0.73
  20   0   2   55.24    0.56
  20   0   5  625.45   14.81
  20   0   8    0.78    1.16
  20   0  11   12.91    0.58
  20   0  14    4.03    0.51
  20   0  17   40.69    2.23
  20   0  20    5.33    1.22
  20   0  23    3.29    0.84
  20   0  26    1.91    0.83
  20   0  29    1.52    1.73
  20   1 -29    0.47    0.78
  20   1 -26    2.12    0.86
  20   1 -23    0.98    0.87
  20   1 -20    6.57    1.28
  20   1 -17    7.01    1.39
  20   1 -14   15.81    1.90
  20   1 -11    0.19    0.71
  20   1  -8   20.63    2.46
  20   1  -5   14.63    1.27
  20   1  -2   93.78    3.42
  20   1   1   30.10    2.03
  20   1   4   14.48    1.86
  20   1   7   68.36    3.03
  20   1  10   17.81    1.33
  20   1  13   34.53    2.76
  20   1  16   10.85    0.79
  20   1  19    0.51    0.69
  20   1  22    2.43    0.95
  20   1  25    3.00    0.85
  20   1  28    0.21    0.74
  20   2 -27    0.23    0.79
  20   2 -24    7.75    1.45
  20   2 -21    4.81    1.50
  20   2 -18    4.30    1.40
  20   2 -15    5.59    1.38
  20   2 -12   14.23    1.60
  20   2  -9   11.54    0.95
  20   2  -6   17.55    2.10
  20   2  -3   19.92    1.66
  20   2   0   26.45    1.06
  20   2   3   32.42    1.72
  20   2   6   71.37    2.51
  20   2   9    3.73    0.85
  20   2  12   15.60    1.29
  20   2  15    0.43    0.58
  20   2  18    6.36    0.62
  20   2  21    2.33    0.66
  20   2  24    7.57    0.85
  20   2  27    0.30    1.00
  20   3 -28    0.30    0.85
  20   3 -25    1.30    1.05
  20   3 -22    3.86    0.80
  20   3 -19   17.81    1.86
  20   3 -16    1.91    1.38
  20   3 -13    5.63    0.76
  20   3 -10  132.30    5.55
  20   3  -7  141.54    5.41
  20   3  -4   13.98    1.26
  20   3  -1   82.86    2.76
  20   3   2    9.59    3.26
  20   3   5   42.89    1.36
  20   3   8   56.07    3.12
  20   3  11   25.18    1.61
  20   3  14    2.95    1.03
  20   3  17    6.42    0.65
  20   3  20    9.53    0.90
  20   3  23    1.44    0.78
  20   3  26    1.20    0.76
  20   4 -26    0.08    0.79
  20   4 -23    1.44    0.84
  20   4 -20    7.03    1.46
  20   4 -17    5.95    1.05
  20   4 -14   39.27    1.13
  20   4 -11    9.18    1.52
  20   4  -8   15.44    2.21
  20   4  -5    7.69    1.38
  20   4  -2   35.36    1.32
  20   4   1   34.50    1.93
  20   4   4  111.54    3.62
  20   4   7   23.22    1.89
  20   4  10   22.87    1.33
  20   4  13   13.22    1.18
  20   4  16    4.69    1.08
  20   4  19    6.92    0.62
  20   4  22    0.18    0.72
  20   4  25    0.54    0.74
  20   5 -27    1.59    0.83
  20   5 -24    0.39    0.89
  20   5 -21    2.10    0.72
  20   5 -18    1.66    1.96
  20   5 -15    0.04    0.93
  20   5 -12   12.39    1.22
  20   5  -9   13.47    1.45
  20   5  -6    3.29    1.53
  20   5  -3   15.98    1.19
  20   5   0   12.75    1.54
  20   5   3    9.45    1.10
  20   5   6    5.05    0.64
  20   5   9    1.84    0.64
  20   5  12    6.34    0.75
  20   5  15    3.44    0.71
  20   5  18   19.93    1.65
  20   5  21    0.98    0.75
  20   5  24    0.14    0.79
  20   5  27    0.03    0.74
  20   6 -25    0.86    0.84
  20   6 -22    0.69    0.89
  20   6 -19    3.29    1.60
  20   6 -16    6.25    1.45
  20   6 -13   16.60    1.41
  20   6 -10   49.29    2.67
  20   6  -7   43.11    2.34
  20   6  -4   24.64    1.47
  20   6  -1   19.74    1.64
  20   6   2   19.33    1.10
  20   6   5   11.74    0.97
  20   6   8   19.21    0.80
  20   6  11   17.51    1.34
  20   6  14    4.62    1.05
  20   6  17   24.05    1.23
  20   6  20    7.59    1.43
  20   6  23    0.99    0.73
  20   6  26    1.47    0.79
  20   7 -26    0.53    0.80
  20   7 -23    0.03    0.85
  20   7 -20    1.83    0.79
  20   7 -17    3.65    1.73
  20   7 -14    2.86    1.43
  20   7 -11    2.81    0.90
  20   7  -8   18.26    1.61
  20   7  -5   13.97    2.57
  20   7  -2    8.98    1.11
  20   7   1   29.24    1.34
  20   7   4    1.74    0.48
  20   7   7    2.25    0.54
  20   7  10    1.12    1.35
  20   7  13   39.12    1.74
  20   7  16   21.40    2.09
  20   7  19    5.98    1.00
  20   7  22    2.49    1.06
  20   7  25    2.63    1.08
  20   8 -24    0.05    0.85
  20   8 -21    0.03    0.89
  20   8 -18    0.74    1.04
  20   8 -15    2.75    1.55
  20   8 -12   29.46    3.82
  20   8  -9   29.82    2.19
  20   8  -6   15.95    1.03
  20   8  -3    6.26    0.66
  20   8   0   13.34    0.58
  20   8   3    5.04    1.39
  20   8   6   17.25    0.85
  20   8   9   12.82    1.69
  20   8  12   29.89    1.63
  20   8  15    2.04    0.69
  20   8  18    3.46    0.73
  20   8  21    1.10    0.89
  20   8  24    0.04    0.85
  20   9 -25    0.49    0.85
  20   9 -22    0.08    0.88
  20   9 -19    1.40    0.82
  20   9 -16   10.27    1.14
  20   9 -13    2.55    1.80
  20   9 -10   34.57    1.52
  20   9  -7   19.66    1.52
  20   9  -4   40.12    2.63
  20   9  -1    2.59    1.12
  20   9   2   75.22    1.84
  20   9   5    0.40    0.68
  20   9   8    6.97    1.22
  20   9  11    8.51    1.12
  20   9  14   25.86    2.64
  20   9  17    0.69    0.69
  20   9  20    3.28    1.29
  20   9  23    0.37    1.43
  20  10 -23    0.04    0.80
  20  10 -20    0.43    0.90
  20  10 -17    5.33    1.47
  20  10 -14   13.88    2.59
  20  10 -11   21.68    3.40
  20  10  -8    3.34    1.15
  20  10  -5    2.73    0.72
  20  10  -2   11.61    0.82
  20  10   1   36.00    2.20
  20  10   4   29.37    1.55
  20  10   7   11.89    0.84
  20  10  10   29.49    1.11
  20  10  13    8.58    1.56
  20  10  16    5.31    0.76
  20  10  19   22.11    2.57
  20  10  22    0.20    1.73
  20  11 -24    0.06    0.90
  20  11 -21    1.42    0.87
  20  11 -18    0.82    0.80
  20  11 -15    0.24    1.53
  20  11 -12   22.07    6.64
  20  11  -9    5.95    1.45
  20  11  -6    9.96    1.76
  20  11  -3   10.02    1.56
  20  11   0    4.06    0.96
  20  11   3    0.24    0.46
  20  11   6   13.38    0.77
  20  11   9   13.56    0.62
  20  11  12    8.85    1.49
  20  11  15    2.62    1.05
  20  11  18    5.64    1.54
  20  11  21    1.01    1.90
  20  12 -22    0.17    0.84
  20  12 -19    0.64    1.22
  20  12 -16   10.12    2.29
  20  12 -13   15.64    1.38
  20  12 -10   13.46    0.81
  20  12  -7    1.42    1.29
  20  12  -4   15.29    1.07
  20  12  -1    5.24    0.49
  20  12   2   17.04    1.51
  20  12   5    6.83    0.64
  20  12   8    0.34    0.50
  20  12  11    9.65    1.19
  20  12  14    8.37    1.39
  20  12  17    3.01    0.80
  20  12  20    0.35    1.61
  20  12  23    2.04    2.20
  20  13 -20    0.27    1.82
  20  13 -17    0.37    1.65
  20  13 -14    0.48    1.32
  20  13 -11   11.33    2.44
  20  13  -8   48.82    2.61
  20  13  -5   29.63    2.70
  20  13  -2   13.84    1.13
  20  13   1    2.29    0.74
  20  13   4    3.86    0.83
  20  13   7    8.49    1.31
  20  13  10    4.36    0.61
  20  13  13    3.13    2.02
  20  13  16   11.98    1.87
  20  13  19    3.16    1.84
  20  13  22    0.14    1.82
  20  14 -21    0.06    1.83
  20  14 -18    0.07    1.93
  20  14 -15    5.87    2.30
  20  14 -12    0.37    0.74
  20  14  -9    2.21    0.97
  20  14  -6   27.09    1.84
  20  14  -3    5.21    1.25
  20  14   0    2.20    0.50
  20  14   3    4.30    0.53
  20  14   6    1.57    1.70
  20  14   9    2.99    1.63
  20  14  12    0.58    0.97
  20  14  15    3.13    1.45
  20  14  18    0.36    1.71
  20  14  21    0.53    2.31
  20  15 -19    0.05    1.72
  20  15 -16    0.16    1.67
  20  15 -13    3.44    2.80
  20  15 -10   15.60    2.06
  20  15  -7    2.89    0.93
  20  15  -4    4.46    0.94
  20  15  -1    4.43    1.10
  20  15   2    1.45    0.77
  20  15   5    0.25    0.88
  20  15   8    1.24    0.53
  20  15  11    1.74    0.72
  20  15  14    0.66    0.86
  20  15  17    4.95    1.73
  20  15  20    0.39    1.96
  20  16 -20    0.55    1.84
  20  16 -17    0.13    2.37
  20  16 -14    2.01    3.73
  20  16 -11    6.25    0.77
  20  16  -8    3.94    1.02
  20  16  -5    0.77    1.54
  20  16  -2    4.97    0.55
  20  16   1   19.80    1.14
  20  16   4   10.07    2.36
  20  16   7    3.81    0.55
  20  16  10    4.07    1.11
  20  16  13    0.14    0.78
  20  16  16    0.43    1.62
  20  16  19    0.34    2.09
  20  17 -18    1.37    2.09
  20  17 -15    2.68    2.09
  20  17 -12    5.93    1.14
  20  17  -9    4.37    1.19
  20  17  -6   11.66    1.57
  20  17  -3    5.84    0.60
  20  17   0    0.73    0.97
  20  17   3    1.65    0.58
  20  17   6    8.85    1.54
  20  17   9    0.28    0.63
  20  17  12    5.05    0.75
  20  17  15    1.65    2.14
  20  17  18    0.13    2.08
  20  18 -19    0.13    1.90
  20  18 -16    2.30    1.94
  20  18 -13    1.76    1.37
  20  18 -10    3.56    0.60
  20  18  -7    0.85    0.56
  20  18  -4   36.88    2.31
  20  18  -1    2.70    1.56
  20  18   2   11.38    0.62
  20  18   5    4.93    0.93
  20  18   8    1.65    0.57
  20  18  11    0.48    2.26
  20  18  14    1.95    2.17
  20  18  17    0.77    1.85
  20  19 -17    2.51    1.96
  20  19 -14    1.30    2.14
  20  19 -11    4.14    1.52
  20  19  -8    2.84    0.91
  20  19  -5   12.51    1.07
  20  19  -2    7.49    1.23
  20  19   1    0.93    1.24
  20  19   4    1.76    0.75
  20  19   7    1.45    0.61
  20  19  10    5.58    0.70
  20  19  13    1.49    0.93
  20  19  16    0.39    2.03
  20  20   0    3.52    1.78
  20  20   3    3.72    1.28
  20  20   6    7.47    1.27
  20  20   9    6.86    1.50
  20  20  12    1.95    0.97
  20  20  15    0.19    1.96
  21   0 -27    0.05    0.80
  21   0 -24    1.17    0.92
  21   0 -21    6.46    2.55
  21   0 -18    6.23    1.74
  21   0 -15    1.37    1.47
  21   0 -12   48.67    1.37
  21   0  -9    2.06    1.09
  21   0  -6    7.79    0.76
  21   0  -3    0.85    1.32
  21   0   0   21.87    0.77
  21   0   3   51.73    3.03
  21   0   6    0.30    0.55
  21   0   9   54.44    2.80
  21   0  12   22.00    1.38
  21   0  15    3.88    0.60
  21   0  18    1.23    0.58
  21   0  21    0.60    0.62
  21   0  24    4.90    1.06
  21   0  27    0.16    0.74
  21   1 -28    0.69    0.78
  21   1 -25    0.54    0.85
  21   1 -22    2.08    0.98
  21   1 -19   13.65    1.89
  21   1 -16   23.52    1.60
  21   1 -13    3.94    0.74
  21   1 -10  121.61    4.15
  21   1  -7   39.73    1.20
  21   1  -4   21.86    1.52
  21   1  -1   44.51    2.09
  21   1   2   98.24    5.65
  21   1   5   41.57    1.97
  21   1   8   92.77    6.55
  21   1  11   11.89    0.53
  21   1  14   29.00    1.34
  21   1  17   16.35    1.16
  21   1  20    6.60    1.19
  21   1  23    4.84    1.60
  21   1  26    2.17    0.82
  21   2 -26    0.16    0.81
  21   2 -23    0.61    0.87
  21   2 -20    3.84    1.28
  21   2 -17    4.73    1.14
  21   2 -14    8.65    1.67
  21   2 -11   18.01    1.11
  21   2  -8    0.39    0.85
  21   2  -5   48.22    1.83
  21   2  -2    7.28    0.92
  21   2   1    6.82    1.90
  21   2   4   20.42    2.05
  21   2   7   63.88    2.93
  21   2  10    6.66    0.82
  21   2  13    4.97    0.73
  21   2  16    0.68    0.94
  21   2  19    1.90    0.74
  21   2  22    2.21    0.72
  21   2  25    0.36    0.77
  21   2  28    0.28    1.29
  21   3 -27    0.34    1.35
  21   3 -24    1.50    0.97
  21   3 -21    2.86    0.96
  21   3 -18    1.17    1.09
  21   3 -15   13.79    2.01
  21   3 -12    2.90    1.09
  21   3  -9   31.03    4.01
  21   3  -6   23.78    1.25
  21   3  -3   67.12    4.15
  21   3   0   83.11    2.10
  21   3   3  140.71    3.89
  21   3   6   65.25    2.84
  21   3   9    9.91    1.65
  21   3  12    3.86    1.09
  21   3  15    3.06    0.93
  21   3  18    8.31    0.77
  21   3  21    1.72    0.76
  21   3  24    0.95    0.77
  21   3  27    0.30    0.72
  21   4 -25    1.98    0.88
  21   4 -22    0.59    0.77
  21   4 -19    1.09    0.84
  21   4 -16    4.13    0.88
  21   4 -13   20.88    2.20
  21   4 -10   46.86    2.67
  21   4  -7   35.33    1.21
  21   4  -4    6.65    2.10
  21   4  -1    1.48    0.45
  21   4   2    0.08    0.69
  21   4   5  148.20    4.07
  21   4   8   13.96    0.74
  21   4  11    0.86    1.07
  21   4  14    2.09    1.00
  21   4  17    1.74    0.79
  21   4  20    2.99    0.81
  21   4  23    0.47    0.98
  21   4  26    0.89    0.79
  21   5 -26    0.70    0.87
  21   5 -23    0.36    0.90
  21   5 -20   15.82    1.74
  21   5 -17    4.45    0.87
  21   5 -14    4.89    1.64
  21   5 -11   11.66    1.35
  21   5  -8    7.01    1.15
  21   5  -5    3.04    0.53
  21   5  -2   13.07    1.21
  21   5   1   38.26    2.20
  21   5   4    5.39    0.75
  21   5   7   31.53    1.28
  21   5  10    5.38    0.60
  21   5  13    0.07    0.92
  21   5  16    2.28    0.78
  21   5  19    0.28    0.66
  21   5  22    0.48    0.88
  21   5  25    0.90    0.83
  21   6 -27    1.17    0.87
  21   6 -24    0.66    0.82
  21   6 -21    1.46    0.90
  21   6 -18    7.50    0.98
  21   6 -15    3.84    1.06
  21   6 -12   11.41    1.46
  21   6  -9    7.52    1.91
  21   6  -6   19.82    1.40
  21   6  -3   19.12    1.45
  21   6   0    0.33    2.40
  21   6   3   23.82    1.13
  21   6   6    4.08    0.86
  21   6   9   10.67    0.92
  21   6  12   10.25    1.85
  21   6  15    7.01    0.82
  21   6  18   10.78    1.67
  21   6  21    1.54    0.93
  21   6  24    3.24    0.93
  21   7 -25    0.72    0.90
  21   7 -22    0.88    0.90
  21   7 -19    3.72    1.15
  21   7 -16    7.18    1.70
  21   7 -13    1.02    1.15
  21   7 -10   57.44    4.11
  21   7  -7   10.14    1.56
  21   7  -4   43.18    2.23
  21   7  -1    0.74    1.21
  21   7   2   24.25    1.15
  21   7   5    0.00    0.41
  21   7   8   40.92    1.97
  21   7  11   20.77    2.73
  21   7  14    9.35    1.50
  21   7  17    6.05    0.83
  21   7  20    2.15    1.55
  21   7  23    1.43    0.97
  21   8 -26    0.04    0.81
  21   8 -23    0.09    0.87
  21   8 -20    2.57    0.87
  21   8 -17   11.07    1.65
  21   8 -14    1.22    1.14
  21   8 -11   56.88    3.19
  21   8  -8    0.22    1.22
  21   8  -5   12.09    0.99
  21   8  -2    7.57    0.97
  21   8   1   15.88    1.86
  21   8   4    3.67    0.81
  21   8   7   10.00    1.34
  21   8  10   12.97    0.63
  21   8  13    5.89    0.90
  21   8  16   20.26    1.67
  21   8  19    0.44    0.84
  21   8  22    1.90    1.66
  21   9 -24    1.69    0.84
  21   9 -21    2.97    0.84
  21   9 -18    5.07    0.81
  21   9 -15   12.66    1.06
  21   9 -12    4.02    1.66
  21   9  -9    5.13    2.80
  21   9  -6    2.34    0.52
  21   9  -3   14.86    0.98
  21   9   0    8.25    1.51
  21   9   3    8.10    1.32
  21   9   6   13.25    1.50
  21   9   9   51.59    1.85
  21   9  12   16.64    1.57
  21   9  15    8.15    1.11
  21   9  18    3.96    1.89
  21   9  21    5.97    1.99
  21   9  24    1.90    1.71
  21  10 -22    1.22    0.87
  21  10 -19    3.39    0.95
  21  10 -16    0.14    0.92
  21  10 -13    3.82    1.53
  21  10 -10    1.18    0.63
  21  10  -7    6.20    0.69
  21  10  -4   17.18    1.36
  21  10  -1    3.67    0.79
  21  10   2   21.02    0.85
  21  10   5    5.57    0.86
  21  10   8   36.52    1.43
  21  10  11   15.61    0.76
  21  10  14   18.79    1.68
  21  10  17    0.99    1.97
  21  10  20    2.42    1.72
  21  10  23    2.33    2.28
  21  11 -23    0.30    1.00
  21  11 -20    0.59    1.11
  21  11 -17    8.24    1.28
  21  11 -14   76.26    3.06
  21  11 -11    0.89    1.43
  21  11  -8    5.37    1.11
  21  11  -5   15.81    1.13
  21  11  -2   41.38    1.31
  21  11   1    1.63    0.91
  21  11   4    5.41    0.48
  21  11   7   17.83    0.51
  21  11  10   17.74    0.91
  21  11  13    6.50    1.00
  21  11  16    8.88    1.82
  21  11  19    0.17    1.80
  21  11  22    2.21    1.79
  21  12 -21    0.49    1.82
  21  12 -18    1.50    1.29
  21  12 -15   25.91    1.75
  21  12 -12    1.05    2.10
  21  12  -9    6.40    1.24
  21  12  -6    6.73    0.92
  21  12  -3    5.37    2.05
  21  12   0   17.06    1.38
  21  12   3    0.97    0.89
  21  12   6    0.27    0.60
  21  12   9    4.54    0.89
  21  12  12    0.87    0.77
  21  12  15    3.12    0.81
  21  12  18    0.36    1.61
  21  12  21    3.75    1.88
  21  13 -22    0.78    1.77
  21  13 -19    0.72    1.89
  21  13 -16    5.70    2.05
  21  13 -13    0.32    1.88
  21  13 -10   19.01    1.32
  21  13  -7    0.55    0.58
  21  13  -4    3.32    0.94
  21  13  -1   19.32    1.18
  21  13   2    6.84    0.65
  21  13   5    2.45    0.49
  21  13   8   18.09    1.13
  21  13  11    1.51    0.87
  21  13  14    6.27    1.69
  21  13  17    6.48    1.44
  21  13  20    1.05    1.61
  21  14 -20    0.89    1.87
  21  14 -17    0.04    1.68
  21  14 -14    0.07    0.83
  21  14 -11    1.32    1.32
  21  14  -8   20.30    1.25
  21  14  -5    3.51    0.89
  21  14  -2    6.86    0.96
  21  14   1   17.98    1.52
  21  14   4    8.01    1.06
  21  14   7   19.37    0.87
  21  14  10    0.28    0.70
  21  14  13    3.94    1.55
  21  14  16    6.13    2.25
  21  14  19    1.28    1.61
  21  15 -21    0.56    1.98
  21  15 -18    0.45    2.01
  21  15 -15    0.32    1.76
  21  15 -12    2.01    0.97
  21  15  -9    1.52    0.86
  21  15  -6    3.82    0.83
  21  15  -3    9.56    0.64
  21  15   0   13.41    0.64
  21  15   3    8.86    2.95
  21  15   6    4.36    2.31
  21  15   9    2.10    0.75
  21  15  12    3.81    0.85
  21  15  15    0.41    0.87
  21  15  18    1.55    1.69
  21  15  21    0.03    2.49
  21  16 -19    0.43    1.88
  21  16 -16    0.51    1.99
  21  16 -13    4.33    1.26
  21  16 -10    5.31    1.21
  21  16  -7    3.44    0.61
  21  16  -4    1.27    2.28
  21  16  -1   14.95    1.05
  21  16   2    2.62    0.64
  21  16   5    4.84    0.75
  21  16   8    5.96    0.75
  21  16  11    1.97    0.75
  21  16  14    3.24    1.39
  21  16  17    2.02    1.93
  21  16  20    0.87    2.08
  21  17 -17    2.14    2.28
  21  17 -14    0.32    1.02
  21  17 -11    2.13    1.04
  21  17  -8    0.76    0.58
  21  17  -5    1.91    1.10
  21  17  -2    0.54    0.89
  21  17   1    1.16    0.55
  21  17   4    0.71    0.75
  21  17   7    6.08    0.85
  21  17  10    0.50    0.68
  21  17  13    8.39    1.49
  21  17  16    0.71    1.96
  21  17  19    0.60    2.05
  21  18 -18    1.16    1.80
  21  18 -15    4.83    2.49
  21  18 -12    4.14    1.97
  21  18  -9   10.92    1.18
  21  18  -6    4.59    0.56
  21  18  -3   10.31    1.29
  21  18   0    0.82    0.69
  21  18   3    5.22    1.01
  21  18   6    7.66    0.90
  21  18   9    1.39    1.71
  21  18  12    1.50    1.44
  21  18  15    1.05    2.06
  21  18  18    0.39    1.97
  21  19 -16    1.04    1.98
  21  19 -13    0.25    0.96
  21  19 -10    8.72    1.53
  21  19  -7    5.38    0.70
  21  19  -4    0.31    0.60
  21  19  -1    1.34    0.73
  21  19   2    2.37    1.26
  21  19   5    3.51    1.94
  21  19   8    2.92    0.68
  21  19  11    3.17    1.14
  21  19  14    1.65    1.99
  21  19  17    0.73    1.93
  21  20 -17    1.25    2.86
  21  20 -14    0.60    1.69
  21  20 -11    1.99    1.16
  21  20  -8    4.83    1.10
  21  20  -5   10.82    1.33
  21  20  -2    1.36    0.81
  21  20   1    2.52    0.70
  21  20   4    2.03    0.61
  21  20   7    1.21    0.60
  21  20  10    1.90    1.20
  21  20  13    0.17    0.88
  21  20  16    2.31    1.89
  21  21   0   26.34    2.69
  21  21   3    0.34    0.62
  21  21   6    0.66    0.68
  21  21   9    1.76    0.62
  21  21  12    0.70    0.90
  21  21  15    0.25    1.76
  22   0 -26    0.00    0.81
  22   0 -23    0.59    0.86
  22   0 -20    3.45    1.80
  22   0 -17   91.04    4.22
  22   0 -14   15.68    1.04
  22   0 -11   24.25    1.46
  22   0  -8    0.51    0.51
  22   0  -5    1.12    0.83
  22   0  -2   90.48    2.32
  22   0   1  271.24    8.02
  22   0   4  133.28    3.55
  22   0   7   95.55    2.90
  22   0  10    0.05    0.50
  22   0  13   10.90    1.15
  22   0  16   15.31    0.85
  22   0  19   19.89    1.20
  22   0  22    0.25    0.38
  22   0  25    1.86    0.82
  22   0  28    0.07    1.04
  22   1 -27    0.06    0.80
  22   1 -24    0.30    0.85
  22   1 -21   10.37    2.68
  22   1 -18   13.12    1.77
  22   1 -15    5.01    1.30
  22   1 -12    8.69    1.04
  22   1  -9  113.41    4.51
  22   1  -6    7.18    0.79
  22   1  -3   54.50    1.47
  22   1   0   42.98    2.04
  22   1   3  152.50    4.08
  22   1   6   20.39    1.69
  22   1   9    5.91    0.68
  22   1  12    4.85    0.92
  22   1  15    5.32    0.98
  22   1  18    1.40    0.84
  22   1  21   11.60    1.08
  22   1  24    0.25    0.77
  22   1  27    0.40    0.75
  22   2 -28    0.61    0.97
  22   2 -25    0.87    0.83
  22   2 -22    4.22    1.28
  22   2 -19    6.61    2.72
  22   2 -16   10.98    1.34
  22   2 -13   14.59    1.62
  22   2 -10   29.84    1.16
  22   2  -7    4.87    0.58
  22   2  -4   45.87    2.17
  22   2  -1   24.75    1.39
  22   2   2   36.53    2.06
  22   2   5   44.85    2.60
  22   2   8    3.40    0.76
  22   2  11    8.33    0.83
  22   2  14   11.80    0.95
  22   2  17    9.12    1.02
  22   2  20    7.50    1.04
  22   2  23    2.06    0.85
  22   2  26    1.32    0.75
  22   3 -26    0.61    0.86
  22   3 -23    1.76    0.86
  22   3 -20    1.94    1.13
  22   3 -17    3.44    1.44
  22   3 -14    3.97    1.68
  22   3 -11   41.19    2.14
  22   3  -8    6.06    0.73
  22   3  -5   14.03    1.24
  22   3  -2    7.15    1.16
  22   3   1   39.18    4.00
  22   3   4   42.28    2.93
  22   3   7   30.18    1.49
  22   3  10   22.63    1.71
  22   3  13    7.32    0.91
  22   3  16   17.29    0.80
  22   3  19   18.17    1.70
  22   3  22    0.36    0.79
  22   3  25    4.85    1.29
  22   4 -27    0.06    0.78
  22   4 -24    1.31    0.87
  22   4 -21    0.86    0.96
  22   4 -18    7.10    1.45
  22   4 -15    6.43    1.92
  22   4 -12   24.72    1.38
  22   4  -9    4.62    0.96
  22   4  -6   35.79    2.73
  22   4  -3   13.28    1.11
  22   4   0    2.95    0.68
  22   4   3   10.14    0.58
  22   4   6    3.69    0.71
  22   4   9    1.47    0.64
  22   4  12   11.69    1.48
  22   4  15    4.95    1.06
  22   4  18    3.63    1.02
  22   4  21    2.65    1.20
  22   4  24    0.81    0.95
  22   5 -25    1.02    0.84
  22   5 -22    0.50    0.84
  22   5 -19    0.87    1.21
  22   5 -16    6.75    2.71
  22   5 -13    3.57    1.56
  22   5 -10   21.61    1.19
  22   5  -7   59.46    3.18
  22   5  -4   16.18    2.32
  22   5  -1    4.55    1.09
  22   5   2   20.16    1.24
  22   5   5   16.12    1.47
  22   5   8    3.47    0.46
  22   5  11    5.59    0.72
  22   5  14    0.82    0.79
  22   5  17   12.23    1.27
  22   5  20    0.15    1.17
  22   5  23    0.74    0.89
  22   5  26    0.04    0.99
  22   6 -26    2.08    0.84
  22   6 -23    1.06    0.86
  22   6 -20    0.12    0.80
  22   6 -17    5.34    1.46
  22   6 -14   18.30    3.73
  22   6 -11    6.56    1.22
  22   6  -8   37.56    1.76
  22   6  -5   13.45    0.93
  22   6  -2   62.57    3.68
  22   6   1    7.86    1.67
  22   6   4   12.19    1.02
  22   6   7    3.28    0.78
  22   6  10   26.94    2.50
  22   6  13   11.77    1.47
  22   6  16    6.19    2.44
  22   6  19   15.02    0.83
  22   6  22    1.31    1.61
  22   7 -24    0.41    0.81
  22   7 -21    0.46    0.84
  22   7 -18    3.61    1.25
  22   7 -15    7.34    1.77
  22   7 -12   18.04    2.18
  22   7  -9    9.85    2.88
  22   7  -6   23.12    2.50
  22   7  -3   12.13    1.27
  22   7   0    7.57    1.71
  22   7   3    6.09    1.76
  22   7   6    1.49    0.77
  22   7   9   70.44    2.89
  22   7  12    9.61    0.91
  22   7  15    9.57    1.44
  22   7  18    1.06    0.84
  22   7  21    0.27    1.62
  22   7  24    3.44    1.63
  22   8 -25    0.03    0.83
  22   8 -22    0.17    1.03
  22   8 -19    1.37    1.06
  22   8 -16    4.79    1.12
  22   8 -13    4.64    2.51
  22   8 -10    3.54    1.47
  22   8  -7   14.35    0.68
  22   8  -4    3.55    0.87
  22   8  -1    6.16    0.74
  22   8   2    1.86    0.50
  22   8   5    5.29    0.65
  22   8   8    4.52    1.33
  22   8  11   37.95    2.30
  22   8  14    5.54    1.39
  22   8  17    6.07    0.89
  22   8  20    3.86    2.09
  22   8  23    1.82    1.67
  22   9 -23    0.70    0.84
  22   9 -20    1.25    0.87
  22   9 -17    1.75    0.85
  22   9 -14   38.49    4.29
  22   9 -11    7.02    1.62
  22   9  -8   12.49    0.76
  22   9  -5    1.00    1.13
  22   9  -2   19.21    0.93
  22   9   1    4.33    1.58
  22   9   4    4.58    0.73
  22   9   7    1.90    0.66
  22   9  10   16.49    0.71
  22   9  13    0.13    1.34
  22   9  16    1.38    1.24
  22   9  19    0.65    1.76
  22   9  22    2.46    1.68
  22  10 -24    0.11    1.18
  22  10 -21    1.56    0.88
  22  10 -18    1.31    0.85
  22  10 -15   13.96    1.44
  22  10 -12    6.21    1.38
  22  10  -9   21.04    1.52
  22  10  -6   15.46    0.60
  22  10  -3   10.14    0.48
  22  10   0   10.35    0.50
  22  10   3    3.80    2.25
  22  10   6    3.05    0.68
  22  10   9   22.74    1.57
  22  10  12    1.08    0.80
  22  10  15    2.01    1.38
  22  10  18    0.80    0.86
  22  10  21    2.50    1.62
  22  11 -22    2.39    1.95
  22  11 -19    0.87    1.27
  22  11 -16   22.65    1.88
  22  11 -13    7.16    1.20
  22  11 -10   29.65    3.16
  22  11  -7    7.64    1.11
  22  11  -4   36.10    2.60
  22  11  -1   10.17    3.10
  22  11   2   16.02    0.61
  22  11   5    4.92    0.99
  22  11   8   31.14    1.69
  22  11  11   11.56    1.26
  22  11  14   15.65    2.42
  22  11  17    0.18    0.86
  22  11  20    0.39    1.73
  22  12 -20    1.19    1.72
  22  12 -17    1.42    2.17
  22  12 -14    1.29    2.94
  22  12 -11    7.90    2.21
  22  12  -8   24.44    1.94
  22  12  -5    3.46    0.94
  22  12  -2    3.89    1.71
  22  12   1    5.45    0.94
  22  12   4    6.01    0.62
  22  12   7    8.53    0.93
  22  12  10   14.11    1.52
  22  12  13   17.45    1.60
  22  12  16    0.06    0.85
  22  12  19    0.91    1.63
  22  12  22    0.35    2.16
  22  13 -21    1.18    1.75
  22  13 -18    3.60    2.04
  22  13 -15    2.09    1.46
  22  13 -12   15.73    2.36
  22  13  -9    0.63    0.60
  22  13  -6   14.15    2.47
  22  13  -3   19.48    1.54
  22  13   0   49.10    2.31
  22  13   3    6.75    0.53
  22  13   6   16.47    2.36
  22  13   9    3.83    1.11
  22  13  12   20.35    1.66
  22  13  15    2.17    0.87
  22  13  18    4.69    1.99
  22  13  21    3.06    2.27
  22  14 -19    0.79    1.86
  22  14 -16    3.07    2.36
  22  14 -13    1.11    1.12
  22  14 -10    1.03    1.00
  22  14  -7    7.26    0.90
  22  14  -4    7.13    1.09
  22  14  -1    5.88    0.75
  22  14   2    2.34    0.63
  22  14   5   13.54    1.07
  22  14   8    0.46    0.66
  22  14  11    3.05    0.76
  22  14  14    1.88    0.89
  22  14  17    2.18    1.84
  22  14  20    0.17    1.91
  22  15 -20    0.72    1.75
  22  15 -17    1.61    1.93
  22  15 -14    5.73    2.73
  22  15 -11   11.18    1.34
  22  15  -8    7.96    1.58
  22  15  -5    1.06    1.10
  22  15  -2   10.97    1.26
  22  15   1    6.45    1.24
  22  15   4    8.02    1.32
  22  15   7   11.94    1.22
  22  15  10    4.00    0.75
  22  15  13    2.89    0.90
  22  15  16    0.13    1.60
  22  15  19    1.01    2.30
  22  16 -18    0.12    1.77
  22  16 -15    0.53    1.90
  22  16 -12    0.12    0.90
  22  16  -9   14.17    1.49
  22  16  -6    2.91    0.91
  22  16  -3    2.90    1.12
  22  16   0    5.79    0.61
  22  16   3    6.96    1.09
  22  16   6    9.37    0.92
  22  16   9    4.64    1.10
  22  16  12    2.14    1.44
  22  16  15    1.45    2.17
  22  16  18    0.80    2.11
  22  17 -16    0.30    1.90
  22  17 -13    3.20    3.23
  22  17 -10    1.81    0.79
  22  17  -7    1.94    0.59
  22  17  -4   10.54    1.28
  22  17  -1    4.40    1.66
  22  17   2    1.27    0.79
  22  17   5    4.11    1.02
  22  17   8    1.41    0.59
  22  17  11    2.04    1.62
  22  17  14    4.56    2.32
  22  17  17    0.03    2.08
  22  18 -17    2.13    1.96
  22  18 -14    0.79    0.97
  22  18 -11    0.33    0.84
  22  18  -8    0.18    0.56
  22  18  -5    6.91    0.64
  22  18  -2    6.88    2.25
  22  18   1    0.50    0.81
  22  18   4    5.29    0.63
  22  18   7    0.28    0.59
  22  18  10    0.24    0.76
  22  18  13    0.09    1.93
  22  18  16    2.10    1.91
  22  19 -15    2.03    1.81
  22  19 -12    2.02    1.31
  22  19  -9    3.22    0.71
  22  19  -6    3.89    0.57
  22  19  -3   24.58    2.33
  22  19   0    0.08    0.69
  22  19   3   20.21    1.66
  22  19   6    5.53    0.71
  22  19   9   10.74    1.03
  22  19  12    0.46    1.03
  22  19  15    2.41    1.82
  22  20 -13    0.46    0.91
  22  20 -10    2.28    1.48
  22  20  -7    3.06    0.58
  22  20  -4    4.77    1.29
  22  20  -1    1.28    0.68
  22  20   2    1.67    1.37
  22  20   5    3.72    0.58
  22  20   8    0.34    0.58
  22  20  11    0.44    0.89
  22  20  14    3.55    2.11
  22  21 -14    1.51    1.93
  22  21 -11    1.23    0.92
  22  21  -8    1.94    0.67
  22  21  -5    0.33    0.56
  22  21  -2    1.83    1.13
  22  21   1    3.51    0.93
  22  21   4    1.50    0.63
  22  21   7    5.61    1.04
  22  21  10    0.05    0.95
  22  21  13    0.20    1.90
  22  22   0    1.05    1.21
  22  22   3    0.10    0.70
  22  22   6    0.75    0.79
  22  22   9    0.81    0.69
  22  22  12    0.83    0.82
  23   0 -28    0.10    0.80
  23   0 -25    0.08    1.07
  23   0 -22    0.03    0.93
  23   0 -19    0.26    0.99
  23   0 -16    2.15    1.12
  23   0 -13    1.28    1.42
  23   0 -10   30.23    1.49
  23   0  -7    0.86    0.71
  23   0  -4    1.90    0.76
  23   0  -1    1.14    0.53
  23   0   2   42.30    2.42
  23   0   5  119.18    5.66
  23   0   8    1.71    0.56
  23   0  11    2.13    0.54
  23   0  14    1.91    0.88
  23   0  17   22.36    1.71
  23   0  20   19.15    1.95
  23   0  23    1.25    0.75
  23   0  26    0.70    1.13
  23   1 -26    0.18    0.85
  23   1 -23    2.63    0.80
  23   1 -20    8.18    1.92
  23   1 -17    9.21    2.44
  23   1 -14   63.50    2.81
  23   1 -11    1.37    1.12
  23   1  -8    2.87    0.65
  23   1  -5   28.83    1.85
  23   1  -2    2.73    0.76
  23   1   1    9.75    1.29
  23   1   4   32.96    1.76
  23   1   7   16.36    1.48
  23   1  10   16.45    3.53
  23   1  13    2.02    0.91
  23   1  16    2.17    0.81
  23   1  19    3.80    1.08
  23   1  22    0.56    0.83
  23   1  25    0.12    0.82
  23   2 -27    0.06    0.78
  23   2 -24    0.42    0.83
  23   2 -21    4.83    1.08
  23   2 -18    3.00    1.05
  23   2 -15    3.59    0.86
  23   2 -12   38.02    2.59
  23   2  -9   24.97    4.34
  23   2  -6   20.94    1.23
  23   2  -3   10.48    1.31
  23   2   0   11.27    1.51
  23   2   3   45.22    1.45
  23   2   6   13.02    1.03
  23   2   9   41.87    2.18
  23   2  12   19.42    1.13
  23   2  15    3.61    0.88
  23   2  18   10.11    1.83
  23   2  21    0.28    0.81
  23   2  24    0.54    0.89
  23   3 -25    0.11    0.82
  23   3 -22    1.28    1.13
  23   3 -19    4.40    1.17
  23   3 -16    0.79    1.09
  23   3 -13   11.79    1.95
  23   3 -10   69.02    6.11
  23   3  -7   27.61    1.41
  23   3  -4   13.59    1.03
  23   3  -1   38.77    1.12
  23   3   2   32.89    1.51
  23   3   5   15.89    1.81
  23   3   8   11.02    1.57
  23   3  11   14.10    1.63
  23   3  14    8.98    1.29
  23   3  17    2.58    0.94
  23   3  20    1.16    0.82
  23   3  23    1.51    1.24
  23   3  26    0.04    0.94
  23   4 -26    0.15    0.86
  23   4 -23    0.86    0.87
  23   4 -20    2.17    1.47
  23   4 -17    6.72    1.94
  23   4 -14    0.38    1.11
  23   4 -11   12.33    2.43
  23   4  -8    2.46    0.78
  23   4  -5    8.75    1.04
  23   4  -2   17.32    0.88
  23   4   1    4.79    0.46
  23   4   4   10.52    0.93
  23   4   7    6.40    0.94
  23   4  10    1.16    0.61
  23   4  13    2.15    0.72
  23   4  16    4.62    0.81
  23   4  19    1.18    0.78
  23   4  22    0.59    1.16
  23   4  25    0.05    0.94
  23   5 -24    0.25    0.82
  23   5 -21    0.70    0.85
  23   5 -18   23.68    2.40
  23   5 -15    0.09    1.28
  23   5 -12    4.21    0.87
  23   5  -9   25.39    1.67
  23   5  -6   61.86    4.91
  23   5  -3   28.89    1.23
  23   5   0   35.03    0.90
  23   5   3   46.35    1.36
  23   5   6   15.94    1.04
  23   5   9   14.67    1.18
  23   5  12   13.50    2.14
  23   5  15   19.99    1.51
  23   5  18    8.94    1.28
  23   5  21    0.39    1.52
  23   5  24    0.16    1.59
  23   6 -25    0.35    0.86
  23   6 -22    0.09    0.85
  23   6 -19    9.17    3.50
  23   6 -16    0.25    3.00
  23   6 -13   21.08    1.56
  23   6 -10   10.52    1.25
  23   6  -7   54.04    3.98
  23   6  -4    2.03    0.96
  23   6  -1    3.45    0.80
  23   6   2   64.98    2.32
  23   6   5   20.40    0.68
  23   6   8   32.28    2.47
  23   6  11   23.84    2.09
  23   6  14    6.13    0.87
  23   6  17   14.93    1.16
  23   6  20    0.33    1.59
  23   6  23    4.19    3.54
  23   7 -23    0.22    0.82
  23   7 -20    0.36    0.83
  23   7 -17    1.90    1.25
  23   7 -14    3.00    1.72
  23   7 -11    4.38    2.57
  23   7  -8    2.53    2.81
  23   7  -5    1.08    1.09
  23   7  -2   23.13    2.20
  23   7   1    5.76    1.09
  23   7   4   19.05    1.61
  23   7   7   35.04    2.02
  23   7  10   39.50    2.30
  23   7  13    1.34    0.82
  23   7  16    3.54    0.89
  23   7  19    4.04    1.71
  23   7  22    2.71    1.65
  23   8 -24    0.93    0.85
  23   8 -21    0.57    0.84
  23   8 -18    0.00    0.80
  23   8 -15    0.93    2.38
  23   8 -12    0.21    0.93
  23   8  -9   13.67    3.28
  23   8  -6   11.75    1.55
  23   8  -3   27.10    0.88
  23   8   0    1.37    0.66
  23   8   3    6.38    0.93
  23   8   6   30.91    1.19
  23   8   9    6.04    0.93
  23   8  12    3.60    1.43
  23   8  15    1.20    1.00
  23   8  18    6.63    0.91
  23   8  21    0.77    1.77
  23   9 -22    2.71    1.27
  23   9 -19    0.00    0.84
  23   9 -16    0.97    0.74
  23   9 -13   10.75    2.36
  23   9 -10   17.99    2.52
  23   9  -7   15.00    0.66
  23   9  -4   20.36    1.21
  23   9  -1   12.29    0.99
  23   9   2    1.77    0.64
  23   9   5    6.08    0.90
  23   9   8   15.48    0.74
  23   9  11    2.88    1.08
  23   9  14    6.83    1.37
  23   9  17    0.21    0.81
  23   9  20    5.34    1.89
  23  10 -23    1.18    1.21
  23  10 -20    0.27    1.13
  23  10 -17    2.54    1.20
  23  10 -14    8.79    2.59
  23  10 -11   20.05    2.88
  23  10  -8   17.17    1.46
  23  10  -5   27.31    1.30
  23  10  -2    3.04    1.06
  23  10   1   13.81    1.19
  23  10   4    0.23    0.96
  23  10   7    7.66    1.10
  23  10  10    7.46    0.74
  23  10  13    7.53    2.03
  23  10  16    5.11    3.18
  23  10  19    4.78    1.96
  23  10  22    1.05    1.64
  23  11 -21    1.42    1.93
  23  11 -18    1.76    1.81
  23  11 -15    3.96    1.23
  23  11 -12    7.11    2.32
  23  11  -9   17.42    2.17
  23  11  -6   47.63    2.85
  23  11  -3    8.06    0.86
  23  11   0   14.39    1.04
  23  11   3    7.48    0.53
  23  11   6    4.69    0.71
  23  11   9    0.68    1.10
  23  11  12   17.03    2.53
  23  11  15    0.34    1.40
  23  11  18    2.61    1.71
  23  11  21    0.84    1.59
  23  12 -19    0.45    1.67
  23  12 -16    2.20    1.91
  23  12 -13    5.00    0.97
  23  12 -10   11.25    1.82
  23  12  -7   17.44    1.60
  23  12  -4   10.69    2.38
  23  12  -1   20.64    1.59
  23  12   2    1.35    0.53
  23  12   5   11.10    1.02
  23  12   8    1.06    0.65
  23  12  11    8.58    1.27
  23  12  14    3.35    0.95
  23  12  17    6.23    0.94
  23  12  20    0.89    1.64
  23  13 -20    1.23    1.73
  23  13 -17    9.99    3.21
  23  13 -14    8.85    1.17
  23  13 -11   19.23    2.66
  23  13  -8    0.64    0.63
  23  13  -5   15.65    1.33
  23  13  -2   33.29    1.78
  23  13   1    1.31    0.71
  23  13   4   19.70    3.76
  23  13   7   21.05    1.61
  23  13  10   11.60    1.13
  23  13  13    7.29    1.49
  23  13  16    3.45    0.96
  23  13  19    0.84    1.60
  23  14 -18    0.20    1.68
  23  14 -15    2.52    1.19
  23  14 -12    7.14    1.43
  23  14  -9    8.19    1.28
  23  14  -6   28.07    4.52
  23  14  -3   47.10    3.96
  23  14   0   14.48    1.31
  23  14   3    1.32    0.60
  23  14   6    9.69    1.82
  23  14   9    5.91    1.08
  23  14  12    6.04    0.75
  23  14  15    6.90    0.99
  23  14  18    0.37    1.74
  23  15 -19    0.15    1.71
  23  15 -16    0.67    1.86
  23  15 -13    5.44    1.38
  23  15 -10   16.79    1.02
  23  15  -7   17.78    1.31
  23  15  -4   22.89    1.81
  23  15  -1    9.18    1.38
  23  15   2    2.89    0.56
  23  15   5    0.83    0.54
  23  15   8    9.20    1.12
  23  15  11    3.16    0.98
  23  15  14    0.94    0.96
  23  15  17    0.27    2.05
  23  16 -17    2.10    1.90
  23  16 -14    1.72    1.42
  23  16 -11    1.24    0.71
  23  16  -8   12.13    2.25
  23  16  -5    0.60    1.10
  23  16  -2   16.13    1.83
  23  16   1    2.13    0.55
  23  16   4   21.33    2.77
  23  16   7    1.23    0.63
  23  16  10    2.51    0.85
  23  16  13    1.31    1.02
  23  16  16    4.46    2.27
  23  17 -15    2.53    1.99
  23  17 -12    1.83    0.98
  23  17  -9    1.04    0.76
  23  17  -6    6.81    1.45
  23  17  -3    2.90    1.18
  23  17   0    2.06    1.27
  23  17   3    5.09    1.26
  23  17   6    9.98    1.17
  23  17   9    5.52    1.19
  23  17  12    0.49    0.68
  23  17  15    1.50    1.86
  23  18 -16    0.30    1.73
  23  18 -13    0.02    0.96
  23  18 -10    3.95    0.81
  23  18  -7    0.52    0.75
  23  18  -4   13.43    1.26
  23  18  -1    1.86    0.72
  23  18   2    7.48    1.20
  23  18   5    6.71    0.58
  23  18   8    3.74    1.05
  23  18  11    2.46    0.97
  23  18  14    0.31    1.81
  23  19 -14    0.04    1.68
  23  19 -11    4.81    1.46
  23  19  -8    0.52    0.67
  23  19  -5    4.80    0.75
  23  19  -2   12.73    1.87
  23  19   1    9.63    1.51
  23  19   4    0.65    0.60
  23  19   7   11.56    2.42
  23  19  10    2.37    0.81
  23  19  13    1.32    1.87
  23  20 -12    0.66    1.02
  23  20  -9    1.24    0.93
  23  20  -6    0.65    0.73
  23  20  -3    7.18    2.47
  23  20   0    3.83    0.73
  23  20   3   10.01    1.88
  23  20   6    1.30    0.72
  23  20   9    0.19    1.50
  23  20  12    1.20    0.94
  23  21 -13    0.37    0.75
  23  21 -10    2.63    1.09
  23  21  -7    1.56    0.75
  23  21  -4    1.07    0.73
  23  21  -1    2.23    0.74
  23  21   2   20.28    2.12
  23  21   5    2.34    0.58
  23  21   8    3.12    0.96
  23  21  11    1.06    0.85
  23  22 -11    0.16    0.82
  23  22  -8    2.86    1.52
  23  22  -5    1.82    0.81
  23  22  -2    1.51    1.15
  23  22   1    2.06    0.77
  23  22   4    2.18    0.83
  23  22   7    4.71    0.80
  23  22  10    0.20    0.86
  23  23   0    1.90    1.19
  23  23   3    0.39    0.71
  23  23   6    4.27    0.91
  23  23   9    0.84    0.85
  24   0 -27    0.01    0.78
  24   0 -24    1.48    0.89
  24   0 -21    0.54    1.48
  24   0 -18    3.89    1.34
  24   0 -15    9.19    0.99
  24   0 -12   14.16    1.10
  24   0  -9   91.13    4.43
  24   0  -6    0.03    0.75
  24   0  -3    0.14    0.55
  24   0   0    0.06    0.44
  24   0   3    6.06    0.72
  24   0   6    0.56    0.58
  24   0   9   19.96    1.54
  24   0  12    0.01    0.62
  24   0  15    0.30    0.70
  24   0  18   27.39    1.86
  24   0  21    1.26    1.15
  24   0  24    1.82    1.08
  24   1 -25    0.30    0.89
  24   1 -22    4.17    1.06
  24   1 -19    3.78    1.07
  24   1 -16    8.77    1.08
  24   1 -13   12.92    1.71
  24   1 -10    2.18    1.27
  24   1  -7    7.06    1.36
  24   1  -4    1.48    1.33
  24   1  -1    5.97    0.96
  24   1   2    8.57    1.16
  24   1   5    6.71    1.17
  24   1   8    7.92    0.86
  24   1  11   31.93    2.04
  24   1  14   15.97    1.31
  24   1  17   15.25    1.47
  24   1  20    1.64    0.92
  24   1  23    1.01    1.42
  24   1  26    0.11    0.93
  24   2 -26    0.62    0.84
  24   2 -23    1.73    0.95
  24   2 -20    0.05    0.95
  24   2 -17   13.66    1.89
  24   2 -14    2.72    1.41
  24   2 -11   11.26    0.92
  24   2  -8    1.35    1.07
  24   2  -5   17.95    1.14
  24   2  -2    6.07    0.74
  24   2   1   13.17    1.11
  24   2   4    2.82    0.56
  24   2   7   37.55    1.50
  24   2  10   26.62    2.50
  24   2  13   17.32    1.54
  24   2  16   17.87    1.37
  24   2  19    1.36    0.86
  24   2  22    1.45    1.01
  24   2  25    0.14    1.20
  24   3 -24    0.25    0.83
  24   3 -21    2.01    0.97
  24   3 -18   11.25    1.28
  24   3 -15    6.35    1.21
  24   3 -12   36.26    3.51
  24   3  -9   53.80    3.11
  24   3  -6    7.86    0.65
  24   3  -3    7.63    0.87
  24   3   0   36.20    1.27
  24   3   3    0.35    0.80
  24   3   6    6.15    0.98
  24   3   9   24.32    1.29
  24   3  12   50.78    1.66
  24   3  15    0.04    1.04
  24   3  18    4.40    0.92
  24   3  21    1.39    1.56
  24   3  24    6.04    2.68
  24   4 -25    0.23    0.92
  24   4 -22    0.29    0.85
  24   4 -19    1.06    1.53
  24   4 -16    2.05    1.24
  24   4 -13    2.09    4.79
  24   4 -10    3.19    2.71
  24   4  -7    1.26    2.37
  24   4  -4   12.70    0.65
  24   4  -1   10.60    1.00
  24   4   2   15.34    0.93
  24   4   5    8.49    0.68
  24   4   8   16.84    1.57
  24   4  11    0.40    0.70
  24   4  14   15.58    1.52
  24   4  17    4.54    1.11
  24   4  20    0.28    0.77
  24   4  23    1.32    1.69
  24   5 -26    0.77    1.29
  24   5 -23    0.12    0.87
  24   5 -20    1.27    0.95
  24   5 -17   12.38    2.00
  24   5 -14    0.40    1.54
  24   5 -11    0.44    1.66
  24   5  -8   30.39    2.60
  24   5  -5    1.15    0.53
  24   5  -2   17.69    1.32
  24   5   1    1.03    0.52
  24   5   4    5.91    0.73
  24   5   7    4.98    0.55
  24   5  10   32.55    2.52
  24   5  13   11.33    1.45
  24   5  16   16.66    1.62
  24   5  19    3.63    0.89
  24   5  22    1.97    1.61
  24   6 -24    0.38    0.85
  24   6 -21    4.43    1.55
  24   6 -18    3.80    1.08
  24   6 -15    4.18    1.79
  24   6 -12    0.41    2.10
  24   6  -9   24.94    1.78
  24   6  -6   19.28    0.89
  24   6  -3    1.51    0.64
  24   6   0    4.66    0.86
  24   6   3   33.36    1.60
  24   6   6   17.69    1.10
  24   6   9   41.57    2.62
  24   6  12   12.82    1.75
  24   6  15   50.66    2.54
  24   6  18    0.57    0.85
  24   6  21    4.43    3.62
  24   7 -22    0.07    0.84
  24   7 -19    1.82    0.90
  24   7 -16    9.23    2.50
  24   7 -13   30.39    2.35
  24   7 -10    3.37    1.78
  24   7  -7    0.76    1.18
  24   7  -4    8.73    1.80
  24   7  -1   11.71    0.85
  24   7   2    3.39    0.79
  24   7   5   17.51    1.57
  24   7   8   74.39    7.70
  24   7  11   27.61    2.12
  24   7  14    2.32    1.13
  24   7  17    2.34    1.20
  24   7  20    1.21    1.63
  24   7  23    0.92    2.54
  24   8 -23    3.02    1.22
  24   8 -20    0.03    0.84
  24   8 -17    2.29    1.03
  24   8 -14    3.90    1.51
  24   8 -11   15.40    3.08
  24   8  -8    0.84    0.79
  24   8  -5   33.21    2.50
  24   8  -2   10.71    1.26
  24   8   1   20.35    1.03
  24   8   4    6.79    0.54
  24   8   7   25.09    2.96
  24   8  10    2.21    0.68
  24   8  13    1.10    0.97
  24   8  16   11.16    1.38
  24   8  19    0.95    1.66
  24   8  22    1.12    1.59
  24   9 -21    1.75    2.07
  24   9 -18    3.98    0.94
  24   9 -15    1.90    1.40
  24   9 -12    0.60    0.94
  24   9  -9    2.35    1.11
  24   9  -6    2.43    1.49
  24   9  -3    1.00    0.74
  24   9   0    2.73    0.96
  24   9   3    1.27    0.49
  24   9   6    6.73    0.97
  24   9   9   16.34    2.20
  24   9  12   12.77    1.99
  24   9  15    2.23    1.45
  24   9  18    1.65    1.56
  24   9  21    0.57    1.62
  24  10 -19    2.46    1.83
  24  10 -16    2.61    0.93
  24  10 -13    6.96    1.97
  24  10 -10   15.31    1.51
  24  10  -7   48.74    2.89
  24  10  -4   89.14    4.08
  24  10  -1   29.82    2.57
  24  10   2    2.84    0.52
  24  10   5   11.73    0.84
  24  10   8    3.61    0.76
  24  10  11   14.88    1.56
  24  10  14    1.36    0.95
  24  10  17    1.42    0.95
  24  10  20    0.19    1.63
  24  11 -20    1.49    1.81
  24  11 -17    1.82    1.93
  24  11 -14   15.21    2.61
  24  11 -11    1.26    0.88
  24  11  -8    1.48    0.97
  24  11  -5   29.16    4.79
  24  11  -2   17.49    2.55
  24  11   1    1.83    0.66
  24  11   4    2.24    0.53
  24  11   7   42.94    1.49
  24  11  10    9.99    2.27
  24  11  13    5.84    2.65
  24  11  16    2.20    0.99
  24  11  19    0.81    1.55
  24  12 -18    0.78    1.68
  24  12 -15    0.47    0.78
  24  12 -12   10.14    2.20
  24  12  -9   19.04    2.04
  24  12  -6   15.59    1.83
  24  12  -3   31.85    3.13
  24  12   0    7.60    0.58
  24  12   3    1.44    0.54
  24  12   6    3.58    0.58
  24  12   9    3.69    0.75
  24  12  12    1.11    1.00
  24  12  15    0.55    1.14
  24  12  18    0.21    1.66
  24  13 -19    0.37    1.70
  24  13 -16    0.29    1.70
  24  13 -13    0.20    0.86
  24  13 -10    6.13    1.47
  24  13  -7    5.99    1.87
  24  13  -4   21.59    1.12
  24  13  -1    8.64    0.53
  24  13   2    0.00    1.05
  24  13   5    8.03    1.24
  24  13   8    7.60    0.66
  24  13  11   20.95    1.55
  24  13  14    2.11    0.99
  24  13  17    0.77    1.84
  24  14 -17    0.31    2.03
  24  14 -14    0.47    0.86
  24  14 -11    2.45    0.72
  24  14  -8   31.06    5.82
  24  14  -5   24.06    2.00
  24  14  -2   13.24    2.50
  24  14   1    0.80    0.55
  24  14   4   10.30    0.92
  24  14   7    7.53    0.66
  24  14  10    4.46    1.00
  24  14  13    1.52    1.00
  24  14  16    4.15    2.08
  24  14  19    3.71    2.25
  24  15 -18    0.26    1.75
  24  15 -15    2.62    1.28
  24  15 -12    1.65    0.84
  24  15  -9    4.58    1.91
  24  15  -6    1.91    0.80
  24  15  -3   22.29    1.50
  24  15   0    1.99    0.58
  24  15   3   22.25    2.15
  24  15   6    8.63    1.00
  24  15   9    3.66    0.76
  24  15  12    0.88    0.73
  24  15  15    4.53    1.77
  24  15  18    0.58    1.90
  24  16 -16    0.11    1.83
  24  16 -13    0.48    0.97
  24  16 -10    2.53    1.19
  24  16  -7    5.55    1.10
  24  16  -4    9.45    1.56
  24  16  -1    8.67    1.35
  24  16   2   23.00    1.96
  24  16   5    3.98    0.56
  24  16   8    1.15    0.82
  24  16  11    1.97    0.73
  24  16  14   10.56    1.57
  24  16  17    0.32    1.73
  24  17 -14    0.14    0.88
  24  17 -11    0.83    0.86
  24  17  -8    0.04    0.71
  24  17  -5    3.55    0.80
  24  17  -2    9.68    1.61
  24  17   1    1.51    0.57
  24  17   4    1.81    0.70
  24  17   7    0.62    0.58
  24  17  10    1.78    0.77
  24  17  13    0.39    0.92
  24  17  16    0.96    1.83
  24  18 -15    0.83    1.62
  24  18 -12    0.88    0.94
  24  18  -9    0.58    0.68
  24  18  -6    5.32    0.76
  24  18  -3    0.54    0.76
  24  18   0    9.21    0.90
  24  18   3    8.21    0.79
  24  18   6    1.71    0.55
  24  18   9    2.13    1.85
  24  18  12    0.39    0.66
  24  18  15    0.25    1.73
  24  19 -13    0.13    0.84
  24  19 -10    0.07    0.71
  24  19  -7    0.33    0.71
  24  19  -4    4.28    1.36
  24  19  -1    0.64    1.39
  24  19   2    7.79    1.90
  24  19   5    1.19    0.70
  24  19   8    2.77    0.68
  24  19  11    0.15    0.88
  24  19  14    0.42    1.65
  24  20 -11    0.67    0.86
  24  20  -8    0.97    0.96
  24  20  -5    0.64    0.87
  24  20  -2    2.42    0.76
  24  20   1    0.44    0.83
  24  20   4    1.55    0.56
  24  20   7    0.09    0.57
  24  20  10    0.13    0.90
  24  21 -12    0.26    0.84
  24  21  -9    2.41    2.11
  24  21  -6    2.97    0.76
  24  21  -3    1.06    0.72
  24  21   0    3.37    0.84
  24  21   3    0.58    1.21
  24  21   6    3.11    0.58
  24  21   9    0.50    0.91
  24  21  12    0.26    0.88
  24  22 -10    0.03    0.88
  24  22  -7    3.20    0.75
  24  22  -4    2.68    1.00
  24  22  -1    1.30    0.69
  24  22   2    0.33    0.82
  24  22   5    3.31    0.91
  24  22   8    0.54    1.06
  24  22  11    0.05    0.88
  24  23  -8    0.00    0.67
  24  23  -5    0.56    0.65
  24  23  -2    3.34    1.02
  24  23   1    0.24    1.49
  24  23   4    0.39    0.66
  24  23   7    0.31    0.68
  24  23  10    0.67    0.92
  24  24   0    1.66    1.07
  24  24   3    0.08    0.78
  24  24   6    0.06    1.15
  25   0 -26    0.21    0.83
  25   0 -23    3.03    0.92
  25   0 -20    1.45    1.07
  25   0 -17    7.89    1.02
  25   0 -14    0.42    1.13
  25   0 -11   10.92    1.54
  25   0  -8    8.23    1.25
  25   0  -5    4.35    0.57
  25   0  -2    6.57    0.69
  25   0   1   11.97    0.80
  25   0   4   12.66    1.50
  25   0   7   16.98    0.88
  25   0  10    0.01    0.62
  25   0  13    0.01    0.66
  25   0  16    2.23    0.92
  25   0  19    5.92    1.01
  25   0  22    0.38    0.95
  25   0  25    0.67    0.96
  25   1 -24    0.87    0.89
  25   1 -21    2.94    2.58
  25   1 -18    7.41    1.68
  25   1 -15   10.59    2.09
  25   1 -12   17.77    1.65
  25   1  -9    6.50    1.04
  25   1  -6   12.26    0.84
  25   1  -3    1.29    0.61
  25   1   0   11.61    1.16
  25   1   3    5.31    1.15
  25   1   6   53.58    1.19
  25   1   9    3.26    0.71
  25   1  12    2.18    0.73
  25   1  15    3.38    1.15
  25   1  18    4.07    1.10
  25   1  21    1.65    1.60
  25   1  24    0.94    2.55
  25   2 -25    0.15    0.86
  25   2 -22    4.39    1.07
  25   2 -19    2.04    1.29
  25   2 -16   30.63    4.19
  25   2 -13    1.17    1.54
  25   2 -10    6.41    2.33
  25   2  -7    4.39    1.26
  25   2  -4   18.68    1.94
  25   2  -1    3.19    0.47
  25   2   2   38.00    0.95
  25   2   5   41.64    2.19
  25   2   8   43.39    2.01
  25   2  11   18.89    1.54
  25   2  14    2.58    1.91
  25   2  17    0.52    0.82
  25   2  20    0.87    0.86
  25   2  23    0.92    2.87
  25   3 -26    0.04    0.92
  25   3 -23    0.57    0.88
  25   3 -20    1.93    1.64
  25   3 -17   15.83    1.37
  25   3 -14   17.49    2.46
  25   3 -11   54.28    1.97
  25   3  -8   11.54    1.31
  25   3  -5   40.91    1.77
  25   3  -2    1.15    0.50
  25   3   1    0.51    0.91
  25   3   4    8.63    1.07
  25   3   7   36.41    4.52
  25   3  10   34.33    1.94
  25   3  13    0.26    0.70
  25   3  16    9.05    1.32
  25   3  19    2.07    0.83
  25   3  22    0.61    1.62
  25   4 -24    0.89    0.89
  25   4 -21    2.99    0.95
  25   4 -18    4.87    2.25
  25   4 -15    4.33    1.48
  25   4 -12    2.69    1.74
  25   4  -9   13.07    2.81
  25   4  -6    7.45    0.83
  25   4  -3   14.29    1.56
  25   4   0   24.52    1.38
  25   4   3    8.34    0.81
  25   4   6   16.33    0.84
  25   4   9   21.22    1.57
  25   4  12    2.72    1.21
  25   4  15    5.33    0.90
  25   4  18    0.54    0.80
  25   4  21    0.11    1.69
  25   4  24    0.15    2.65
  25   5 -25    2.06    0.98
  25   5 -22    0.68    0.85
  25   5 -19    0.76    1.70
  25   5 -16    0.72    1.31
  25   5 -13   10.41    2.00
  25   5 -10    2.20    1.77
  25   5  -7    5.76    1.04
  25   5  -4    6.64    1.49
  25   5  -1    3.04    0.73
  25   5   2    2.89    0.71
  25   5   5    8.60    1.21
  25   5   8   26.84    1.18
  25   5  11    1.71    0.91
  25   5  14    6.99    1.23
  25   5  17    2.00    0.80
  25   5  20    2.14    1.88
  25   5  23    0.20    2.66
  25   6 -23    0.17    0.87
  25   6 -20    8.37    1.76
  25   6 -17    1.97    1.27
  25   6 -14    3.74    1.35
  25   6 -11    5.14    1.51
  25   6  -8    1.43    1.86
  25   6  -5   13.65    1.34
  25   6  -2   41.86    2.16
  25   6   1    6.16    0.63
  25   6   4    5.30    1.02
  25   6   7    3.38    0.68
  25   6  10   88.56    3.78
  25   6  13   12.66    1.58
  25   6  16    9.16    1.55
  25   6  19    1.58    0.93
  25   6  22    0.17    1.55
  25   7 -21    1.22    0.84
  25   7 -18    2.14    1.72
  25   7 -15    2.98    1.43
  25   7 -12   55.84    5.92
  25   7  -9    0.75    2.73
  25   7  -6   34.28    3.20
  25   7  -3   27.06    1.35
  25   7   0   41.94    4.01
  25   7   3    2.85    0.44
  25   7   6   31.89    2.57
  25   7   9   12.01    3.32
  25   7  12    2.12    1.34
  25   7  15   14.99    1.81
  25   7  18    1.27    1.12
  25   7  21    1.27    1.51
  25   8 -22    1.13    1.12
  25   8 -19    4.72    1.20
  25   8 -16    4.77    1.19
  25   8 -13   11.24    1.73
  25   8 -10    0.77    3.16
  25   8  -7   10.81    0.95
  25   8  -4   16.33    1.77
  25   8  -1   11.01    2.12
  25   8   2   11.14    1.24
  25   8   5    3.03    0.90
  25   8   8   10.89    0.64
  25   8  11    2.43    1.72
  25   8  14   20.13    1.91
  25   8  17    2.91    2.09
  25   8  20    0.20    1.72
  25   9 -20    1.37    1.74
  25   9 -17    0.39    1.69
  25   9 -14    9.31    1.83
  25   9 -11    1.05    1.78
  25   9  -8    3.87    1.03
  25   9  -5   32.66    2.62
  25   9  -2    5.75    0.80
  25   9   1    0.92    0.63
  25   9   4   18.91    1.14
  25   9   7    2.06    0.53
  25   9  10   12.35    1.14
  25   9  13    4.13    0.89
  25   9  16    4.33    0.88
  25   9  19    0.52    3.28
  25  10 -18    0.09    1.57
  25  10 -15    4.74    1.03
  25  10 -12    1.32    0.79
  25  10  -9    1.18    1.28
  25  10  -6   29.90    2.09
  25  10  -3   34.79    2.81
  25  10   0   16.93    1.03
  25  10   3    1.10    0.56
  25  10   6   11.50    0.97
  25  10   9   27.24    2.29
  25  10  12    3.06    1.01
  25  10  15   11.17    1.24
  25  10  18    2.08    1.66
  25  11 -19    0.43    1.66
  25  11 -16    3.33    1.21
  25  11 -13    0.59    0.87
  25  11 -10    1.12    0.96
  25  11  -7    1.07    1.33
  25  11  -4    1.64    0.73
  25  11  -1   19.72    1.79
  25  11   2    2.48    0.63
  25  11   5    2.90    1.08
  25  11   8   36.45    2.95
  25  11  11   19.63    1.79
  25  11  14    0.86    0.87
  25  11  17    1.26    0.99
  25  11  20    0.18    2.15
  25  12 -17    2.81    2.20
  25  12 -14    0.28    0.79
  25  12 -11    0.67    0.72
  25  12  -8    1.89    1.01
  25  12  -5    1.83    2.97
  25  12  -2    0.82    1.12
  25  12   1    1.31    0.55
  25  12   4   15.58    0.97
  25  12   7   15.32    1.21
  25  12  10    3.43    0.81
  25  12  13    0.01    0.91
  25  12  16    0.64    2.15
  25  12  19    1.02    1.81
  25  13 -18    0.94    1.81
  25  13 -15    2.24    1.78
  25  13 -12    2.07    0.66
  25  13  -9    0.44    0.75
  25  13  -6    1.22    1.02
  25  13  -3    1.64    1.22
  25  13   0    1.38    0.68
  25  13   3    8.88    1.00
  25  13   6    0.07    0.52
  25  13   9    8.14    1.53
  25  13  12    0.12    0.92
  25  13  15    4.05    1.34
  25  13  18    2.04    1.64
  25  14 -16    0.19    2.25
  25  14 -13    1.15    0.81
  25  14 -10    0.84    0.77
  25  14  -7    0.00    0.80
  25  14  -4    0.33    0.78
  25  14  -1    1.46    0.73
  25  14   2    1.96    0.94
  25  14   5    5.81    1.87
  25  14   8    0.21    0.56
  25  14  11    0.79    0.72
  25  14  14    1.56    1.60
  25  14  17    1.03    1.91
  25  15 -17    0.79    1.72
  25  15 -14    0.43    1.02
  25  15 -11    0.88    0.67
  25  15  -8    0.04    0.68
  25  15  -5    3.46    1.61
  25  15  -2    0.58    0.80
  25  15   1   11.85    1.54
  25  15   4    4.95    0.59
  25  15   7    0.22    0.59
  25  15  10    1.96    0.95
  25  15  13    0.72    0.90
  25  15  16    1.68    1.99
  25  16 -15    1.82    1.86
  25  16 -12    0.99    1.43
  25  16  -9    0.36    0.69
  25  16  -6    1.65    0.82
  25  16  -3    1.92    0.85
  25  16   0   12.59    1.91
  25  16   3    3.47    0.61
  25  16   6    0.34    0.56
  25  16   9    1.09    0.73
  25  16  12    0.64    0.89
  25  16  15    4.03    1.98
  25  17 -13    1.96    0.93
  25  17 -10    0.10    0.72
  25  17  -7    1.57    0.71
  25  17  -4    6.71    1.91
  25  17  -1    2.23    0.95
  25  17   2   13.38    1.58
  25  17   5    0.62    0.56
  25  17   8    0.47    1.06
  25  17  11    0.08    0.67
  25  17  14    0.95    1.76
  25  18 -14    0.66    0.96
  25  18 -11    1.66    1.02
  25  18  -8    0.29    0.73
  25  18  -5    0.19    0.77
  25  18  -2    4.10    1.60
  25  18   1    7.96    1.23
  25  18   4    2.20    0.64
  25  18   7    1.20    0.58
  25  18  10    0.15    0.68
  25  18  13    0.27    1.66
  25  19 -12    0.66    0.82
  25  19  -9    1.86    0.73
  25  19  -6    2.42    1.48
  25  19  -3    0.39    0.76
  25  19   0   10.82    1.15
  25  19   3    9.78    0.96
  25  19   6    0.14    0.58
  25  19   9    0.16    0.69
  25  19  12    0.91    1.76
  25  20 -10    2.37    0.97
  25  20  -7    0.55    0.72
  25  20  -4    0.37    0.72
  25  20  -1    3.46    0.84
  25  20   2    1.93    1.12
  25  20   5    2.17    0.75
  25  20   8    1.73    0.81
  25  20  11    0.07    0.94
  25  21 -11    0.10    0.83
  25  21  -8    2.34    0.87
  25  21  -5    0.62    0.67
  25  21  -2    0.40    0.69
  25  21   1    0.02    1.17
  25  21   4    0.35    0.72
  25  21   7    0.11    0.83
  25  21  10    0.46    0.94
  25  22  -9    0.33    0.94
  25  22  -6    6.05    1.08
  25  22  -3    0.47    0.69
  25  22   0    0.83    0.94
  25  22   3    0.03    0.77
  25  22   6    0.48    0.73
  25  22   9    0.44    1.01
  25  23  -7    2.50    1.48
  25  23  -4    1.81    0.81
  25  23  -1    0.79    1.15
  25  23   2    0.52    0.82
  25  23   5    0.27    0.77
  25  23   8    0.86    0.90
  25  24  -5    3.89    0.96
  25  24  -2    0.36    0.71
  25  24   1    0.44    0.74
  25  24   4    0.68    0.72
  25  25   0    1.79    1.11
  25  25   3    0.39    0.90
  26   0 -25    2.09    0.92
  26   0 -22    1.64    1.39
  26   0 -19    2.65    1.26
  26   0 -16   13.66    2.07
  26   0 -13    6.62    2.06
  26   0 -10   11.54    3.44
  26   0  -7    1.43    0.60
  26   0  -4    0.41    2.38
  26   0  -1    4.23    0.48
  26   0   2    5.52    1.11
  26   0   5    0.02    0.46
  26   0   8   10.98    0.48
  26   0  11   45.14    1.87
  26   0  14   18.30    2.21
  26   0  17    5.77    0.82
  26   0  20    4.31    1.28
  26   0  23    5.65    2.47
  26   1 -26    0.68    0.78
  26   1 -23    0.98    1.01
  26   1 -20    8.69    2.72
  26   1 -17    1.75    1.39
  26   1 -14    4.70    0.98
  26   1 -11    7.00    2.06
  26   1  -8    4.20    1.60
  26   1  -5   15.16    1.56
  26   1  -2   13.27    1.52
  26   1   1   16.90    0.90
  26   1   4   26.36    1.34
  26   1   7    3.57    0.55
  26   1  10   68.43    3.98
  26   1  13    5.99    0.74
  26   1  16    1.11    0.77
  26   1  19    0.55    0.79
  26   1  22    6.77    2.69
  26   2 -24    0.67    0.91
  26   2 -21    0.81    0.95
  26   2 -18    3.68    1.42
  26   2 -15   11.45    2.17
  26   2 -12   18.21    1.71
  26   2  -9   51.01    4.75
  26   2  -6   16.40    1.11
  26   2  -3    0.11    0.71
  26   2   0    2.75    0.89
  26   2   3    1.17    0.75
  26   2   6    4.62    0.63
  26   2   9   35.40    2.60
  26   2  12   43.17    2.38
  26   2  15    6.15    1.54
  26   2  18    0.81    0.80
  26   2  21    1.75    1.96
  26   2  24    0.94    2.36
  26   3 -25    0.36    0.85
  26   3 -22    2.61    1.01
  26   3 -19    0.12    1.13
  26   3 -16   26.75    3.11
  26   3 -13    8.56    2.51
  26   3 -10   14.31    1.63
  26   3  -7    4.12    1.67
  26   3  -4   80.71    3.95
  26   3  -1    8.06    0.95
  26   3   2   32.56    2.05
  26   3   5   13.60    1.56
  26   3   8  107.62    3.75
  26   3  11   12.70    1.17
  26   3  14   48.05    2.26
  26   3  17    3.40    0.87
  26   3  20    6.99    0.91
  26   3  23    0.50    2.44
  26   4 -23    0.62    1.01
  26   4 -20    2.07    0.98
  26   4 -17    0.10    1.24
  26   4 -14    5.97    4.65
  26   4 -11    1.06    1.98
  26   4  -8    6.36    2.55
  26   4  -5   33.86    2.11
  26   4  -2   31.50    3.33
  26   4   1   38.13    2.13
  26   4   4    8.40    1.09
  26   4   7   28.17    1.73
  26   4  10   56.91    3.71
  26   4  13    9.49    1.14
  26   4  16    0.11    0.87
  26   4  19    7.90    1.25
  26   4  22    1.43    1.87
  26   5 -24    2.15    1.12
  26   5 -21    0.19    0.82
  26   5 -18    4.93    2.00
  26   5 -15   12.46    4.27
  26   5 -12   22.01    5.66
  26   5  -9   19.93    1.88
  26   5  -6   36.85    4.98
  26   5  -3   12.59    1.12
  26   5   0   19.47    1.81
  26   5   3   21.21    2.09
  26   5   6    8.30    0.71
  26   5   9   23.87    1.23
  26   5  12   16.81    1.61
  26   5  15    7.27    1.50
  26   5  18    0.46    0.90
  26   5  21    1.96    1.72
  26   6 -22    0.43    0.89
  26   6 -19    1.31    1.06
  26   6 -16    2.81    1.49
  26   6 -13    7.51    1.45
  26   6 -10    3.29    3.28
  26   6  -7   37.80    4.08
  26   6  -4    1.78    0.55
  26   6  -1   72.44    3.15
  26   6   2    3.19    0.84
  26   6   5    7.27    0.80
  26   6   8    4.02    0.82
  26   6  11   18.40    1.79
  26   6  14    5.91    0.93
  26   6  17    7.74    1.29
  26   6  20    1.81    1.88
  26   7 -20    4.52    1.39
  26   7 -17    1.27    1.08
  26   7 -14    0.13    2.57
  26   7 -11   10.26    3.66
  26   7  -8    8.44    3.30
  26   7  -5   30.49    2.74
  26   7  -2   11.97    1.22
  26   7   1   20.53    1.21
  26   7   4    1.79    0.48
  26   7   7   14.86    0.97
  26   7  10   17.11    1.20
  26   7  13   19.83    2.34
  26   7  16    1.64    1.02
  26   7  19    0.53    1.67
  26   8 -21    0.41    1.10
  26   8 -18    0.27    1.12
  26   8 -15    1.91    1.23
  26   8 -12    2.35    1.96
  26   8  -9    0.83    1.13
  26   8  -6    4.35    1.04
  26   8  -3   13.29    1.54
  26   8   0   12.51    1.52
  26   8   3    3.11    0.48
  26   8   6    3.71    0.62
  26   8   9    3.91    1.04
  26   8  12    8.47    1.30
  26   8  15    1.77    0.93
  26   8  18    1.28    1.02
  26   8  21    0.08    2.61
  26   9 -19    1.01    2.01
  26   9 -16    0.54    0.75
  26   9 -13    2.70    0.74
  26   9 -10    1.87    1.60
  26   9  -7    0.81    0.87
  26   9  -4    3.09    1.65
  26   9  -1   16.08    1.36
  26   9   2    1.44    0.48
  26   9   5   22.82    1.27
  26   9   8    1.10    0.76
  26   9  11   18.29    1.57
  26   9  14    7.63    2.07
  26   9  17    4.16    1.03
  26   9  20    0.50    1.68
  26  10 -17    0.27    1.63
  26  10 -14    3.39    1.02
  26  10 -11    0.50    0.78
  26  10  -8   18.84    2.51
  26  10  -5    4.88    1.58
  26  10  -2    1.40    0.91
  26  10   1   18.46    1.00
  26  10   4   20.28    1.25
  26  10   7    0.43    0.72
  26  10  10    8.84    1.22
  26  10  13   11.58    1.41
  26  10  16    4.40    1.32
  26  10  19    0.82    1.57
  26  11 -18    0.20    1.63
  26  11 -15    2.39    1.09
  26  11 -12    1.92    1.61
  26  11  -9    1.70    0.84
  26  11  -6    3.86    1.68
  26  11  -3    7.43    0.82
  26  11   0   13.87    0.83
  26  11   3    3.33    1.09
  26  11   6    5.14    1.42
  26  11   9    3.21    1.13
  26  11  12    5.93    0.90
  26  11  15    0.45    0.97
  26  11  18    0.67    1.57
  26  12 -16    2.82    2.06
  26  12 -13    4.40    1.28
  26  12 -10   19.17    2.32
  26  12  -7    1.45    0.77
  26  12  -4    6.70    1.12
  26  12  -1   14.38    1.28
  26  12   2   22.47    1.11
  26  12   5    3.00    0.55
  26  12   8    0.91    0.76
  26  12  11   11.91    1.54
  26  12  14    7.58    3.15
  26  12  17    1.20    1.66
  26  13 -17    1.30    1.72
  26  13 -14    0.76    0.92
  26  13 -11    5.89    1.34
  26  13  -8    1.69    0.75
  26  13  -5   14.57    1.44
  26  13  -2    2.09    0.92
  26  13   1   20.34    2.30
  26  13   4    3.23    0.64
  26  13   7    5.28    0.69
  26  13  10    4.53    0.83
  26  13  13   10.51    1.32
  26  13  16    0.78    1.52
  26  14 -15    0.01    0.86
  26  14 -12    0.09    0.84
  26  14  -9    6.53    1.24
  26  14  -6    0.02    0.74
  26  14  -3   10.68    1.03
  26  14   0    3.90    0.66
  26  14   3   12.28    1.29
  26  14   6    1.13    0.73
  26  14   9    6.32    2.11
  26  14  12    4.05    2.60
  26  14  15    3.36    0.99
  26  15 -16    1.04    1.54
  26  15 -13    1.82    1.01
  26  15 -10    1.17    0.68
  26  15  -7    2.98    0.73
  26  15  -4    7.02    3.30
  26  15  -1   19.72    1.59
  26  15   2    0.26    0.83
  26  15   5    9.48    1.03
  26  15   8    2.21    0.77
  26  15  11    1.19    0.70
  26  15  14    2.57    0.98
  26  16 -14    0.87    1.59
  26  16 -11    0.80    0.78
  26  16  -8    0.86    0.70
  26  16  -5    5.50    1.58
  26  16  -2    9.16    1.84
  26  16   1    7.87    1.21
  26  16   4    1.18    0.56
  26  16   7    1.55    0.73
  26  16  10    1.57    0.74
  26  16  13    1.55    0.93
  26  17 -12    2.19    1.36
  26  17  -9    0.39    0.69
  26  17  -6    1.01    0.72
  26  17  -3    7.71    1.00
  26  17   0   13.78    1.91
  26  17   3    0.16    0.54
  26  17   6    1.90    0.59
  26  17   9    1.04    0.89
  26  17  12    1.34    1.89
  26  18 -13    1.09    0.94
  26  18 -10    0.46    0.97
  26  18  -7    0.18    0.74
  26  18  -4    5.74    0.91
  26  18  -1    0.33    0.72
  26  18   2    9.02    1.91
  26  18   5    0.43    0.58
  26  18   8    0.82    0.71
  26  18  11    0.11    1.65
  26  19 -11    0.13    0.85
  26  19  -8    3.84    0.80
  26  19  -5    0.60    0.73
  26  19  -2    1.66    0.75
  26  19   1    4.96    0.89
  26  19   4    8.29    1.11
  26  19   7    0.06    0.58
  26  19  10    0.06    0.84
  26  20  -9    0.53    0.67
  26  20  -6    3.04    1.62
  26  20  -3    1.25    0.71
  26  20   0    1.36    0.76
  26  20   3    3.48    1.23
  26  20   6    1.18    0.58
  26  20   9    0.02    0.96
  26  21 -10    0.34    0.88
  26  21  -7    0.53    0.67
  26  21  -4    5.28    0.91
  26  21  -1    0.38    0.72
  26  21   2    0.05    0.75
  26  21   5    3.43    1.22
  26  21   8    0.70    0.94
  26  22  -8    1.24    0.90
  26  22  -5    0.93    0.78
  26  22  -2    0.59    0.74
  26  22   1    1.17    0.78
  26  22   4    0.17    0.75
  26  22   7    1.91    1.12
  26  23  -6    1.23    0.94
  26  23  -3    0.41    0.71
  26  23   0    0.36    1.01
  26  23   3    2.29    1.18
  26  23   6    0.19    0.87
  26  24  -4    1.76    1.47
  26  24  -1    1.04    0.68
  26  24   2    0.08    0.79
  27   0 -24    0.17    0.84
  27   0 -21    1.55    1.58
  27   0 -18    9.65    1.37
  27   0 -15   10.16    2.45
  27   0 -12    0.55    1.08
  27   0  -9   18.54    2.32
  27   0  -6   12.20    1.48
  27   0  -3    6.15    0.81
  27   0   0    8.78    0.49
  27   0   3    3.58    0.55
  27   0   6   21.59    0.51
  27   0   9   21.19    1.85
  27   0  12    0.86    0.79
  27   0  15   23.48    1.46
  27   0  18    0.82    0.83
  27   0  21    8.64    4.67
  27   0  24    0.22    2.33
  27   1 -25    0.38    0.82
  27   1 -22    1.70    1.44
  27   1 -19    8.28    1.96
  27   1 -16    4.05    1.21
  27   1 -13    1.95    1.28
  27   1 -10   47.49    5.35
  27   1  -7    0.23    0.85
  27   1  -4    1.64    0.82
  27   1  -1    4.18    0.77
  27   1   2    2.15    0.51
  27   1   5    7.23    1.13
  27   1   8   39.01    2.13
  27   1  11    2.69    0.82
  27   1  14    7.73    0.85
  27   1  17    0.25    0.79
  27   1  20    3.52    1.77
  27   1  23    0.41    2.45
  27   2 -23    1.24    0.92
  27   2 -20    0.58    1.55
  27   2 -17   14.55    2.72
  27   2 -14   15.24    2.47
  27   2 -11   12.09    2.31
  27   2  -8   45.32    3.76
  27   2  -5   53.15    2.40
  27   2  -2    2.57    0.54
  27   2   1   12.42    1.07
  27   2   4   20.48    1.27
  27   2   7   54.59    2.85
  27   2  10    4.96    1.19
  27   2  13   13.80    1.24
  27   2  16    0.10    0.93
  27   2  19    0.05    0.88
  27   2  22    1.01    2.65
  27   3 -24    0.02    0.83
  27   3 -21    2.85    2.23
  27   3 -18    0.94    1.26
  27   3 -15    7.32    3.54
  27   3 -12    0.78    3.42
  27   3  -9   48.03    2.49
  27   3  -6   40.20    2.67
  27   3  -3   21.41    1.68
  27   3   0    2.06    0.87
  27   3   3   18.86    1.39
  27   3   6   32.90    2.39
  27   3   9   22.76    2.21
  27   3  12   21.59    2.32
  27   3  15    0.18    0.81
  27   3  18    2.25    0.95
  27   3  21    0.85    2.49
  27   4 -22    0.45    0.93
  27   4 -19    1.04    1.71
  27   4 -16    1.61    1.40
  27   4 -13   13.06    2.40
  27   4 -10    2.33    2.08
  27   4  -7    1.73    4.11
  27   4  -4    5.60    1.40
  27   4  -1    3.92    1.33
  27   4   2    9.24    1.53
  27   4   5   11.52    1.21
  27   4   8   36.20    1.62
  27   4  11    7.81    0.86
  27   4  14    3.13    0.91
  27   4  17    0.66    0.83
  27   4  20    1.02    1.99
  27   5 -23    0.87    1.10
  27   5 -20    0.16    0.91
  27   5 -17    1.81    1.32
  27   5 -14    9.23    1.29
  27   5 -11   14.37    6.06
  27   5  -8   14.52    3.86
  27   5  -5   15.39    2.17
  27   5  -2    9.02    1.33
  27   5   1   24.49    1.72
  27   5   4   56.99    3.14
  27   5   7   13.24    1.81
  27   5  10   11.47    1.42
  27   5  13    6.08    1.01
  27   5  16    5.61    0.85
  27   5  19    0.44    0.91
  27   5  22    0.27    2.40
  27   6 -21    0.06    1.09
  27   6 -18    1.03    1.27
  27   6 -15    9.63    5.07
  27   6 -12    0.86    4.95
  27   6  -9    0.86    1.09
  27   6  -6    1.43    0.89
  27   6  -3    0.64    0.61
  27   6   0   29.99    1.88
  27   6   3    0.18    0.51
  27   6   6    8.71    0.78
  27   6   9    1.32    1.00
  27   6  12   30.28    2.16
  27   6  15   10.84    1.19
  27   6  18    1.51    0.88
  27   6  21    0.40    2.41
  27   7 -22    0.03    1.31
  27   7 -19    5.44    1.67
  27   7 -16    0.38    0.98
  27   7 -13    1.21    1.14
  27   7 -10   25.14    5.11
  27   7  -7    6.86    3.30
  27   7  -4    3.03    1.25
  27   7  -1   12.32    1.49
  27   7   2    1.71    0.87
  27   7   5    3.00    0.95
  27   7   8    6.83    0.75
  27   7  11    2.11    0.86
  27   7  14    2.01    1.30
  27   7  17    0.74    1.02
  27   7  20    0.00    1.53
  27   8 -17    2.13    1.60
  27   8 -14    5.55    1.93
  27   8 -11   10.63    1.86
  27   8  -8    4.13    2.73
  27   8  -5    2.08    0.89
  27   8  -2   30.92    2.11
  27   8   1    5.47    1.07
  27   8   4    1.27    0.60
  27   8   7    0.78    0.64
  27   8  10   19.10    1.54
  27   8  13    2.65    0.90
  27   8  16    3.02    1.18
  27   8  19    0.79    1.63
  27   9 -18    3.88    1.88
  27   9 -15    0.43    0.79
  27   9 -12   17.48    1.37
  27   9  -9    1.27    0.81
  27   9  -6   14.62    1.26
  27   9  -3   12.97    1.32
  27   9   0   30.92    1.62
  27   9   3   22.15    1.35
  27   9   6   14.21    1.25
  27   9   9    7.32    1.28
  27   9  12   10.20    1.65
  27   9  15    3.44    1.45
  27   9  18    0.38    1.54
  27  10 -16    1.49    0.96
  27  10 -13    0.18    0.78
  27  10 -10   10.70    1.62
  27  10  -7    8.97    2.05
  27  10  -4   12.46    1.41
  27  10  -1   26.29    2.98
  27  10   2    6.64    1.27
  27  10   5    0.24    0.55
  27  10   8    0.66    0.75
  27  10  11    9.73    2.17
  27  10  14    0.15    0.94
  27  10  17    1.11    0.91
  27  11 -17    0.14    1.61
  27  11 -14    0.39    0.88
  27  11 -11    0.01    0.70
  27  11  -8   11.94    1.70
  27  11  -5    5.93    0.88
  27  11  -2    0.45    0.58
  27  11   1    2.09    0.59
  27  11   4    3.84    0.52
  27  11   7    2.22    0.58
  27  11  10    0.57    1.19
  27  11  13    1.18    0.93
  27  11  16    2.10    0.94
  27  12 -15    0.41    0.89
  27  12 -12    1.74    0.66
  27  12  -9    3.81    1.06
  27  12  -6    1.71    0.78
  27  12  -3   16.89    1.64
  27  12   0    3.71    1.35
  27  12   3    7.73    1.14
  27  12   6    6.58    1.28
  27  12   9    2.49    0.87
  27  12  12    2.83    1.86
  27  12  15    4.50    1.31
  27  13 -16    1.13    1.68
  27  13 -13    1.53    1.31
  27  13 -10    3.60    0.74
  27  13  -7    0.12    0.78
  27  13  -4    1.62    1.07
  27  13  -1    0.04    0.60
  27  13   2    4.58    1.59
  27  13   5    1.47    0.82
  27  13   8    6.71    0.99
  27  13  11    0.28    0.83
  27  13  14    1.15    0.87
  27  14 -14    2.14    0.90
  27  14 -11    0.86    0.72
  27  14  -8    1.20    0.75
  27  14  -5   13.54    2.33
  27  14  -2    2.00    1.34
  27  14   1    0.64    0.81
  27  14   4    0.72    0.68
  27  14   7    0.50    0.62
  27  14  10    1.93    0.78
  27  14  13    2.53    1.15
  27  15 -15    0.75    1.71
  27  15 -12    0.13    0.90
  27  15  -9    4.92    1.40
  27  15  -6    1.94    0.79
  27  15  -3    3.34    0.76
  27  15   0    0.60    0.82
  27  15   3    1.48    0.66
  27  15   6    3.13    1.11
  27  15   9    0.31    0.69
  27  15  12    0.30    0.91
  27  16 -13    0.01    0.95
  27  16 -10    1.05    0.77
  27  16  -7    3.93    0.87
  27  16  -4    9.48    4.48
  27  16  -1    0.49    0.70
  27  16   2    3.31    1.26
  27  16   5    3.34    0.78
  27  16   8    0.22    0.71
  27  16  11    0.28    0.73
  27  17 -11    1.55    0.93
  27  17  -8    1.55    0.72
  27  17  -5    0.26    0.76
  27  17  -2    0.84    0.72
  27  17   1    3.49    0.79
  27  17   4    7.20    0.92
  27  17   7    1.09    2.34
  27  17  10    1.40    0.69
  27  18 -12    2.52    1.49
  27  18  -9    0.03    0.77
  27  18  -6    2.77    1.47
  27  18  -3    2.95    0.82
  27  18   0    0.99    0.95
  27  18   3    7.09    1.39
  27  18   6    1.27    1.07
  27  18   9    0.85    0.65
  27  19 -10    1.22    0.96
  27  19  -7    1.36    0.73
  27  19  -4    0.70    0.71
  27  19  -1    0.12    0.71
  27  19   2    0.49    0.79
  27  19   5    1.67    0.71
  27  19   8    0.20    0.97
  27  20  -8    4.17    0.78
  27  20  -5    1.78    0.77
  27  20  -2    2.76    0.77
  27  20   1    0.09    0.77
  27  20   4    0.19    0.73
  27  20   7    0.19    0.83
  27  21  -6    1.97    1.26
  27  21  -3    4.82    0.98
  27  21   0    0.16    0.73
  27  21   3    0.03    0.72
  27  21   6    3.59    1.11
  27  22  -7    0.53    1.47
  27  22  -4    3.55    0.71
  27  22  -1    0.34    0.74
  27  22   2    0.71    0.68
  27  22   5    2.29    0.95
  27  23  -2    1.97    0.76
  27  23   1    0.23    0.83
  28   0 -23    0.26    0.89
  28   0 -20    7.23    2.79
  28   0 -17    0.60    1.54
  28   0 -14    5.22    1.14
  28   0 -11    1.89    2.14
  28   0  -8   54.11    3.79
  28   0  -5    0.07    0.70
  28   0  -2    2.91    1.05
  28   0   1   62.97    2.92
  28   0   4    2.75    0.75
  28   0   7   31.83    1.73
  28   0  10    0.99    0.79
  28   0  13    1.46    0.75
  28   0  16    5.75    0.78
  28   0  19    6.78    1.90
  28   0  22    0.25    2.52
  28   1 -24    1.39    1.42
  28   1 -21    1.40    0.97
  28   1 -18    7.55    1.48
  28   1 -15    5.18    1.79
  28   1 -12    1.84    1.66
  28   1  -9    1.31    1.56
  28   1  -6   21.08    2.50
  28   1  -3    3.59    0.68
  28   1   0   11.08    1.06
  28   1   3    7.86    2.29
  28   1   6   68.01    2.97
  28   1   9   15.61    3.53
  28   1  12    8.64    0.78
  28   1  15    2.50    2.09
  28   1  18    9.29    1.30
  28   1  21    0.44    2.61
  28   2 -22    2.38    0.94
  28   2 -19    0.35    1.15
  28   2 -16    5.13    1.84
  28   2 -13   17.01    2.07
  28   2 -10    9.02    0.98
  28   2  -7    9.27    1.80
  28   2  -4    7.16    1.56
  28   2  -1    5.30    2.56
  28   2   2    4.85    0.54
  28   2   5   13.21    1.92
  28   2   8   20.00    1.21
  28   2  11    1.97    0.72
  28   2  14    0.17    0.83
  28   2  17    3.14    1.18
  28   2  20    0.62    2.53
  28   3 -23    0.26    1.05
  28   3 -20    3.51    1.07
  28   3 -17    6.46    1.98
  28   3 -14   21.30    2.84
  28   3 -11   43.69    4.44
  28   3  -8   15.05    1.09
  28   3  -5    2.02    1.24
  28   3  -2   47.57    2.96
  28   3   1   92.55    2.68
  28   3   4   12.81    1.17
  28   3   7    6.65    1.04
  28   3  10    4.78    1.03
  28   3  13    8.79    1.83
  28   3  16   10.63    1.20
  28   3  19    0.87    0.89
  28   3  22    0.04    2.38
  28   4 -21    2.73    0.96
  28   4 -18    1.97    1.34
  28   4 -15    2.61    1.51
  28   4 -12    2.90    1.63
  28   4  -9    7.11    5.84
  28   4  -6    7.98    1.84
  28   4  -3   19.66    1.75
  28   4   0    5.69    0.99
  28   4   3    5.53    1.38
  28   4   6   12.03    1.09
  28   4   9   21.80    1.27
  28   4  12   10.33    1.73
  28   4  15    1.32    0.85
  28   4  18    3.70    0.91
  28   4  21    0.10    2.73
  28   5 -22    1.16    1.07
  28   5 -19    4.47    1.74
  28   5 -16    2.12    2.66
  28   5 -13   13.77    2.52
  28   5 -10    6.18    1.38
  28   5  -7    6.10    2.25
  28   5  -4    7.68    1.51
  28   5  -1   15.52    1.27
  28   5   2   10.62    1.51
  28   5   5   34.85    1.72
  28   5   8   20.40    1.54
  28   5  11   14.90    1.94
  28   5  14    7.94    1.90
  28   5  17    3.02    1.13
  28   5  20    0.16    2.49
  28   6 -20    1.26    1.14
  28   6 -17    3.14    0.98
  28   6 -14   15.03    4.56
  28   6 -11    7.98    2.78
  28   6  -8    2.87    1.12
  28   6  -5   34.35    2.15
  28   6  -2   10.15    1.78
  28   6   1    2.02    0.88
  28   6   4    2.08    1.16
  28   6   7    0.48    0.80
  28   6  10   14.40    1.79
  28   6  13   12.56    5.22
  28   6  16    2.44    1.33
  28   6  19    3.27    1.66
  28   7 -18    3.88    1.80
  28   7 -15    1.14    0.81
  28   7 -12    2.30    0.99
  28   7  -9    3.95    3.49
  28   7  -6    0.25    0.83
  28   7  -3   40.48    3.75
  28   7   0    4.29    0.64
  28   7   3    3.98    0.88
  28   7   6    6.40    1.17
  28   7   9   13.84    1.44
  28   7  12    5.74    4.36
  28   7  15    1.18    0.94
  28   7  18    3.83    1.24
  28   8 -16    1.02    0.97
  28   8 -13    1.28    0.80
  28   8 -10    9.06    1.22
  28   8  -7    3.84    1.13
  28   8  -4    4.96    1.30
  28   8  -1    1.48    0.59
  28   8   2    4.44    1.53
  28   8   5    4.89    0.69
  28   8   8    7.73    1.21
  28   8  11    0.97    0.90
  28   8  14    0.62    2.39
  28   8  17    0.39    0.91
  28   9 -17    0.06    1.68
  28   9 -14    3.73    0.86
  28   9 -11    4.19    0.81
  28   9  -8   13.89    1.94
  28   9  -5   15.09    1.30
  28   9  -2    0.43    0.59
  28   9   1    2.79    1.13
  28   9   4    7.97    0.57
  28   9   7    3.60    0.70
  28   9  10    0.26    1.47
  28   9  13    7.80    2.65
  28   9  16    2.22    1.43
  28  10 -15    4.07    1.00
  28  10 -12    0.22    0.67
  28  10  -9    1.39    0.93
  28  10  -6   14.97    1.10
  28  10  -3    8.00    1.27
  28  10   0   11.16    1.83
  28  10   3   15.75    1.20
  28  10   6    8.37    1.13
  28  10   9    3.66    1.78
  28  10  12    4.22    1.06
  28  10  15    1.00    0.92
  28  11 -16    0.60    1.70
  28  11 -13    1.64    3.29
  28  11 -10    0.47    0.70
  28  11  -7    9.78    1.16
  28  11  -4    3.13    1.14
  28  11  -1    4.00    0.90
  28  11   2    0.05    0.62
  28  11   5    1.42    0.57
  28  11   8    5.71    1.58
  28  11  11    0.21    1.04
  28  11  14    0.61    0.94
  28  12 -14    1.27    0.97
  28  12 -11    2.91    0.74
  28  12  -8    2.67    0.81
  28  12  -5    3.14    0.88
  28  12  -2    0.53    0.78
  28  12   1    0.36    0.60
  28  12   4    1.40    0.60
  28  12   7    1.47    0.57
  28  12  10    0.45    0.76
  28  12  13    1.08    0.98
  28  13 -15    0.87    0.81
  28  13 -12    0.11    0.82
  28  13  -9    8.35    1.36
  28  13  -6    2.91    0.90
  28  13  -3    2.00    0.76
  28  13   0    0.61    0.60
  28  13   3    5.77    0.87
  28  13   6    2.63    1.17
  28  13   9    3.12    0.79
  28  13  12    1.72    1.01
  28  14 -13    0.55    0.88
  28  14 -10    2.74    0.84
  28  14  -7    5.25    0.89
  28  14  -4    4.21    0.91
  28  14  -1    3.73    0.73
  28  14   2    0.09    0.67
  28  14   5    2.64    0.71
  28  14   8    4.53    0.86
  28  14  11    1.87    0.80
  28  14  14    0.90    1.04
  28  15 -14    0.16    0.97
  28  15 -11    2.54    0.78
  28  15  -8    1.12    0.86
  28  15  -5    5.73    1.64
  28  15  -2    1.67    0.75
  28  15   1    6.18    0.78
  28  15   4    0.59    0.63
  28  15   7    1.46    0.73
  28  15  10    0.29    0.72
  28  15  13    0.50    1.01
  28  16 -12    1.94    1.62
  28  16  -9    2.42    0.84
  28  16  -6    0.10    0.78
  28  16  -3   10.91    2.40
  28  16   0    2.03    0.74
  28  16   3    8.85    0.78
  28  16   6    0.94    1.18
  28  16   9    1.31    0.71
  28  17 -10    5.64    1.94
  28  17  -7    2.27    0.79
  28  17  -4    0.81    0.72
  28  17  -1    2.59    1.48
  28  17   2    8.31    1.29
  28  17   5    0.34    1.28
  28  17   8    1.98    0.73
  28  18 -11    1.87    1.65
  28  18  -8    5.50    1.20
  28  18  -5    6.47    1.24
  28  18  -2    1.17    0.71
  28  18   1    0.66    0.68
  28  18   4    3.68    1.08
  28  18   7    0.30    0.71
  28  18  10    0.03    0.92
  28  19  -9    1.02    0.98
  28  19  -6    5.08    1.01
  28  19  -3    1.07    0.69
  28  19   0    2.21    0.72
  28  19   3    0.55    0.75
  28  19   6    0.95    1.05
  28  19   9    0.16    0.88
  28  20  -7    1.29    0.77
  28  20  -4    0.65    0.72
  28  20  -1    0.45    0.85
  28  20   2    0.77    0.77
  28  20   5    0.16    0.67
  28  20   8    1.08    1.13
  28  21  -5    1.80    0.82
  28  21  -2    2.40    1.94
  28  21   1    0.00    0.77
  28  21   4    1.31    0.73
  28  22  -3    0.26    1.06
  28  22   0    2.47    0.86
  28  22   3    0.70    1.11
  29   0 -22    1.19    0.90
  29   0 -19   13.12    2.34
  29   0 -16    0.51    1.64
  29   0 -13    3.93    1.79
  29   0 -10    3.26    0.98
  29   0  -7   65.87    2.66
  29   0  -4    3.21    0.62
  29   0  -1    1.71    1.15
  29   0   2   69.46    2.76
  29   0   5   76.40    2.60
  29   0   8    7.51    1.26
  29   0  11    3.52    0.83
  29   0  14   13.32    0.90
  29   0  17    9.42    1.36
  29   0  20    3.80    2.51
  29   1 -23    0.68    0.86
  29   1 -20    2.15    1.59
  29   1 -17    0.18    1.36
  29   1 -14    1.26    1.47
  29   1 -11    3.49    1.71
  29   1  -8    3.48    1.63
  29   1  -5   16.15    1.38
  29   1  -2   11.18    1.77
  29   1   1   10.00    2.01
  29   1   4   35.44    3.04
  29   1   7   18.33    2.92
  29   1  10    1.04    0.76
  29   1  13   15.85    1.28
  29   1  16    0.26    0.87
  29   1  19    0.98    0.95
  29   1  22    0.05    2.32
  29   2 -21    4.09    0.92
  29   2 -18    2.82    1.42
  29   2 -15    2.12    0.99
  29   2 -12    6.39    2.46
  29   2  -9   25.43    2.97
  29   2  -6    2.29    0.77
  29   2  -3   25.08    1.83
  29   2   0   27.37    1.61
  29   2   3   71.04    2.48
  29   2   6    0.84    1.17
  29   2   9   36.70    2.37
  29   2  12    4.56    1.09
  29   2  15    6.69    1.31
  29   2  18    0.77    0.95
  29   2  21    0.54    2.29
  29   3 -22    0.98    1.23
  29   3 -19    1.06    1.79
  29   3 -16   12.41    2.62
  29   3 -13    6.98    1.33
  29   3 -10   17.64    3.07
  29   3  -7   36.47    3.78
  29   3  -4   53.62    3.61
  29   3  -1   32.18    1.61
  29   3   2   10.99    0.98
  29   3   5   17.83    1.25
  29   3   8    4.84    1.08
  29   3  11   19.95    1.78
  29   3  14    5.06    1.95
  29   3  17    3.37    1.52
  29   3  20    1.06    2.68
  29   4 -20    2.98    1.77
  29   4 -17    0.12    0.90
  29   4 -14    1.62    1.41
  29   4 -11   17.27    2.03
  29   4  -8   15.34    3.50
  29   4  -5   24.29    2.10
  29   4  -2   10.92    1.54
  29   4   1    2.26    0.99
  29   4   4    3.19    1.01
  29   4   7   41.73    2.49
  29   4  10    1.24    0.74
  29   4  13    1.55    0.85
  29   4  16    4.33    0.95
  29   4  19    0.67    1.01
  29   5 -21    0.79    1.08
  29   5 -18    6.88    1.23
  29   5 -15    0.42    2.60
  29   5 -12   17.13    2.47
  29   5  -9    0.87    1.08
  29   5  -6   21.72    2.70
  29   5  -3    1.89    0.97
  29   5   0   20.28    2.53
  29   5   3   27.63    5.41
  29   5   6   22.09    1.51
  29   5   9   15.68    1.34
  29   5  12    8.79    1.48
  29   5  15    4.49    1.69
  29   5  18    0.75    1.04
  29   6 -19    1.33    1.40
  29   6 -16    8.56    1.13
  29   6 -13    5.82    1.29
  29   6 -10    2.80    2.49
  29   6  -7   13.51    1.66
  29   6  -4   15.77    1.24
  29   6  -1    3.83    0.78
  29   6   2    5.83    0.92
  29   6   5    4.37    1.13
  29   6   8    4.97    0.87
  29   6  11    9.24    2.57
  29   6  14    2.10    0.89
  29   6  17    1.40    0.90
  29   6  20    0.56    3.35
  29   7 -17    1.94    1.19
  29   7 -14    1.74    1.25
  29   7 -11    1.93    0.78
  29   7  -8    0.17    0.92
  29   7  -5    2.06    1.10
  29   7  -2    8.91    2.69
  29   7   1    0.37    0.64
  29   7   4   15.13    1.19
  29   7   7   13.83    1.42
  29   7  10   39.48    3.39
  29   7  13    0.89    1.21
  29   7  16    2.25    0.91
  29   7  19    0.90    2.44
  29   8 -18    3.96    2.73
  29   8 -15    2.28    1.05
  29   8 -12    0.76    0.73
  29   8  -9   11.61    2.08
  29   8  -6    9.50    1.23
  29   8  -3   14.90    1.29
  29   8   0    3.98    0.56
  29   8   3   16.54    2.69
  29   8   6    1.57    0.74
  29   8   9   11.12    1.80
  29   8  12    3.95    1.35
  29   8  15    1.73    0.95
  29   8  18    2.64    2.64
  29   9 -16    2.04    1.24
  29   9 -13    1.16    0.70
  29   9 -10    0.36    0.74
  29   9  -7    5.45    0.74
  29   9  -4   15.89    1.28
  29   9  -1    0.26    0.66
  29   9   2   11.67    0.62
  29   9   5    3.80    1.87
  29   9   8   10.72    0.78
  29   9  11    1.24    1.64
  29   9  14    5.64    1.32
  29   9  17    2.96    1.08
  29  10 -14    3.93    1.54
  29  10 -11    0.96    0.69
  29  10  -8    1.06    0.74
  29  10  -5   13.30    1.44
  29  10  -2    0.61    0.59
  29  10   1   15.69    1.82
  29  10   4    2.75    0.64
  29  10   7    2.46    1.21
  29  10  10    1.37    0.70
  29  10  13    1.96    1.07
  29  10  16    2.11    1.38
  29  11 -15    0.71    0.89
  29  11 -12    1.57    1.06
  29  11  -9    1.66    1.30
  29  11  -6    3.20    0.83
  29  11  -3    0.19    0.74
  29  11   0    1.22    0.63
  29  11   3    0.08    0.62
  29  11   6    6.06    0.66
  29  11   9    0.97    0.69
  29  11  12    0.04    0.91
  29  11  15    0.18    0.81
  29  12 -13    0.48    0.88
  29  12 -10    2.52    0.76
  29  12  -7    3.31    0.80
  29  12  -4    2.08    0.85
  29  12  -1    0.94    0.61
  29  12   2    3.42    0.73
  29  12   5    1.11    0.66
  29  12   8    2.88    0.75
  29  12  11    2.05    0.98
  29  12  14    1.41    0.88
  29  13 -14    0.98    0.87
  29  13 -11    3.00    0.78
  29  13  -8    8.58    1.40
  29  13  -5    0.80    0.67
  29  13  -2    0.39    0.72
  29  13   1    0.33    0.66
  29  13   4   17.76    1.34
  29  13   7    0.15    0.79
  29  13  10    1.05    0.70
  29  13  13    0.52    1.98
  29  14 -12    0.28    0.86
  29  14  -9    5.22    1.28
  29  14  -6    5.45    1.53
  29  14  -3    1.16    0.74
  29  14   0    1.15    0.73
  29  14   3    0.86    0.63
  29  14   6    0.80    0.65
  29  14   9    4.06    1.62
  29  14  12    0.18    0.99
  29  15 -13    1.01    0.91
  29  15 -10    6.55    1.25
  29  15  -7    3.61    0.82
  29  15  -4    4.46    0.79
  29  15  -1    1.01    0.89
  29  15   2    3.42    1.28
  29  15   5    0.51    0.68
  29  15   8    0.28    0.74
  29  15  11    0.51    0.99
  29  16 -11    4.34    1.23
  29  16  -8    0.56    0.73
  29  16  -5    9.78    1.59
  29  16  -2    0.40    0.71
  29  16   1    6.26    1.42
  29  16   4    3.71    0.86
  29  16   7    2.64    1.00
  29  16  10    0.44    0.68
  29  17  -9    8.70    1.10
  29  17  -6    0.76    0.71
  29  17  -3    0.54    0.70
  29  17   0    0.98    0.76
  29  17   3    2.09    0.66
  29  17   6    0.42    0.56
  29  17   9    2.93    2.37
  29  18 -10    0.02    0.91
  29  18  -7    6.01    4.50
  29  18  -4    2.82    0.69
  29  18  -1    0.80    0.76
  29  18   2    1.84    1.50
  29  18   5    0.37    0.56
  29  18   8    0.24    0.91
  29  19  -8    1.76    1.02
  29  19  -5    8.77    1.35
  29  19  -2    0.69    0.74
  29  19   1    1.29    1.06
  29  19   4    0.59    0.72
  29  19   7    1.05    0.94
  29  20  -6    1.96    1.00
  29  20  -3    0.08    0.67
  29  20   0    1.27    0.85
  29  20   3    0.11    1.24
  29  21  -1    0.95    0.84
  29  21   2    1.74    1.07
  30   0 -21    9.04    1.20
  30   0 -18    0.94    1.35
  30   0 -15    2.97    0.95
  30   0 -12    8.94    1.08
  30   0  -9    0.30    1.10
  30   0  -6    9.59    1.86
  30   0  -3    7.13    1.18
  30   0   0    4.39    1.23
  30   0   3   34.55    1.50
  30   0   6    2.40    1.53
  30   0   9   25.50    2.07
  30   0  12   11.89    1.46
  30   0  15    2.86    1.46
  30   0  18    0.11    0.96
  30   0  21    0.05    2.56
  30   1 -22    0.07    1.14
  30   1 -19    0.87    1.75
  30   1 -16    2.19    1.27
  30   1 -13    2.60    1.44
  30   1 -10    2.22    3.93
  30   1  -7   10.15    2.09
  30   1  -4    3.52    0.65
  30   1  -1   15.38    2.92
  30   1   2   96.82    5.44
  30   1   5   25.77    1.66
  30   1   8    7.55    1.13
  30   1  11   10.12    1.17
  30   1  14    6.39    2.53
  30   1  17    0.23    1.16
  30   1  20    1.16    2.33
  30   2 -20    1.51    1.65
  30   2 -17    1.01    1.28
  30   2 -14    3.49    1.67
  30   2 -11   13.61    3.29
  30   2  -8   15.17    2.98
  30   2  -5    3.18    1.74
  30   2  -2   44.53    2.38
  30   2   1    7.32    2.66
  30   2   4   19.36    1.63
  30   2   7   25.68    1.44
  30   2  10    4.65    1.71
  30   2  13   10.77    1.66
  30   2  16    0.01    1.00
  30   2  19    2.04    1.04
  30   3 -21    1.45    1.20
  30   3 -15    0.52    2.66
  30   3 -12    1.09    1.10
  30   3  -9    1.78    1.83
  30   3  -6   17.22    1.58
  30   3  -3   22.13    2.77
  30   3   0   27.74    2.18
  30   3   3    3.51    1.52
  30   3   6   17.42    1.43
  30   3   9   17.64    1.53
  30   3  12    0.32    1.02
  30   3  15    0.17    1.05
  30   3  18    0.68    0.93
  30   4 -19    1.82    1.03
  30   4 -16    0.24    1.10
  30   4 -13    1.04    1.28
  30   4 -10    7.14    1.75
  30   4  -7   15.22    1.52
  30   4  -4   12.14    3.66
  30   4  -1   41.19    2.16
  30   4   2   32.97    1.80
  30   4   5   39.60    1.82
  30   4   8    9.26    1.91
  30   4  11   37.12    2.70
  30   4  14    0.51    1.02
  30   4  17    0.49    1.08
  30   4  20    1.39    2.57
  30   5 -20    0.29    1.03
  30   5 -17    1.73    1.04
  30   5 -14    1.43    5.43
  30   5 -11    5.47    1.07
  30   5  -8    1.23    0.98
  30   5  -5    2.82    0.87
  30   5  -2    2.34    1.34
  30   5   1   23.03    1.58
  30   5   4   32.30    1.81
  30   5   7   14.60    1.95
  30   5  10   10.00    1.50
  30   5  13    4.26    1.01
  30   5  16    0.21    1.00
  30   5  19    0.05    2.61
  30   6 -15    0.99    1.18
  30   6 -12    0.07    0.89
  30   6  -9    0.71    0.98
  30   6  -6   10.33    1.87
  30   6  -3    9.52    0.92
  30   6   0    7.23    1.63
  30   6   3   11.10    1.25
  30   6   6    9.83    1.61
  30   6   9    0.40    0.74
  30   6  12    7.01    1.03
  30   6  15    0.26    1.06
  30   6  18    1.59    1.01
  30   7 -16    0.87    1.90
  30   7 -13    2.43    0.75
  30   7 -10    4.97    0.73
  30   7  -7    0.13    0.69
  30   7  -4    2.02    0.75
  30   7  -1    3.09    0.87
  30   7   2   28.46    2.29
  30   7   5    2.42    0.79
  30   7   8    6.31    1.24
  30   7  11    0.46    1.65
  30   7  14    3.39    1.13
  30   7  17    0.62    0.94
  30   8 -14    3.55    0.97
  30   8 -11    0.57    0.71
  30   8  -8    3.41    1.32
  30   8  -5   26.41    2.52
  30   8  -2    5.68    0.94
  30   8   1   36.66    1.93
  30   8   4    1.67    0.62
  30   8   7   11.18    1.11
  30   8  10    2.09    0.78
  30   8  13    4.81    2.27
  30   8  16    0.12    0.93
  30   9 -15    1.47    0.93
  30   9 -12    1.02    0.70
  30   9  -9    1.56    0.70
  30   9  -6    3.50    1.27
  30   9  -3    2.31    0.63
  30   9   0    6.71    0.96
  30   9   3    2.76    0.96
  30   9   6    2.00    0.82
  30   9   9    0.73    0.83
  30   9  12    4.49    0.92
  30   9  15    1.28    1.12
  30  10 -16    2.24    1.14
  30  10 -13    1.26    1.00
  30  10 -10    1.11    0.70
  30  10  -7    6.32    1.41
  30  10  -4    0.00    0.69
  30  10  -1    5.23    0.63
  30  10   2    4.32    0.68
  30  10   5    4.07    1.70
  30  10   8    0.67    1.14
  30  10  11    1.99    1.28
  30  10  14    2.38    1.05
  30  11 -14    0.10    0.86
  30  11 -11    1.42    0.78
  30  11  -8    0.05    0.74
  30  11  -5    1.24    0.81
  30  11  -2    0.01    0.72
  30  11   1    0.23    0.56
  30  11   4    0.27    0.63
  30  11   7    1.00    1.20
  30  11  10    0.46    1.81
  30  11  13    0.25    1.02
  30  12 -15    2.59    1.46
  30  12 -12    1.64    0.75
  30  12  -9    0.71    0.72
  30  12  -6    0.08    0.73
  30  12  -3    1.61    0.68
  30  12   0    0.29    0.60
  30  12   3    0.79    0.65
  30  12   6    0.91    1.17
  30  12   9    0.09    0.80
  30  12  12    0.55    1.08
  30  13 -13    0.29    0.94
  30  13 -10    5.15    0.97
  30  13  -7    0.70    0.80
  30  13  -4    1.66    0.76
  30  13  -1    0.54    0.70
  30  13   2    5.87    0.99
  30  13   5    4.88    0.86
  30  13   8    0.97    0.81
  30  13  11    0.28    1.04
  30  14 -11    1.09    0.70
  30  14  -8    5.00    0.77
  30  14  -5    0.01    0.72
  30  14  -2    0.44    0.75
  30  14   1    2.14    0.75
  30  14   4    0.10    0.66
  30  14   7    2.33    0.80
  30  14  10    0.86    0.92
  30  15 -12    1.51    1.05
  30  15  -9    0.17    0.70
  30  15  -6    2.34    0.76
  30  15  -3    2.79    1.07
  30  15   0    2.51    1.28
  30  15   3    6.18    1.09
  30  15   6    0.97    1.03
  30  15   9    0.71    0.74
  30  16 -10    2.80    1.07
  30  16  -7    1.76    0.70
  30  16  -4    2.04    0.72
  30  16  -1    8.01    1.26
  30  16   2    3.18    0.82
  30  16   5    1.43    0.60
  30  16   8    2.31    0.83
  30  17  -8    1.93    0.88
  30  17  -5    0.47    0.66
  30  17  -2    2.86    0.83
  30  17   1    3.82    0.77
  30  17   4    0.01    0.56
  30  17   7    0.49    0.68
  30  18  -6    3.24    1.09
  30  18  -3    2.75    0.97
  30  18   0    0.17    0.72
  30  18   3    1.94    0.73
  30  18   6    1.37    0.98
  30  19  -4    0.42    0.74
  30  19  -1    3.62    0.78
  30  19   2    0.25    1.01
  30  19   5    8.57    1.62
  30  20   1    0.29    1.19
  31   0 -23    0.56    1.45
  31   0 -20    3.39    1.56
  31   0 -17    0.01    1.20
  31   0 -14    0.89    0.89
  31   0 -11    1.16    1.33
  31   0  -8   10.80    0.89
  31   0  -5    1.73    0.66
  31   0  -2   69.81    1.77
  31   0   1    7.86    1.52
  31   0   4    6.34    0.72
  31   0   7  125.46    3.97
  31   0  10   10.67    1.25
  31   0  13    4.14    1.57
  31   0  16   14.50    1.74
  31   0  19    1.99    0.90
  31   1 -21    0.71    1.22
  31   1 -15    9.08    3.95
  31   1 -12    7.62    2.77
  31   1  -9   37.48    6.33
  31   1  -6    1.00    0.97
  31   1  -3   56.44    2.51
  31   1   0    6.19    0.67
  31   1   3   52.41    4.26
  31   1   6   28.50    1.82
  31   1   9   16.18    1.59
  31   1  12    7.90    2.29
  31   1  15    1.25    0.99
  31   1  18    1.48    1.53
  31   2 -19    0.35    1.19
  31   2 -16    1.07    2.10
  31   2 -13    2.07    1.20
  31   2 -10    9.29    2.77
  31   2  -7    0.48    1.44
  31   2  -4    7.14    1.36
  31   2  -1   10.55    1.03
  31   2   2   15.11    3.26
  31   2   5   11.05    0.68
  31   2   8    3.23    1.20
  31   2  11    0.55    1.37
  31   2  14    1.44    1.04
  31   2  17    0.07    1.07
  31   2  20    0.25    2.43
  31   3 -20    1.07    1.02
  31   3 -17    2.66    1.24
  31   3 -14    1.32    1.34
  31   3 -11    0.97    1.10
  31   3  -8    1.68    1.21
  31   3  -5   23.00    1.40
  31   3  -2    1.06    0.65
  31   3   1   20.09    1.57
  31   3   4    1.63    1.68
  31   3   7   10.81    1.41
  31   3  10    5.96    0.98
  31   3  13    0.54    1.04
  31   3  16    0.16    1.03
  31   3  19    3.71    1.07
  31   4 -18    1.54    1.19
  31   4 -12    0.51    1.19
  31   4  -9    5.22    1.08
  31   4  -6    8.57    1.93
  31   4  -3    6.80    2.43
  31   4   0    2.36    0.92
  31   4   3    3.11    1.34
  31   4   6    4.06    0.76
  31   4   9   12.22    0.85
  31   4  12    0.34    1.22
  31   4  15    0.86    1.04
  31   4  18    0.75    0.93
  31   5 -16    0.03    1.09
  31   5 -13    0.68    0.82
  31   5 -10    0.28    0.90
  31   5  -7    0.69    0.82
  31   5  -4    3.62    0.76
  31   5  -1    7.25    1.52
  31   5   2   18.57    1.99
  31   5   5    9.89    3.87
  31   5   8    0.88    0.92
  31   5  11    8.08    4.63
  31   5  14    0.28    1.00
  31   5  17    1.09    1.34
  31   6 -17    1.00    1.00
  31   6 -14    0.15    1.12
  31   6 -11    0.39    0.69
  31   6  -8    1.63    1.04
  31   6  -5    1.93    1.01
  31   6  -2    1.11    0.69
  31   6   1    0.05    0.71
  31   6   4    0.15    0.58
  31   6   7   17.00    2.51
  31   6  10   13.62    1.39
  31   6  13    0.62    1.17
  31   6  16    1.17    1.07
  31   7 -15    0.48    0.94
  31   7 -12    0.21    0.72
  31   7  -9    0.43    0.71
  31   7  -6    2.99    0.72
  31   7  -3    5.29    0.61
  31   7   0    5.48    0.61
  31   7   3    0.68    0.80
  31   7   6    3.83    1.00
  31   7   9    1.25    0.79
  31   7  12    2.73    1.06
  31   7  15    0.94    1.25
  31   8 -16    2.42    1.06
  31   8 -13    0.57    0.75
  31   8 -10    1.51    0.78
  31   8  -7    0.27    0.70
  31   8  -4    4.59    1.15
  31   8  -1    3.04    0.63
  31   8   2    7.55    0.69
  31   8   5    1.23    0.61
  31   8   8    0.05    0.75
  31   8  11    1.06    1.08
  31   8  14    2.11    0.99
  31   9 -14    0.31    0.86
  31   9 -11    0.03    0.68
  31   9  -8    2.08    0.75
  31   9  -5    2.13    2.27
  31   9  -2    5.19    0.93
  31   9   1    4.18    0.67
  31   9   4    9.89    1.11
  31   9   7    0.98    0.73
  31   9  10    0.42    1.07
  31   9  13    2.38    1.05
  31   9  16    1.66    1.00
  31  10 -15    1.29    0.95
  31  10 -12    3.42    0.71
  31  10  -9    2.46    0.75
  31  10  -6    0.09    0.70
  31  10  -3    4.06    0.87
  31  10   0    0.97    0.60
  31  10   3    2.37    0.68
  31  10   6    4.17    0.67
  31  10   9    1.16    0.91
  31  10  12    0.18    1.35
  31  10  15    1.14    1.10
  31  11 -13    0.60    1.83
  31  11 -10    1.49    0.77
  31  11  -7    0.04    0.78
  31  11  -4    1.19    0.72
  31  11  -1    2.05    1.97
  31  11   2    7.15    0.87
  31  11   5    0.58    0.62
  31  11   8    7.00    1.45
  31  11  11    1.20    3.20
  31  11  14    0.51    1.02
  31  12 -14    0.11    0.95
  31  12 -11    1.51    0.70
  31  12  -8    3.68    1.89
  31  12  -5    0.54    0.72
  31  12  -2    4.08    1.05
  31  12   1    4.15    1.10
  31  12   4    3.70    1.06
  31  12   7    0.12    0.76
  31  12  10    0.41    1.06
  31  12  13    0.63    0.96
  31  13 -12    1.08    1.02
  31  13  -9    2.34    0.83
  31  13  -6    1.93    0.73
  31  13  -3    5.05    0.80
  31  13   0    6.68    1.66
  31  13   3    2.67    0.60
  31  13   6    9.99    1.54
  31  13   9    0.54    0.77
  31  13  12    1.54    1.74
  31  14 -10    4.30    0.90
  31  14  -7    1.75    1.86
  31  14  -4    1.01    0.74
  31  14  -1    4.69    1.00
  31  14   2    6.91    0.65
  31  14   5    0.89    0.66
  31  14   8    0.43    0.71
  31  14  11    1.14    0.93
  31  15 -11    0.38    1.06
  31  15  -8    2.74    0.78
  31  15  -5    0.43    0.70
  31  15  -2    5.26    1.22
  31  15   1    0.24    0.74
  31  15   4    3.81    1.01
  31  15   7    0.82    0.71
  31  15  10    0.87    0.94
  31  16  -9    1.19    0.98
  31  16  -6    5.37    2.69
  31  16  -3    3.50    1.09
  31  16   0    2.25    0.68
  31  16   3    1.93    0.67
  31  16   6    3.63    0.74
  31  17  -7    2.75    1.01
  31  17  -4    1.09    0.73
  31  17  -1    1.69    0.81
  31  17   2    0.47    0.73
  31  17   5    2.75    0.71
  31  18  -5    0.25    1.04
  31  18  -2    1.05    0.69
  31  18   1    0.08    0.66
  31  18   4    0.32    1.04
  32   0 -22    1.54    1.32
  32   0 -16    0.43    2.44
  32   0 -13   10.68    1.84
  32   0 -10    0.05    1.12
  32   0  -7    9.63    0.73
  32   0  -4   34.74    2.27
  32   0  -1    7.76    1.18
  32   0   2   48.02    2.34
  32   0   5   41.18    2.19
  32   0   8   60.46    3.57
  32   0  11    6.18    1.12
  32   0  14    3.11    1.23
  32   0  17    1.10    1.04
  32   0  20    5.50    2.62
  32   1 -20    1.09    1.55
  32   1 -14    3.96    1.29
  32   1 -11    2.32    1.86
  32   1  -8    5.09    1.32
  32   1  -5    4.13    1.73
  32   1  -2    4.29    1.23
  32   1   1    2.21    0.72
  32   1   4    0.73    0.64
  32   1   7   14.67    1.86
  32   1  10    1.58    1.57
  32   1  13    1.25    1.15
  32   1  16    0.28    1.07
  32   1  19    0.64    1.69
  32   2 -18    1.01    1.42
  32   2 -15    1.37    1.21
  32   2 -12    6.29    1.18
  32   2  -9    7.82    2.93
  32   2  -6    3.46    0.70
  32   2  -3   22.73    1.82
  32   2   0   43.19    2.93
  32   2   3    4.23    1.52
  32   2   6    7.43    1.16
  32   2   9    2.42    1.09
  32   2  12    2.39    1.08
  32   2  15    1.22    1.04
  32   2  18    1.23    1.05
  32   3 -19    3.75    1.57
  32   3 -16    0.42    1.17
  32   3 -13    6.03    1.66
  32   3 -10    3.54    1.17
  32   3  -7    3.89    1.75
  32   3  -4    4.23    0.80
  32   3  -1    4.87    0.79
  32   3   2   10.09    2.38
  32   3   5   27.71    3.05
  32   3   8    1.87    0.75
  32   3  11    7.51    1.06
  32   3  14    0.28    1.02
  32   3  17    2.15    0.96
  32   4 -17    2.17    1.02
  32   4 -14    0.18    0.82
  32   4 -11    0.44    1.08
  32   4  -8    6.29    1.04
  32   4  -5    7.38    0.68
  32   4  -2    3.27    1.02
  32   4   1    4.77    0.62
  32   4   4   21.51    1.96
  32   4   7    4.06    1.22
  32   4  10    3.71    0.98
  32   4  13    2.49    1.22
  32   4  16    0.28    0.98
  32   5 -15    0.67    1.11
  32   5 -12    0.54    0.70
  32   5  -9    4.04    0.92
  32   5  -6    0.19    1.56
  32   5  -3    4.57    0.60
  32   5   0    0.55    0.60
  32   5   3    4.64    0.63
  32   5   6    1.09    1.83
  32   5   9    1.91    0.79
  32   5  12    0.53    1.38
  32   5  15    1.15    1.01
  32   6 -16    2.23    1.14
  32   6 -13    2.13    0.78
  32   6 -10    1.49    0.68
  32   6  -7    3.55    1.13
  32   6  -4    0.66    0.60
  32   6  -1    7.31    1.75
  32   6   2    3.01    1.60
  32   6   5    6.77    0.96
  32   6   8    1.12    0.74
  32   6  11    0.38    1.05
  32   6  14    0.16    1.00
  32   6  17    1.78    1.64
  32   7 -14    6.03    1.25
  32   7 -11    0.21    0.73
  32   7  -8    1.25    0.72
  32   7  -5   12.60    1.42
  32   7  -2    7.77    1.84
  32   7   1    5.46    0.89
  32   7   4    3.53    1.08
  32   7   7    3.62    0.76
  32   7  10    0.93    1.05
  32   7  13    0.27    1.52
  32   7  16    3.26    1.03
  32   8 -15    3.39    1.05
  32   8 -12    0.56    0.69
  32   8  -9    1.55    0.70
  32   8  -6    8.94    1.16
  32   8  -3   11.75    1.73
  32   8   0    5.02    1.76
  32   8   3    0.43    0.64
  32   8   6    6.06    0.99
  32   8   9    2.79    0.85
  32   8  12    1.16    1.01
  32   8  15    0.62    0.98
  32   9 -13    2.07    0.93
  32   9 -10    1.15    0.72
  32   9  -7    3.45    0.78
  32   9  -4    0.07    0.68
  32   9  -1    1.54    0.61
  32   9   2   13.04    2.07
  32   9   5    2.14    0.60
  32   9   8    5.76    1.20
  32   9  11    0.25    1.02
  32   9  14    0.06    0.99
  32  10 -14    2.03    0.96
  32  10 -11    7.28    0.96
  32  10  -8    2.90    0.77
  32  10  -5    1.27    0.83
  32  10  -2    2.54    0.90
  32  10   1    6.60    2.10
  32  10   4    1.47    0.69
  32  10   7    5.89    0.92
  32  10  10    2.58    1.10
  32  10  13    4.94    1.66
  32  11 -12    0.30    0.70
  32  11  -9    2.17    0.77
  32  11  -6    1.08    0.73
  32  11  -3    4.19    0.88
  32  11   0    0.02    0.61
  32  11   3    4.38    0.65
  32  11   6    1.75    0.83
  32  11   9    1.97    0.82
  32  11  12    0.17    1.08
  32  12 -13    1.51    1.31
  32  12 -10    0.95    0.73
  32  12  -7    5.74    1.34
  32  12  -4    1.12    0.81
  32  12  -1    5.56    0.86
  32  12   2    0.24    0.59
  32  12   5    0.76    0.65
  32  12   8    1.29    0.78
  32  12  11    1.84    0.96
  32  13 -11    0.94    1.02
  32  13  -8    2.73    0.71
  32  13  -5    2.05    0.77
  32  13  -2    4.19    0.81
  32  13   1    3.09    0.64
  32  13   4    1.31    0.59
  32  13   7    4.31    1.34
  32  13  10    1.15    0.96
  32  14  -9    0.84    0.77
  32  14  -6    0.01    0.71
  32  14  -3    2.01    0.79
  32  14   0    4.05    0.80
  32  14   3    1.90    0.61
  32  14   6    0.31    0.76
  32  14   9    0.92    0.73
  32  15  -7    0.28    1.02
  32  15  -4    1.18    0.73
  32  15  -1    1.05    0.67
  32  15   2    3.13    0.75
  32  15   5    1.93    0.84
  32  15   8    0.36    0.95
  32  16  -5    0.53    0.77
  32  16  -2    3.93    1.24
  32  16   1    0.15    0.71
  32  16   4    3.65    0.96
  32  17  -3    1.37    0.76
  32  17   0    0.15    0.65
  32  17   3    0.49    0.91
  33   0 -21    1.83    1.27
  33   0 -15    0.09    1.16
  33   0 -12    4.79    1.77
  33   0  -9    1.77    2.21
  33   0  -6   14.29    2.41
  33   0  -3    4.20    0.84
  33   0   0   16.23    1.34
  33   0   3    0.06    0.79
  33   0   6   26.26    3.07
  33   0   9    1.43    0.98
  33   0  12    3.37    1.22
  33   0  15    5.75    1.23
  33   0  18    6.18    1.54
  33   1 -19    0.29    1.09
  33   1 -13    0.10    1.11
  33   1 -10    0.31    1.24
  33   1  -7    2.64    0.85
  33   1  -4    3.41    1.05
  33   1  -1    3.41    1.89
  33   1   2    0.10    0.58
  33   1   5   15.03    1.36
  33   1   8    1.13    0.74
  33   1  11    1.62    1.20
  33   1  14    1.66    1.05
  33   1  17    1.80    0.96
  33   2 -17    0.37    1.03
  33   2 -14    1.31    1.34
  33   2 -11   12.10    4.72
  33   2  -8    5.18    2.06
  33   2  -5    1.99    1.05
  33   2  -2    3.38    0.67
  33   2   1    6.24    1.76
  33   2   4   19.88    1.56
  33   2   7    1.35    0.99
  33   2  10    0.02    0.92
  33   2  13    0.61    2.09
  33   2  16    0.47    0.98
  33   3 -18    0.31    1.23
  33   3 -15    1.37    1.13
  33   3 -12    4.00    1.10
  33   3  -9   10.00    0.99
  33   3  -6    1.90    0.82
  33   3  -3    1.46    0.68
  33   3   0    8.50    1.37
  33   3   3   18.81    1.34
  33   3   6   18.95    2.20
  33   3   9    6.45    2.06
  33   3  12    0.43    1.09
  33   3  15    2.17    1.21
  33   3  18    0.84    0.90
  33   4 -16    0.30    1.12
  33   4 -13    6.14    1.43
  33   4 -10    4.06    0.92
  33   4  -7    4.39    0.84
  33   4  -4    3.79    0.65
  33   4  -1   20.41    1.82
  33   4   2    5.59    1.30
  33   4   5   22.27    2.22
  33   4   8    0.95    1.39
  33   4  11    5.14    1.77
  33   4  14    0.26    1.04
  33   4  17    2.51    1.00
  33   5 -17    2.90    1.01
  33   5 -14    1.38    0.77
  33   5 -11    1.43    0.69
  33   5  -8    0.43    0.72
  33   5  -5    9.71    1.11
  33   5  -2    3.46    0.63
  33   5   1    0.08    0.65
  33   5   4    0.96    0.59
  33   5   7    3.77    0.74
  33   5  10    0.62    1.07
  33   5  13    0.33    1.07
  33   5  16    0.04    0.91
  33   6 -15    2.74    1.06
  33   6 -12    1.03    0.74
  33   6  -9    1.21    0.82
  33   6  -6    0.78    0.75
  33   6  -3    1.75    0.82
  33   6   0    4.85    1.23
  33   6   3    1.56    0.62
  33   6   6    1.31    0.73
  33   6   9    4.76    1.63
  33   6  12    0.18    1.01
  33   6  15    0.69    0.97
  33   7 -13    1.93    0.79
  33   7 -10    1.72    0.72
  33   7  -7    0.47    1.74
  33   7  -4    8.01    1.24
  33   7  -1    0.12    0.80
  33   7   2   12.92    1.09
  33   7   5    1.63    0.64
  33   7   8    4.16    0.92
  33   7  11    0.56    1.01
  33   7  14    6.33    1.11
  33   8 -14    0.22    1.00
  33   8 -11    1.72    0.94
  33   8  -8    0.78    0.74
  33   8  -5    4.54    1.23
  33   8  -2    0.23    0.60
  33   8   1    0.43    0.65
  33   8   4    0.37    0.60
  33   8   7    1.46    0.79
  33   8  10    1.61    1.02
  33   8  13    0.38    0.94
  33   9 -12    1.89    0.75
  33   9  -9    1.49    0.71
  33   9  -6    1.77    0.79
  33   9  -3    0.37    1.14
  33   9   0    0.31    1.25
  33   9   3    5.14    1.51
  33   9   6    2.61    0.77
  33   9   9    3.54    1.28
  33   9  12    1.65    1.05
  33   9  15    1.05    0.94
  33  10 -13    0.70    1.08
  33  10 -10    1.57    0.67
  33  10  -7    0.88    0.74
  33  10  -4    3.97    1.39
  33  10  -1    3.57    1.07
  33  10   2    2.33    0.71
  33  10   5    0.18    0.60
  33  10   8    5.03    0.90
  33  10  11    0.30    1.05
  33  10  14    1.87    0.95
  33  11 -11    0.30    0.73
  33  11  -8    0.18    0.70
  33  11  -5    0.11    0.76
  33  11  -2    1.61    0.77
  33  11   1    3.70    1.01
  33  11   4    0.05    0.60
  33  11   7    0.09    1.07
  33  11  10    0.38    1.03
  33  11  13    0.34    0.98
  33  12  -9    4.21    1.47
  33  12  -6    2.10    0.76
  33  12  -3    2.02    0.74
  33  12   0    0.86    0.73
  33  12   3    3.28    0.77
  33  12   6    1.99    0.80
  33  12   9    0.02    0.73
  33  12  12    0.86    0.93
  33  13 -10    1.50    0.97
  33  13  -7    3.07    0.82
  33  13  -4    0.31    0.72
  33  13  -1    0.48    0.67
  33  13   2    1.24    0.66
  33  13   5    3.23    1.20
  33  13   8    0.16    0.68
  33  13  11    0.46    0.96
  33  14  -8    0.19    0.85
  33  14  -5    0.17    0.76
  33  14  -2    0.29    1.00
  33  14   1    0.88    0.71
  33  14   4    0.26    0.54
  33  14   7    0.00    0.63
  33  15  -6    0.07    0.71
  33  15  -3    0.02    0.68
  33  15   0    0.60    0.73
  33  15   3    1.33    0.73
  33  16  -4    1.22    1.31
  33  16  -1    0.82    0.70
  33  16   2    0.61    0.92
  34   0 -20    0.30    1.41
  34   0 -14    7.67    1.24
  34   0 -11    0.08    1.00
  34   0  -8    1.86    1.28
  34   0  -5   14.01    0.70
  34   0  -2   16.74    1.57
  34   0   1    7.32    1.49
  34   0   4   38.56    2.87
  34   0   7    1.49    0.75
  34   0  10    0.07    0.93
  34   0  13    0.12    1.06
  34   0  16    1.77    1.19
  34   1 -18    0.85    0.79
  34   1 -15    2.04    2.10
  34   1 -12    0.43    1.03
  34   1  -9   11.60    2.67
  34   1  -6    2.37    1.50
  34   1  -3    0.18    1.22
  34   1   0   10.31    1.35
  34   1   3   30.60    1.97
  34   1   6    5.72    1.22
  34   1   9    1.49    0.92
  34   1  12    0.09    1.30
  34   1  15    2.01    1.12
  34   1  18    0.25    0.83
  34   2 -16    0.29    1.06
  34   2 -13    1.05    1.26
  34   2 -10    2.77    1.49
  34   2  -7    1.82    0.85
  34   2  -4    4.88    1.42
  34   2  -1    0.05    0.93
  34   2   2    5.60    1.02
  34   2   5    1.70    0.83
  34   2   8    1.28    0.84
  34   2  11    1.46    1.13
  34   2  14    1.38    1.11
  34   2  17    1.59    0.94
  34   3 -17    1.50    1.04
  34   3 -14    1.67    2.12
  34   3 -11    1.46    1.13
  34   3  -8    0.29    0.88
  34   3  -5    1.17    0.70
  34   3  -2   10.84    1.20
  34   3   1    3.16    1.60
  34   3   4    7.90    0.75
  34   3   7    0.28    0.72
  34   3  10   15.54    2.14
  34   3  13    0.84    1.74
  34   3  16    3.79    1.17
  34   4 -15    2.37    1.25
  34   4 -12    1.65    0.79
  34   4  -9    2.69    0.65
  34   4  -6    0.18    0.79
  34   4  -3    6.84    1.29
  34   4   0    8.12    1.39
  34   4   3   16.49    1.10
  34   4   6    0.61    0.71
  34   4   9    8.68    1.78
  34   4  12    1.66    1.22
  34   4  15    4.42    1.11
  34   5 -16    2.26    1.01
  34   5 -13    1.90    0.78
  34   5 -10    0.96    0.71
  34   5  -7    4.12    0.71
  34   5  -4    0.68    0.69
  34   5  -1   10.47    1.04
  34   5   2    0.44    0.61
  34   5   5    1.97    0.73
  34   5   8    2.66    0.89
  34   5  11    2.99    1.23
  34   5  14    0.66    0.95
  34   5  17    1.49    0.90
  34   6 -14    0.12    1.03
  34   6 -11    1.17    0.77
  34   6  -8    1.47    0.68
  34   6  -5    0.20    0.82
  34   6  -2    1.23    0.78
  34   6   1    0.34    0.62
  34   6   4    0.20    0.62
  34   6   7    7.76    1.63
  34   6  10    1.16    1.02
  34   6  13    0.52    1.00
  34   6  16    0.33    0.95
  34   7 -12    0.02    0.68
  34   7  -9    0.22    0.75
  34   7  -6    3.17    0.99
  34   7  -3    1.56    0.73
  34   7   0    1.19    0.66
  34   7   3    1.76    0.78
  34   7   6    2.54    1.24
  34   7   9    0.47    1.18
  34   7  12    1.32    1.07
  34   7  15    0.39    0.94
  34   8 -13    1.25    1.01
  34   8 -10    0.47    0.69
  34   8  -7    0.58    0.74
  34   8  -4    0.00    0.77
  34   8  -1    4.52    0.68
  34   8   2    0.45    0.59
  34   8   5    3.21    2.10
  34   8   8    0.60    0.81
  34   8  11    0.81    1.06
  34   8  14    0.48    0.95
  34   9 -11    0.08    0.75
  34   9  -8    4.17    0.87
  34   9  -5    0.33    0.72
  34   9  -2    2.58    1.23
  34   9   1    2.71    0.62
  34   9   4    1.80    0.68
  34   9   7    0.75    0.78
  34   9  10    1.32    1.17
  34   9  13    0.17    0.94
  34  10 -12    0.12    0.97
  34  10  -9    0.85    0.75
  34  10  -6    0.36    0.71
  34  10  -3    0.55    0.70
  34  10   0    3.90    0.94
  34  10   3    1.52    0.60
  34  10   6    2.85    0.85
  34  10   9    1.18    1.14
  34  10  12    0.93    0.96
  34  11 -10    0.36    0.71
  34  11  -7    1.66    0.76
  34  11  -4    2.82    0.82
  34  11  -1    0.09    1.13
  34  11   2    0.40    0.63
  34  11   5    0.21    0.78
  34  11   8    0.78    0.72
  34  11  11    0.23    0.94
  34  12  -8    0.47    0.73
  34  12  -5    1.14    0.75
  34  12  -2    2.23    0.67
  34  12   1    1.18    0.64
  34  12   4    1.10    0.58
  34  12   7    0.51    0.72
  34  12  10    0.13    0.88
  34  13  -6    0.08    0.74
  34  13  -3    0.42    0.72
  34  13   0    0.04    0.73
  34  13   3    0.70    0.70
  34  13   6    0.01    0.66
  34  14  -4    0.80    0.68
  34  14  -1    0.45    0.73
  34  14   2    0.18    0.94
  34  14   5    0.23    1.15
  34  15  -2    0.30    0.96
  34  15   1    0.60    1.46
  35   0 -13    1.74    1.27
  35   0 -10   17.53    2.62
  35   0  -7   23.61    1.32
  35   0  -4   11.82    1.23
  35   0  -1   20.39    2.68
  35   0   2    6.25    0.63
  35   0   5    3.47    2.81
  35   0   8    2.59    0.94
  35   0  11    0.80    1.08
  35   0  14    2.00    1.01
  35   0  17    1.81    0.90
  35   1 -17    2.68    1.47
  35   1 -14    3.53    1.32
  35   1 -11    0.06    1.16
  35   1  -8    6.03    1.02
  35   1  -5   10.73    1.37
  35   1  -2   13.07    2.78
  35   1   1   29.96    2.37
  35   1   4   10.17    0.95
  35   1   7    9.50    1.14
  35   1  10    1.92    1.02
  35   1  13    0.49    1.03
  35   1  16    1.38    0.90
  35   2 -15    0.57    1.10
  35   2 -12    1.67    1.28
  35   2  -9    2.23    1.03
  35   2  -6    1.36    0.69
  35   2  -3    0.53    0.71
  35   2   0   10.74    1.09
  35   2   3   11.26    1.25
  35   2   6    6.99    2.42
  35   2   9    0.63    0.89
  35   2  12    0.72    1.07
  35   2  15    0.16    0.97
  35   3 -16    0.95    0.95
  35   3 -13    0.69    0.99
  35   3 -10    1.50    0.92
  35   3  -7    7.86    1.86
  35   3  -4    0.54    0.82
  35   3  -1    3.56    0.71
  35   3   2    0.89    0.65
  35   3   5    0.15    0.73
  35   3   8    2.42    0.83
  35   3  11    1.31    1.13
  35   3  14    2.77    1.08
  35   3  17    0.66    0.89
  35   4 -14    0.64    0.77
  35   4 -11    3.78    0.82
  35   4  -8    0.49    0.72
  35   4  -5    0.31    0.66
  35   4  -2    0.14    0.62
  35   4   1    1.39    0.59
  35   4   4    3.98    0.78
  35   4   7    3.63    0.98
  35   4  10    1.55    1.07
  35   4  13    0.38    1.03
  35   4  16    1.61    1.00
  35   5 -15    0.14    0.87
  35   5 -12    0.16    0.70
  35   5  -9    3.36    0.77
  35   5  -6    1.06    0.86
  35   5  -3    0.73    0.60
  35   5   0    0.59    0.71
  35   5   3    3.77    0.64
  35   5   6    1.26    0.95
  35   5   9    0.60    1.03
  35   5  12    0.55    1.75
  35   5  15    1.97    1.07
  35   6 -13    0.54    0.76
  35   6 -10    0.05    0.73
  35   6  -7    1.55    0.76
  35   6  -4    3.11    1.25
  35   6  -1    2.00    1.28
  35   6   2    4.43    0.81
  35   6   5    3.33    1.50
  35   6   8    2.27    0.77
  35   6  11    1.68    0.99
  35   6  14    0.80    0.96
  35   7 -11    0.00    0.72
  35   7  -8    2.84    0.79
  35   7  -5    4.47    1.03
  35   7  -2    3.88    0.71
  35   7   1    6.78    0.89
  35   7   4    0.61    1.75
  35   7   7    5.42    1.14
  35   7  10    0.95    1.01
  35   7  13    0.37    0.98
  35   8 -12    3.17    1.06
  35   8  -9    1.34    0.71
  35   8  -6    0.04    0.74
  35   8  -3    0.42    0.75
  35   8   0    1.65    0.63
  35   8   3    1.55    0.64
  35   8   6    0.28    0.76
  35   8   9    1.46    1.17
  35   8  12    0.91    1.01
  35   9 -10    0.48    1.02
  35   9  -7    2.01    0.75
  35   9  -4    2.11    0.73
  35   9  -1    1.12    0.68
  35   9   2    0.68    0.59
  35   9   5    3.58    0.79
  35   9   8    0.32    0.78
  35   9  11    0.80    0.96
  35  10  -8    2.63    0.79
  35  10  -5    0.70    0.70
  35  10  -2    1.75    0.82
  35  10   1    0.44    0.57
  35  10   4    1.02    0.60
  35  10   7    0.02    0.68
  35  10  10    0.74    0.95
  35  11  -9    0.85    1.00
  35  11  -6    0.24    0.75
  35  11  -3    0.90    0.72
  35  11   0    0.72    0.66
  35  11   3    0.09    0.57
  35  11   6    0.38    0.69
  35  11   9    0.49    0.88
  35  12  -7    1.03    0.71
  35  12  -4    0.48    0.71
  35  12  -1    0.15    0.68
  35  12   2    0.13    0.53
  35  12   5    1.80    0.71
  35  13  -5    0.43    0.76
  35  13  -2    0.12    0.67
  35  13   1    0.79    0.72
  35  13   4    0.08    1.03
  36   0 -15    3.02    0.88
  36   0 -12    0.06    1.22
  36   0  -9    4.34    1.37
  36   0  -6    0.06    0.72
  36   0  -3   16.62    1.85
  36   0   0    0.94    0.61
  36   0   3    0.01    1.06
  36   0   6    1.00    0.83
  36   0   9    8.83    1.14
  36   0  12    0.00    1.04
  36   0  15    2.15    0.97
  36   1 -16    1.10    1.09
  36   1 -13    3.60    1.31
  36   1 -10    1.43    1.17
  36   1  -7    0.42    0.91
  36   1  -4    4.05    1.31
  36   1  -1    0.10    0.65
  36   1   2   19.46    4.09
  36   1   5    2.54    0.78
  36   1   8    0.69    0.91
  36   1  11    0.26    1.02
  36   1  14    0.40    1.07
  36   1  17    0.25    0.92
  36   2 -14    1.42    0.86
  36   2 -11    0.12    0.73
  36   2  -8    1.37    1.06
  36   2  -5    4.74    0.75
  36   2  -2    2.89    0.68
  36   2   1    4.63    0.68
  36   2   4    1.07    1.06
  36   2   7    0.31    0.71
  36   2  10    0.75    0.98
  36   2  13    0.66    1.16
  36   2  16    1.67    0.96
  36   3 -15    2.19    1.05
  36   3 -12    0.62    0.81
  36   3  -9    0.28    0.74
  36   3  -6    2.69    0.96
  36   3  -3    2.32    0.88
  36   3   0    3.24    0.65
  36   3   3    2.69    0.64
  36   3   6    3.43    0.97
  36   3   9    0.48    1.03
  36   3  12    0.66    1.04
  36   4 -13    0.24    0.77
  36   4 -10    1.05    1.05
  36   4  -7    0.03    0.83
  36   4  -4    0.92    0.60
  36   4  -1    1.33    0.62
  36   4   2    4.80    0.95
  36   4   5    0.18    1.46
  36   4   8    1.26    1.13
  36   4  11    0.30    1.14
  36   4  14    1.28    1.00
  36   5 -14    0.67    1.03
  36   5 -11    1.12    0.72
  36   5  -8    2.89    0.76
  36   5  -5    0.31    0.71
  36   5  -2    1.21    1.07
  36   5   1    3.42    0.71
  36   5   4    1.36    0.63
  36   5   7    0.17    0.79
  36   5  10    0.58    2.64
  36   5  13    0.86    0.97
  36   6 -12    0.16    0.73
  36   6  -9    0.55    0.72
  36   6  -6    3.15    0.73
  36   6  -3    4.57    0.92
  36   6   0    7.33    0.95
  36   6   3    0.15    0.61
  36   6   6    3.82    0.93
  36   6   9    0.28    1.33
  36   6  12    1.05    1.02
  36   7 -10    0.18    0.76
  36   7  -7    1.12    0.72
  36   7  -4    0.17    0.74
  36   7  -1    0.40    0.60
  36   7   2    3.94    1.35
  36   7   5    2.68    0.89
  36   7   8    1.77    1.14
  36   7  11    0.33    1.03
  36   8 -11    0.21    0.99
  36   8  -8    2.32    0.73
  36   8  -5    0.74    0.69
  36   8  -2    0.30    0.75
  36   8   1    1.58    0.77
  36   8   4    2.96    0.80
  36   8   7    0.98    0.79
  36   8  10    0.17    0.92
  36   9  -9    0.71    0.75
  36   9  -6    0.73    0.69
  36   9  -3    1.36    0.70
  36   9   0    4.07    0.60
  36   9   3    2.32    0.58
  36   9   6    0.98    0.69
  36   9   9    0.29    0.95
  36  10  -7    0.88    0.80
  36  10  -4    0.38    0.75
  36  10  -1    0.34    0.67
  36  10   2    0.10    0.55
  36  10   5    0.33    0.67
  36  10   8    0.40    0.88
  36  11  -5    0.42    0.69
  36  11  -2    0.08    0.68
  36  11   1    1.13    1.42
  36  11   4    0.97    0.71
  36  12  -3    0.20    0.72
  36  12   0    0.35    1.00
  36  12   3    0.70    1.64
  37   0 -14    0.89    0.79
  37   0 -11    0.17    1.18
  37   0  -8    0.19    0.93
  37   0  -5    2.76    0.69
  37   0  -2    2.42    0.79
  37   0   1    0.78    0.63
  37   0   4    0.05    0.73
  37   0   7    0.47    0.69
  37   0  10    0.28    0.99
  37   0  13    0.20    0.99
  37   0  16    0.29    0.93
  37   1 -15    2.36    1.21
  37   1 -12    0.48    0.85
  37   1  -9    0.55    1.03
  37   1  -6    1.85    0.72
  37   1  -3    0.07    0.61
  37   1   0    1.75    0.93
  37   1   3    2.08    0.61
  37   1   6    2.87    0.77
  37   1   9    0.31    1.64
  37   1  12    0.10    0.99
  37   1  15    0.15    0.93
  37   2 -13    0.42    0.86
  37   2 -10    0.88    0.73
  37   2  -7    0.79    0.73
  37   2  -4    0.12    0.60
  37   2  -1    1.94    1.37
  37   2   2    2.94    0.61
  37   2   5    2.17    0.76
  37   2   8    0.04    0.90
  37   2  11    0.39    0.96
  37   2  14    0.81    1.02
  37   3 -14    0.54    1.00
  37   3 -11    1.22    0.76
  37   3  -8    0.78    0.79
  37   3  -5    0.20    1.37
  37   3  -2    1.16    0.60
  37   3   1    1.03    1.46
  37   3   4    5.93    1.79
  37   3   7    0.26    0.68
  37   3  10    0.34    1.01
  37   3  13    3.72    1.74
  37   4 -12    0.01    0.75
  37   4  -9    0.38    0.70
  37   4  -6    0.06    0.74
  37   4  -3    0.33    0.60
  37   4   0    0.03    0.61
  37   4   3    0.52    1.16
  37   4   6    1.09    0.69
  37   4   9    0.48    1.04
  37   4  12    0.46    1.07
  37   5 -13    0.28    1.25
  37   5 -10    0.21    0.77
  37   5  -7    0.70    0.79
  37   5  -4    0.01    0.73
  37   5  -1    0.30    0.64
  37   5   2    0.49    0.65
  37   5   5    1.12    0.74
  37   5   8    0.13    1.03
  37   5  11    0.50    1.00
  37   6 -11    0.25    0.73
  37   6  -8    0.19    0.69
  37   6  -5    0.02    0.69
  37   6  -2    2.94    0.81
  37   6   1    1.13    0.59
  37   6   4    4.16    0.82
  37   6   7    1.16    0.81
  37   6  10    0.32    1.03
  37   7  -9    0.18    0.71
  37   7  -6    0.69    0.67
  37   7  -3    2.27    0.69
  37   7   0    2.09    0.59
  37   7   3    2.38    0.60
  37   7   6    0.57    0.72
  37   7   9    1.62    1.01
  37   8  -7    1.27    0.75
  37   8  -4    1.51    0.68
  37   8  -1    1.69    0.91
  37   8   2    0.27    0.57
  37   8   5    0.29    0.92
  37   8   8    0.56    0.98
  37   9  -8    1.11    1.18
  37   9  -5    0.03    0.73
  37   9  -2    0.03    0.87
  37   9   1    0.08    0.55
  37   9   4    0.17    0.69
  37   9   7    0.58    0.98
  37  10  -6    0.99    1.64
  37  10  -3    0.16    0.70
  37  10   0    0.97    0.67
  37  10   3    0.39    0.93
  37  11  -1    1.15    1.04
  38   0 -13    2.11    0.88
  38   0 -10    0.14    0.92
  38   0  -7    8.59    0.90
  38   0  -4    1.48    1.15
  38   0  -1    4.38    0.61
  38   0   2    2.51    1.39
  38   0   5    5.91    0.82
  38   0   8    0.04    0.88
  38   0  11    1.07    1.01
  38   0  14    0.00    0.98
  38   1 -14    0.07    1.04
  38   1 -11    1.07    2.63
  38   1  -8    0.53    0.76
  38   1  -5    0.11    0.59
  38   1  -2    4.39    1.90
  38   1   1    0.60    0.61
  38   1   4   10.34    1.24
  38   1   7    0.21    0.89
  38   1  10    0.28    1.58
  38   1  13    0.20    1.03
  38   2 -12    0.57    2.55
  38   2  -9    1.57    0.72
  38   2  -6    0.54    0.71
  38   2  -3    1.39    0.62
  38   2   0    0.13    0.63
  38   2   3    8.39    1.26
  38   2   6    0.29    0.67
  38   2   9    1.20    1.04
  38   2  12    0.43    1.01
  38   3 -13    0.58    0.99
  38   3 -10    0.07    0.87
  38   3  -7    1.04    0.75
  38   3  -4    1.12    0.59
  38   3  -1    0.15    0.59
  38   3   2    0.56    0.59
  38   3   5    3.97    0.76
  38   3   8    0.92    1.10
  38   3  11    0.93    1.05
  38   4 -11    1.01    0.76
  38   4  -8    0.28    0.75
  38   4  -5    0.58    0.73
  38   4  -2    1.66    0.60
  38   4   1    0.38    0.60
  38   4   4    1.44    0.80
  38   4   7    0.65    0.72
  38   4  10    2.71    1.08
  38   4  13    0.59    1.44
  38   5  -9    0.28    0.79
  38   5  -6    0.27    0.72
  38   5  -3    5.86    1.23
  38   5   0    1.00    0.67
  38   5   3    0.40    0.62
  38   5   6    1.47    0.83
  38   5   9    0.26    1.04
  38   5  12    0.22    1.18
  38   6 -10    1.15    0.99
  38   6  -7    0.57    0.77
  38   6  -4    2.63    0.89
  38   6  -1    1.60    0.67
  38   6   2    3.04    0.80
  38   6   5    0.22    1.04
  38   6   8    0.70    1.06
  38   6  11    1.48    1.37
  38   7  -8    0.37    0.70
  38   7  -5    0.35    0.73
  38   7  -2    0.69    0.68
  38   7   1    1.94    0.62
  38   7   4    1.78    0.86
  38   7   7    0.27    1.02
  38   8  -6    0.64    0.72
  38   8  -3    0.18    0.73
  38   8   0    0.43    0.78
  38   8   3    1.34    0.75
  38   8   6    0.05    0.89
  38   9  -4    0.01    0.77
  38   9  -1    0.87    0.99
  38   9   2    2.26    0.94
  39   0 -12    5.81    1.87
  39   0  -9    0.50    0.72
  39   0  -6    2.29    0.63
  39   0  -3   26.32    1.73
  39   0   0    0.17    0.61
  39   0   3    8.36    1.70
  39   0   6    0.22    0.69
  39   0   9    0.00    1.01
  39   0  12    1.15    1.04
  39   1 -13    0.56    1.06
  39   1 -10    0.81    0.87
  39   1  -7    0.07    0.74
  39   1  -4    1.37    0.60
  39   1  -1    4.75    0.77
  39   1   2    6.49    1.03
  39   1   5    2.34    0.80
  39   1   8    0.52    1.02
  39   1  11    0.25    1.02
  39   2 -11    0.30    0.93
  39   2  -8    3.55    0.77
  39   2  -5    0.61    0.74
  39   2  -2    1.52    0.68
  39   2   1   10.10    1.34
  39   2   4    0.46    0.73
  39   2   7    1.33    1.20
  39   2  10    0.02    1.04
  39   2  13    0.15    1.21
  39   3  -9    1.16    0.81
  39   3  -6    0.17    0.73
  39   3  -3    2.16    0.59
  39   3   0    0.30    0.60
  39   3   3    1.59    0.92
  39   3   6    1.15    0.71
  39   3   9    1.04    1.09
  39   3  12    3.55    1.02
  39   4 -10    0.21    0.83
  39   4  -7    0.18    0.78
  39   4  -4    0.16    0.66
  39   4  -1    3.08    0.94
  39   4   2    1.48    0.57
  39   4   5    0.09    0.75
  39   4   8    0.00    1.01
  39   4  11    1.19    1.00
  39   5  -8    0.32    0.73
  39   5  -5    0.64    0.72
  39   5  -2    1.81    0.64
  39   5   1    1.71    0.88
  39   5   4    0.45    0.73
  39   5   7    0.03    1.00
  39   5  10    1.16    1.28
  39   6  -6    0.15    0.71
  39   6  -3    1.25    0.73
  39   6   0    3.43    1.30
  39   6   3    0.98    0.73
  39   6   6    1.08    0.96
  39   7  -4    0.19    0.68
  39   7  -1    0.40    0.66
  39   7   2    1.14    0.85
  39   7   5    0.34    1.12
  39   8  -2    1.00    1.15
  40   0 -11    1.32    1.03
  40   0  -8    1.20    0.70
  40   0  -5    0.38    0.59
  40   0  -2    2.72    0.69
  40   0   1   11.81    1.30
  40   0   4    0.32    0.68
  40   0   7    0.98    0.94
  40   0  10    0.42    1.10
  40   0  13    0.79    1.55
  40   1  -9    0.28    0.80
  40   1  -6    1.25    0.70
  40   1  -3    0.93    0.63
  40   1   0    0.15    0.59
  40   1   3    0.39    0.70
  40   1   6    0.48    0.70
  40   1   9    0.80    1.12
  40   1  12    0.11    0.95
  40   2 -10    1.25    0.79
  40   2  -7    1.02    0.80
  40   2  -4    1.33    0.62
  40   2  -1    0.07    0.58
  40   2   2    3.20    0.70
  40   2   5    4.18    0.97
  40   2   8    0.33    1.06
  40   2  11    0.35    0.97
  40   3  -8    0.08    0.76
  40   3  -5    2.52    0.81
  40   3  -2    1.30    0.73
  40   3   1    0.01    0.56
  40   3   4    2.72    0.82
  40   3   7    0.14    1.04
  40   3  10    3.27    1.03
  40   4  -6    0.09    0.77
  40   4  -3    0.27    0.81
  40   4   0    0.41    0.57
  40   4   3    0.39    0.84
  40   4   6    0.31    1.03
  40   4   9    1.88    1.55
  40   5  -4    0.86    0.71
  40   5  -1    0.45    0.61
  40   5   2    0.29    0.71
  40   5   5    0.25    0.99
  40   6  -2    0.93    0.96
  40   6   1    1.39    0.99
  41   0 -10    8.01    1.18
  41   0  -7    1.92    0.93
  41   0  -4    7.05    1.00
  41   0  -1    0.34    0.57
  41   0   2   10.05    0.92
  41   0   5    0.15    0.64
  41   0   8    0.75    1.07
  41   0  11    0.00    0.98
  41   1  -8    0.13    0.77
  41   1  -5    5.95    1.94
  41   1  -2    1.17    0.63
  41   1   1    1.97    0.65
  41   1   4    0.15    0.73
  41   1   7    0.04    1.02
  41   1  10    0.07    0.92
  41   2  -6    0.88    0.86
  41   2  -3    0.92    0.60
  41   2   0    0.15    0.56
  41   2   3    0.03    0.74
  41   2   6    1.06    1.06
  41   2   9    1.46    1.03
  41   3  -7    1.50    0.98
  41   3  -4    1.98    0.69
  41   3  -1    0.55    0.58
  41   3   2    1.72    1.18
  41   3   5    0.60    1.10
  41   4  -5    1.50    1.36
  41   4  -2    0.29    0.92
  41   4   1    5.14    1.27
  41   4   4    0.41    1.14
  42   0  -6    5.83    2.18
  42   0  -3    2.35    0.73
  42   0   0    7.84    0.87
  42   0   3    6.22    0.83
  42   0   6    1.38    1.04
  42   0   9    0.38    1.01
  42   1  -7    1.04    0.86
  42   1  -4    5.20    1.37
  42   1  -1    0.27    0.57
  42   1   2    1.33    0.74
  42   1   5    0.05    1.00
  42   1   8    0.13    1.61
  42   2  -5    0.84    1.03
  42   2  -2    1.12    1.03
  42   2   1    3.81    1.49
  42   2   4    4.12    1.04
  43   0  -5    1.24    1.08
  43   0  -2    0.11    0.99
  43   0   1    6.89    1.60
  43   0   4    0.16    0.99
   0   0   0    0.00    0.00
;
_shelx_hkl_checksum              41970
_shelx_shelxl_version_number     2014/7
_olex2_submission_special_instructions 'No special instructions were received'
loop_
_space_group_symop_operation_xyz
'x, y, z'
'-y, x-y, z'
'-x+y, -x, z'
'y, x, -z'
'x-y, -y, -z'
'-x, -x+y, -z'
'x+2/3, y+1/3, z+1/3'
'-y+2/3, x-y+1/3, z+1/3'
'-x+y+2/3, -x+1/3, z+1/3'
'y+2/3, x+1/3, -z+1/3'
'x-y+2/3, -y+1/3, -z+1/3'
'-x+2/3, -x+y+1/3, -z+1/3'
'x+1/3, y+2/3, z+2/3'
'-y+1/3, x-y+2/3, z+2/3'
'-x+y+1/3, -x+2/3, z+2/3'
'y+1/3, x+2/3, -z+2/3'
'x-y+1/3, -y+2/3, -z+2/3'
'-x+1/3, -x+y+2/3, -z+2/3'
loop_
_atom_site_label
_atom_site_type_symbol
_atom_site_fract_x
_atom_site_fract_y
_atom_site_fract_z
_atom_site_U_iso_or_equiv
_atom_site_adp_type
_atom_site_occupancy
_atom_site_site_symmetry_order
_atom_site_calc_flag
_atom_site_refinement_flags_posn
_atom_site_refinement_flags_adp
_atom_site_refinement_flags_occupancy
K1 K 0.6667 0.63797(8) 0.3333 0.0816(10) Uani 0.466(6) 2 d DS TU P
K2 K 0.79210(3) 0.89473(3) 0.58158(5) 0.0817(3) Uani 1 1 d D U .
O1 O 0.54912(9) 0.69688(11) 0.2200(2) 0.1117(15) Uani 1 1 d D U .
H1 H 0.5421 0.6808 0.1991 0.168 Uiso 1 1 calc GR . .
O2 O 0.56960(14) 0.65661(14) 0.2802(3) 0.1293(19) Uani 1 1 d D U .
H2 H 0.5766 0.6659 0.3073 0.194 Uiso 1 1 calc GR . .
O3 O 0.47777(10) 0.62068(10) 0.30784(13) 0.0844(11) Uani 1 1 d D U .
O4 O 0.41787(12) 0.61471(12) 0.26780(15) 0.1125(16) Uani 1 1 d D U .
H4 H 0.4316(3) 0.6051(3) 0.2771(8) 0.169 Uiso 1 1 d DR . .
O5 O 0.53088(11) 0.64836(9) 0.35409(15) 0.0934(12) Uani 1 1 d D U .
O6 O 0.58974(14) 0.63072(14) 0.3516(2) 0.1339(17) Uani 1 1 d D U .
H6 H 0.5704(3) 0.6156(8) 0.3357(7) 0.201 Uiso 1 1 d DR . .
O7 O 0.62456(18) 0.63755(18) 0.4333(3) 0.175(2) Uani 1 1 d D U .
H7 H 0.6359(5) 0.6574(4) 0.4524(6) 0.262 Uiso 1 1 d DR . .
O8 O 0.53335(16) 0.61946(14) 0.4769(2) 0.1389(19) Uani 1 1 d D U .
O9 O 0.4657(2) 0.58804(14) 0.4375(2) 0.167(3) Uani 1 1 d D U .
H9 H 0.4447 0.5826 0.4302 0.251 Uiso 1 1 calc GR . .
O10 O 0.59124(11) 0.66887(10) 0.48928(18) 0.0984(12) Uani 1 1 d D U .
O11 O 0.66681(12) 0.70187(11) 0.47739(17) 0.1140(14) Uani 1 1 d D U .
H11 H 0.6891 0.7158 0.4763 0.171 Uiso 1 1 calc DGR . .
O12 O 0.70663(13) 0.75983(11) 0.5475(2) 0.1277(17) Uani 1 1 d D U .
H12 H 0.7238 0.7591 0.5606 0.192 Uiso 1 1 calc GR . .
O13 O 0.62112(11) 0.70630(9) 0.60672(15) 0.0892(12) Uani 1 1 d D U .
O14 O 0.5718(2) 0.6317(2) 0.6092(3) 0.174(3) Uani 1 1 d D . .
H14 H 0.5536(6) 0.6154(4) 0.6219(10) 0.200 Uiso 1 1 d D . .
O15 O 0.65028(8) 0.76601(7) 0.57772(12) 0.0636(8) Uani 1 1 d D U .
O16 O 0.72136(8) 0.82567(8) 0.57652(12) 0.0690(9) Uani 1 1 d D U .
H16 H 0.7289(5) 0.8139(4) 0.5922(10) 0.103 Uiso 1 1 d DR . .
O17 O 0.72761(12) 0.89326(10) 0.58817(18) 0.1039(13) Uani 1 1 d D U .
H17 H 0.7177(3) 0.9065(3) 0.5816(9) 0.156 Uiso 1 1 d DR . .
O18 O 0.64416(10) 0.83353(9) 0.64903(15) 0.0885(11) Uani 1 1 d D U .
O19 O 0.61587(17) 0.76475(17) 0.69210(18) 0.159(3) Uani 1 1 d D U .
H19 H 0.6374 0.7810 0.6951 0.238 Uiso 1 1 calc DGR . .
O20 O 0.65290(9) 0.86951(8) 0.58546(13) 0.0764(9) Uani 1 1 d D U .
O21 O 0.70597(17) 0.93535(17) 0.5389(3) 0.169(2) Uani 1 1 d D U .
H21 H 0.7105 0.9329 0.5104 0.254 Uiso 1 1 calc DGR . .
O22 O 0.6690(2) 0.9662(2) 0.4950(3) 0.1745(15) Uani 1 1 d D U .
H22 H 0.6875 0.9655 0.4875 0.262 Uiso 1 1 calc GR . .
O23 O 0.60706(13) 0.92089(12) 0.5880(2) 0.1190(15) Uani 1 1 d D U .
O24 O 0.6039(3) 0.89169(19) 0.6766(2) 0.215(4) Uani 1 1 d D U .
H24 H 0.5926 0.8804 0.7011 0.322 Uiso 1 1 calc GR . .
O25 O 0.59534(12) 0.91554(11) 0.50334(18) 0.1086(14) Uani 1 1 d D U .
O26 O 0.61637(17) 0.98035(16) 0.4522(2) 0.1745(15) Uani 1 1 d D U .
H26 H 0.6157 0.9924 0.4291 0.262 Uiso 1 1 calc DGR . .
O27 O 0.5806(2) 0.9634(2) 0.3768(3) 0.1745(15) Uani 1 1 d D U .
H27 H 0.5880 0.9500 0.3664 0.262 Uiso 1 1 calc DGR . .
O28 O 0.50575(19) 0.8941(2) 0.4555(3) 0.171(2) Uani 1 1 d D U .
O29 O 0.49190(14) 0.88245(17) 0.5457(3) 0.183 Uani 1 1 d D U .
H29 H 0.4792 0.8826 0.5231 0.275 Uiso 1 1 calc GR . .
O30 O 0.5342(2) 0.8964(2) 0.3716(3) 0.186(3) Uani 1 1 d D U .
O31 O 0.57922(10) 0.92155(11) 0.25522(17) 0.0934(12) Uani 1 1 d D U .
H31 H 0.5721 0.9352 0.2447 0.140 Uiso 1 1 calc DGR . .
O32 O 0.5454(2) 0.8656(2) 0.1976(3) 0.1745(15) Uani 1 1 d D U .
H32 H 0.5675(4) 0.8760(4) 0.1993(6) 0.262 Uiso 1 1 d DR . .
O33 O 0.47192(7) 0.84124(9) 0.28338(14) 0.0748(10) Uani 1 1 d D U .
O34 O 0.45547(11) 0.87889(9) 0.34468(16) 0.1010(13) Uani 1 1 d D U .
H34 H 0.4553(3) 0.8892(3) 0.3726(4) 0.151 Uiso 1 1 d DR . .
O35 O 0.50308(8) 0.81010(9) 0.25661(15) 0.0805(10) Uani 1 1 d D U .
O36 O 0.52898(9) 0.79642(8) 0.17277(15) 0.0798(10) Uani 1 1 d D U .
H36 H 0.5504(4) 0.8142(4) 0.1885(7) 0.120 Uiso 1 1 d DR . .
O37 O 0.51391(8) 0.72433(8) 0.16239(11) 0.0637(8) Uani 1 1 d D U .
H37 H 0.5327(4) 0.7343(9) 0.1859(6) 0.096 Uiso 1 1 d DR . .
O38 O 0.44497(8) 0.71384(9) 0.24698(13) 0.0760(10) Uani 1 1 d D U .
O39 O 0.40936(14) 0.75198(14) 0.2649(2) 0.151(2) Uani 1 1 d D U .
H39 H 0.3941 0.7544 0.2806 0.227 Uiso 1 1 calc GR . .
O40 O 0.49159(7) 0.70291(7) 0.25652(11) 0.0590(8) Uani 1 1 d D U .
C1 C 0.49229(10) 0.67058(10) 0.26225(16) 0.0522(10) Uani 1 1 d D U .
H1A H 0.4799 0.6538 0.2351 0.063 Uiso 1 1 calc DR . .
C2 C 0.53179(13) 0.68171(12) 0.2637(2) 0.0799(14) Uani 1 1 d D U .
H2A H 0.5439 0.6993 0.2902 0.096 Uiso 1 1 calc R . .
C3 C 0.53347(17) 0.64811(16) 0.2733(3) 0.0993(19) Uani 1 1 d D U .
H3 H 0.5246 0.6329 0.2439 0.119 Uiso 1 1 calc R . .
C4 C 0.51201(15) 0.62544(15) 0.3140(2) 0.0880(17) Uani 1 1 d D U .
H4A H 0.5136(4) 0.6048(2) 0.3140(7) 0.21(5) Uiso 1 1 d D . .
C5 C 0.47557(14) 0.65336(14) 0.30921(19) 0.0779(15) Uani 1 1 d D U .
H5 H 0.4876 0.6689 0.3376 0.093 Uiso 1 1 calc R . .
C6 C 0.43590(16) 0.63996(16) 0.30669(19) 0.101(2) Uani 1 1 d D U .
H6A H 0.4247 0.6282 0.3373 0.121 Uiso 1 1 calc R . .
H6B H 0.4322 0.6607 0.3027 0.121 Uiso 1 1 calc R . .
C7 C 0.54111(15) 0.63347(15) 0.3938(2) 0.0940(16) Uani 1 1 d D U .
H7A H 0.5258 0.6071 0.3884 0.113 Uiso 1 1 calc R . .
C8 C 0.57772(17) 0.63819(17) 0.3963(2) 0.1009(19) Uani 1 1 d D U .
H8 H 0.5939 0.6645 0.4015 0.121 Uiso 1 1 calc R . .
C9 C 0.5853(2) 0.6206(2) 0.4375(3) 0.135(3) Uani 1 1 d D U .
H9A H 0.5732 0.5940 0.4336 0.162 Uiso 1 1 calc R . .
C10 C 0.5694(2) 0.6310(2) 0.4778(3) 0.130(3) Uani 1 1 d D U .
H10 H 0.5723 0.6186 0.5062 0.156 Uiso 1 1 calc R . .
C11 C 0.52684(17) 0.63875(19) 0.4412(2) 0.101(2) Uani 1 1 d D U .
H11A H 0.5402 0.6648 0.4496 0.122 Uiso 1 1 calc R . .
C12 C 0.48767(19) 0.62631(14) 0.4401(3) 0.116(2) Uani 1 1 d D U .
H12A H 0.4812 0.6349 0.4692 0.139 Uiso 1 1 calc R . .
H12B H 0.4825 0.6371 0.4121 0.139 Uiso 1 1 calc R . .
C13 C 0.61542(14) 0.68200(14) 0.5294(2) 0.0822(15) Uani 1 1 d D U .
H13 H 0.6198 0.6626 0.5413 0.099 Uiso 1 1 calc R . .
C14 C 0.65147(11) 0.71445(10) 0.51214(17) 0.0593(11) Uani 1 1 d D U .
H14A H 0.6476 0.7338 0.4986 0.071 Uiso 1 1 calc R . .
C15 C 0.6742(2) 0.7271(2) 0.5566(3) 0.113(2) Uani 1 1 d D U .
H15 H 0.6791 0.7083 0.5693 0.136 Uiso 1 1 calc R . .
C17 C 0.5965(2) 0.6915(2) 0.5682(3) 0.123(2) Uani 1 1 d D U .
H17A H 0.5891 0.7086 0.5561 0.148 Uiso 1 1 calc R . .
C18 C 0.5665(3) 0.6604(2) 0.5943(4) 0.152(3) Uani 1 1 d D U .
H18A H 0.5608 0.6700 0.6231 0.183 Uiso 1 1 calc DR . .
H18B H 0.5450 0.6502 0.5735 0.183 Uiso 1 1 calc DR . .
C19 C 0.66223(14) 0.79590(13) 0.60971(19) 0.0730(13) Uani 1 1 d D U .
H19A H 0.6728 0.7919 0.6393 0.088 Uiso 1 1 calc R . .
C20 C 0.69029(11) 0.82885(10) 0.58270(17) 0.0580(11) Uani 1 1 d D U .
H20 H 0.6808 0.8316 0.5514 0.070 Uiso 1 1 calc R . .
C22 C 0.66970(14) 0.86491(14) 0.6269(2) 0.0881(16) Uani 1 1 d D U .
H22A H 0.6771 0.8857 0.6490 0.106 Uiso 1 1 calc R . .
C23 C 0.63118(13) 0.80205(12) 0.6221(2) 0.0731(13) Uani 1 1 d D U .
H23 H 0.6211 0.8054 0.5916 0.088 Uiso 1 1 calc R . .
C24 C 0.60142(14) 0.77025(14) 0.64831(18) 0.0874(16) Uani 1 1 d D U .
H24A H 0.5816 0.7749 0.6557 0.105 Uiso 1 1 calc R . .
H24B H 0.5918 0.7485 0.6281 0.105 Uiso 1 1 calc R . .
C25 C 0.64748(13) 0.89943(13) 0.5886(2) 0.0768(14) Uani 1 1 d D U .
H25 H 0.6603 0.9135 0.6176 0.092 Uiso 1 1 calc R . .
C26 C 0.6686(2) 0.9212(2) 0.5442(3) 0.124(3) Uani 1 1 d D U .
H26A H 0.6574 0.9047 0.5164 0.149 Uiso 1 1 calc R . .
C27 C 0.65616(17) 0.94941(16) 0.5405(3) 0.1048(19) Uani 1 1 d D U .
H27A H 0.6684 0.9678 0.5660 0.126 Uiso 1 1 calc R . .
C28 C 0.61622(19) 0.93623(19) 0.5425(3) 0.114(2) Uani 1 1 d D U .
H28 H 0.6138 0.9581 0.5435 0.137 Uiso 1 1 calc DR . .
C29 C 0.60838(18) 0.88877(17) 0.5933(3) 0.108(2) Uani 1 1 d D U .
H29A H 0.5958 0.8735 0.5650 0.130 Uiso 1 1 calc R . .
C30 C 0.5873(3) 0.8699(2) 0.6348(2) 0.154(3) Uani 1 1 d D U .
H30A H 0.5625 0.8653 0.6312 0.185 Uiso 1 1 calc R . .
H30B H 0.5864 0.8465 0.6380 0.185 Uiso 1 1 calc R . .
C31 C 0.5671(3) 0.9228(3) 0.4916(4) 0.171(4) Uani 1 1 d D U .
H31A H 0.5647 0.9381 0.5164 0.206 Uiso 1 1 calc R . .
C32 C 0.58751(16) 0.94447(17) 0.4485(2) 0.103(2) Uani 1 1 d D U .
H32A H 0.5958 0.9303 0.4296 0.124 Uiso 1 1 calc R . .
C33 C 0.55948(15) 0.94784(16) 0.41958(19) 0.106(2) Uani 1 1 d D U .
H33 H 0.5528 0.9646 0.4351 0.128 Uiso 1 1 calc R . .
C34 C 0.52793(15) 0.91156(16) 0.41356(18) 0.0964(18) Uani 1 1 d D U .
H34A H 0.5118 0.9192 0.3985 0.116 Uiso 1 1 calc DR . .
C35 C 0.53299(18) 0.89092(19) 0.4817(3) 0.107(2) Uani 1 1 d D U .
H35 H 0.5381 0.8739 0.4637 0.128 Uiso 1 1 calc R . .
C36 C 0.51856(13) 0.87494(16) 0.5275(2) 0.102 Uani 1 1 d D U .
H36A H 0.5079 0.8486 0.5248 0.123 Uiso 1 1 calc R . .
H36B H 0.5385 0.8836 0.5508 0.123 Uiso 1 1 calc R . .
C37 C 0.52631(17) 0.88895(17) 0.3202(3) 0.1022(19) Uani 1 1 d D U .
H37A H 0.5184 0.9063 0.3108 0.123 Uiso 1 1 calc DR . .
C38 C 0.5500(3) 0.8917(3) 0.2804(4) 0.177(4) Uani 1 1 d D U .
H38 H 0.5612 0.8776 0.2920 0.212 Uiso 1 1 calc R . .
C39 C 0.52781(14) 0.87011(14) 0.2387(3) 0.0972(16) Uani 1 1 d D U .
H39A H 0.5193 0.8862 0.2256 0.117 Uiso 1 1 calc R . .
C40 C 0.49332(12) 0.83650(13) 0.2472(2) 0.0738(13) Uani 1 1 d D U .
H40 H 0.4794 0.8299 0.2167 0.089 Uiso 1 1 calc R . .
C41 C 0.49134(14) 0.85436(13) 0.3259(2) 0.0767(14) Uani 1 1 d D U .
H41 H 0.4978 0.8361 0.3362 0.092 Uiso 1 1 calc R . .
C42 C 0.46321(15) 0.85127(12) 0.3603(3) 0.112(2) Uani 1 1 d D U .
H42A H 0.4415 0.8272 0.3585 0.134 Uiso 1 1 calc DR . .
H42B H 0.4724 0.8557 0.3934 0.134 Uiso 1 1 calc DR . .
C43 C 0.48394(14) 0.77722(13) 0.2333(2) 0.0834(15) Uani 1 1 d D U .
H43 H 0.4671 0.7781 0.2096 0.100 Uiso 1 1 calc R . .
C44 C 0.51069(12) 0.76965(12) 0.20837(18) 0.0680(13) Uani 1 1 d D U .
H44 H 0.5281 0.7695 0.2318 0.082 Uiso 1 1 calc DR . .
C45 C 0.48918(11) 0.73307(10) 0.18421(16) 0.0590(11) Uani 1 1 d D U .
H45 H 0.4726(4) 0.7337(5) 0.1636(6) 0.071 Uiso 1 1 d DR . .
C46 C 0.46845(12) 0.70528(12) 0.22226(17) 0.0643(13) Uani 1 1 d D U .
H46 H 0.4539 0.6814 0.2066 0.077 Uiso 1 1 calc R . .
C47 C 0.46310(14) 0.74769(14) 0.2703(2) 0.0828(15) Uani 1 1 d D U .
H47 H 0.4804 0.7475 0.2939 0.099 Uiso 1 1 calc R . .
C48 C 0.43265(12) 0.74743(14) 0.2971(2) 0.0894(16) Uani 1 1 d D U .
H48A H 0.4189 0.7244 0.3144 0.107 Uiso 1 1 calc R . .
H48B H 0.4424 0.7670 0.3210 0.107 Uiso 1 1 calc R . .
C16 C 0.65403(11) 0.73631(12) 0.59201(16) 0.0625(12) Uani 1 1 d D U .
H16A H 0.6707(5) 0.7446(5) 0.6213(6) 0.075 Uiso 1 1 d DR . .
C21 C 0.70196(11) 0.86144(9) 0.61414(16) 0.0544(10) Uani 1 1 d D U .
H21A H 0.7116(5) 0.8580(5) 0.6425(5) 0.065 Uiso 1 1 d DR . .
Li3 Li 0.3821(11) 0.6667 0.1667 0.217(9) Uani 1 2 d S TU P
Li1 Li 0.6667 0.63797(8) 0.3333 0.0816(10) Uani 0.534(6) 2 d S T P
loop_
_atom_site_aniso_label
_atom_site_aniso_U_11
_atom_site_aniso_U_22
_atom_site_aniso_U_33
_atom_site_aniso_U_23
_atom_site_aniso_U_13
_atom_site_aniso_U_12
K1 0.091(2) 0.0854(15) 0.0703(15) -0.0158(7) -0.0315(15) 0.0455(10)
K2 0.0965(6) 0.0498(4) 0.1020(7) 0.0109(5) 0.0378(6) 0.0389(3)
O1 0.0777(16) 0.127(2) 0.160(4) 0.030(3) 0.007(2) 0.0732(12)
O2 0.108(3) 0.101(3) 0.175(5) -0.015(3) -0.002(3) 0.049(2)
O3 0.100(2) 0.0767(18) 0.0709(18) 0.0071(16) -0.0182(17) 0.0400(14)
O4 0.102(2) 0.129(3) 0.099(3) 0.002(2) -0.014(2) 0.0522(19)
O5 0.111(2) 0.0778(16) 0.102(2) 0.0055(18) -0.015(2) 0.0558(13)
O6 0.143(3) 0.134(3) 0.157(4) -0.003(3) -0.028(3) 0.0937(17)
O7 0.171(3) 0.187(4) 0.199(5) 0.003(3) -0.044(3) 0.115(2)
O8 0.156(3) 0.121(3) 0.132(3) 0.033(3) -0.027(3) 0.063(2)
O9 0.196(5) 0.175(5) 0.106(4) -0.008(4) 0.001(4) 0.073(4)
O10 0.121(2) 0.0816(16) 0.118(3) -0.0124(19) -0.015(2) 0.0692(12)
O11 0.152(3) 0.121(2) 0.105(3) 0.023(2) 0.019(2) 0.0953(16)
O12 0.132(2) 0.0943(19) 0.186(5) -0.025(3) 0.003(3) 0.0781(14)
O13 0.109(2) 0.0657(16) 0.091(2) 0.0066(17) 0.001(2) 0.0424(14)
O14 0.176(5) 0.153(5) 0.179(6) 0.028(5) 0.004(5) 0.073(4)
O15 0.0780(15) 0.0528(12) 0.0679(16) -0.0001(13) -0.0143(14) 0.0386(9)
O16 0.0790(14) 0.0645(13) 0.0784(19) 0.0040(14) 0.0032(15) 0.0471(10)
O17 0.123(2) 0.0872(18) 0.118(3) 0.005(2) -0.016(2) 0.0646(14)
O18 0.0928(18) 0.0829(17) 0.101(2) -0.0332(16) 0.0028(18) 0.0523(12)
O19 0.171(5) 0.155(4) 0.141(4) -0.008(4) 0.018(4) 0.075(3)
O20 0.1020(18) 0.0629(13) 0.0751(18) -0.0288(14) -0.0350(16) 0.0493(11)
O21 0.186(3) 0.178(3) 0.202(6) -0.005(4) 0.027(4) 0.134(2)
O22 0.179(3) 0.147(2) 0.186(3) -0.014(2) -0.007(2) 0.0730(17)
O23 0.126(2) 0.114(2) 0.144(3) -0.018(2) 0.003(2) 0.0794(15)
O24 0.271(7) 0.149(4) 0.243(8) -0.021(5) 0.001(6) 0.119(4)
O25 0.112(2) 0.094(2) 0.128(3) -0.036(2) -0.040(2) 0.0574(15)
O26 0.179(3) 0.147(2) 0.186(3) -0.014(2) -0.007(2) 0.0730(17)
O27 0.179(3) 0.147(2) 0.186(3) -0.014(2) -0.007(2) 0.0730(17)
O28 0.170(4) 0.169(3) 0.193(5) -0.008(4) 0.001(4) 0.100(2)
O29 0.193 0.175 0.186 -0.010 0.001 0.094
O30 0.189(4) 0.181(4) 0.201(5) -0.010(4) -0.013(4) 0.101(3)
O31 0.0790(17) 0.099(2) 0.117(3) -0.003(2) 0.001(2) 0.0557(13)
O32 0.179(3) 0.147(2) 0.186(3) -0.014(2) -0.007(2) 0.0730(17)
O33 0.0513(12) 0.0776(16) 0.101(2) -0.0185(16) -0.0294(14) 0.0365(10)
O34 0.119(2) 0.099(2) 0.100(2) -0.007(2) -0.015(2) 0.0661(15)
O35 0.0574(13) 0.0765(15) 0.117(2) -0.0144(18) -0.0223(16) 0.0401(10)
O36 0.0796(16) 0.0610(14) 0.103(2) -0.0014(16) 0.0017(18) 0.0380(11)
O37 0.0753(15) 0.0632(14) 0.0564(15) -0.0044(13) -0.0031(14) 0.0373(10)
O38 0.0693(14) 0.0792(16) 0.085(2) -0.0041(16) -0.0194(16) 0.0416(11)
O39 0.175(4) 0.128(3) 0.155(4) -0.053(3) -0.031(4) 0.079(3)
O40 0.0545(12) 0.0515(11) 0.0768(17) 0.0068(13) -0.0212(12) 0.0309(8)
C1 0.0464(15) 0.0497(16) 0.068(2) -0.0038(17) -0.0083(17) 0.0294(11)
C2 0.091(2) 0.0662(18) 0.105(3) 0.004(2) -0.009(2) 0.0559(13)
C3 0.102(3) 0.100(3) 0.106(4) -0.005(3) 0.006(3) 0.058(2)
C4 0.083(3) 0.088(3) 0.096(3) -0.006(3) -0.007(3) 0.0462(19)
C5 0.076(2) 0.071(2) 0.072(3) 0.005(2) -0.026(2) 0.0259(18)
C6 0.095(3) 0.108(3) 0.095(3) 0.010(3) -0.001(3) 0.048(2)
C7 0.100(2) 0.086(2) 0.118(4) 0.012(3) -0.021(3) 0.0630(16)
C8 0.111(3) 0.093(3) 0.106(4) -0.024(3) -0.001(3) 0.057(2)
C9 0.136(4) 0.133(4) 0.127(4) 0.004(4) -0.005(4) 0.060(3)
C10 0.138(4) 0.125(4) 0.138(5) 0.009(4) 0.008(4) 0.074(3)
C11 0.099(3) 0.106(3) 0.100(3) -0.001(3) -0.020(3) 0.052(2)
C12 0.113(3) 0.133(4) 0.104(4) 0.005(3) -0.002(3) 0.064(3)
C13 0.080(2) 0.069(2) 0.106(3) -0.016(2) -0.015(2) 0.0432(16)
C14 0.0791(19) 0.0496(15) 0.067(2) -0.0015(17) -0.0085(19) 0.0454(12)
C15 0.114(3) 0.105(3) 0.124(4) 0.000(3) -0.005(3) 0.058(2)
C17 0.127(4) 0.124(4) 0.128(4) -0.008(3) -0.002(3) 0.069(3)
C18 0.155(4) 0.160(4) 0.155(5) 0.001(4) 0.005(4) 0.088(3)
C19 0.089(2) 0.070(2) 0.069(2) -0.006(2) 0.007(2) 0.0464(16)
C20 0.0560(18) 0.0534(18) 0.066(2) -0.0068(18) -0.0239(18) 0.0280(13)
C22 0.100(3) 0.084(2) 0.100(3) -0.003(3) -0.007(3) 0.0605(17)
C23 0.094(2) 0.0603(18) 0.078(3) -0.008(2) -0.012(2) 0.0487(14)
C24 0.090(3) 0.079(2) 0.100(3) 0.010(3) -0.001(3) 0.0474(18)
C25 0.089(2) 0.084(2) 0.077(3) -0.002(2) -0.012(2) 0.0577(15)
C26 0.131(4) 0.134(4) 0.111(4) 0.014(3) 0.000(3) 0.068(3)
C27 0.117(3) 0.099(3) 0.101(3) 0.031(3) -0.021(3) 0.056(2)
C28 0.116(3) 0.111(3) 0.130(4) -0.022(3) -0.011(3) 0.067(2)
C29 0.115(3) 0.100(3) 0.126(4) -0.006(3) 0.002(3) 0.066(2)
C30 0.153(5) 0.151(4) 0.159(5) -0.002(4) -0.002(4) 0.076(3)
C31 0.172(5) 0.170(5) 0.177(5) -0.011(4) 0.002(4) 0.090(3)
C32 0.108(3) 0.092(3) 0.107(4) -0.003(3) -0.004(3) 0.047(2)
C33 0.119(3) 0.106(3) 0.111(4) 0.014(3) -0.008(3) 0.069(2)
C34 0.100(3) 0.098(3) 0.097(3) 0.007(3) 0.016(3) 0.054(2)
C35 0.104(3) 0.106(3) 0.120(4) -0.012(3) 0.004(3) 0.061(2)
C36 0.096 0.099 0.107 0.011 -0.001 0.044
C37 0.107(3) 0.090(3) 0.118(4) -0.006(3) -0.022(3) 0.055(2)
C38 0.175(5) 0.184(5) 0.192(6) 0.005(4) -0.008(4) 0.105(3)
C39 0.104(2) 0.096(2) 0.131(4) -0.001(3) 0.005(3) 0.0795(14)
C40 0.0663(18) 0.083(2) 0.091(3) -0.010(2) -0.013(2) 0.0509(14)
C41 0.084(2) 0.063(2) 0.090(3) -0.010(2) -0.015(2) 0.0421(16)
C42 0.116(4) 0.117(4) 0.098(3) 0.002(3) -0.020(3) 0.055(3)
C43 0.090(2) 0.082(2) 0.099(3) -0.012(2) -0.013(2) 0.0584(15)
C44 0.0652(19) 0.078(2) 0.073(3) 0.010(2) 0.008(2) 0.0451(14)
C45 0.074(2) 0.0490(16) 0.062(2) 0.0241(16) 0.0093(19) 0.0366(13)
C46 0.068(2) 0.0500(19) 0.069(2) 0.0019(19) -0.012(2) 0.0246(15)
C47 0.079(2) 0.088(2) 0.090(3) -0.014(2) 0.000(2) 0.0474(17)
C48 0.091(2) 0.099(3) 0.099(3) 0.005(3) 0.005(3) 0.0623(17)
C16 0.0574(19) 0.066(2) 0.061(2) 0.000(2) -0.0148(19) 0.0287(15)
C21 0.0635(18) 0.0460(15) 0.064(2) 0.0035(17) -0.0047(18) 0.0351(11)
Li3 0.222(12) 0.213(11) 0.215(13) 0.002(9) 0.001(5) 0.106(5)
Li1 0.091(2) 0.0854(15) 0.0703(15) -0.0158(7) -0.0315(15) 0.0455(10)
loop_
_atom_type_symbol
_atom_type_description
_atom_type_scat_dispersion_real
_atom_type_scat_dispersion_imag
_atom_type_scat_source
C C 0.0181 0.0091 'International Tables Vol C Tables 4.2.6.8 and 6.1.1.4'
H H 0.0000 0.0000 'International Tables Vol C Tables 4.2.6.8 and 6.1.1.4'
K K 0.3868 1.0657 'International Tables Vol C Tables 4.2.6.8 and 6.1.1.4'
Li Li 0.0008 0.0003 'International Tables Vol C Tables 4.2.6.8 and 6.1.1.4'
O O 0.0492 0.0322 'International Tables Vol C Tables 4.2.6.8 and 6.1.1.4'
loop_
_geom_angle_atom_site_label_1
_geom_angle_atom_site_label_2
_geom_angle_atom_site_label_3
_geom_angle
_geom_angle_site_symmetry_1
_geom_angle_site_symmetry_3
O6 K1 O6 130.5(2) 18_655 .
O6 K1 O7 116.36(17) 18_655 .
O6 K1 O7 48.12(17) 18_655 18_655
O6 K1 O7 48.12(17) . .
O6 K1 O7 116.36(17) . 18_655
O6 K1 C16 61.25(13) 18_655 4_556
O6 K1 C16 61.25(13) . 14_654
O6 K1 C16 132.71(14) 18_655 14_654
O6 K1 C16 132.71(14) . 4_556
O7 K1 O7 149.0(3) 18_655 .
O7 K1 C16 84.72(15) 18_655 14_654
O7 K1 C16 102.57(14) 18_655 4_556
O7 K1 C16 102.58(14) . 14_654
O7 K1 C16 84.72(15) . 4_556
O13 K1 O6 128.78(14) 14_654 18_655
O13 K1 O6 81.76(13) 4_556 18_655
O13 K1 O6 128.79(14) 4_556 .
O13 K1 O6 81.77(13) 14_654 .
O13 K1 O7 83.88(16) 14_654 18_655
O13 K1 O7 83.88(16) 4_556 .
O13 K1 O7 114.48(14) 4_556 18_655
O13 K1 O7 114.49(14) 14_654 .
O13 K1 O13 109.5(2) 4_556 14_654
O13 K1 O14 71.70(19) 4_556 14_654
O13 K1 O14 59.58(18) 4_556 4_556
O13 K1 O14 71.69(19) 14_654 4_556
O13 K1 O14 59.57(18) 14_654 14_654
O13 K1 C16 130.27(17) 4_556 14_654
O13 K1 C16 130.27(17) 14_654 4_556
O13 K1 C16 23.35(11) 14_654 14_654
O13 K1 C16 23.34(11) 4_556 4_556
O14 K1 O6 141.3(2) 14_654 .
O14 K1 O6 79.4(2) 14_654 18_655
O14 K1 O6 79.4(2) 4_556 .
O14 K1 O6 141.3(2) 4_556 18_655
O14 K1 O7 61.4(2) 4_556 .
O14 K1 O7 61.4(2) 14_654 18_655
O14 K1 O7 149.1(2) 4_556 18_655
O14 K1 O7 149.1(2) 14_654 .
O14 K1 O14 89.3(4) 14_654 4_556
O14 K1 C16 80.24(18) 14_654 4_556
O14 K1 C16 80.47(17) 14_654 14_654
O14 K1 C16 80.24(18) 4_556 14_654
O14 K1 C16 80.47(17) 4_556 4_556
C16 K1 C16 152.8(2) 4_556 14_654
O3 K2 O4 58.59(13) 9_565 9_565
O3 K2 O16 82.77(12) 9_565 .
O3 K2 O17 122.08(13) 9_565 .
O3 K2 O33 107.12(12) 9_565 8_665
O3 K2 O34 68.11(12) 9_565 8_665
O3 K2 O36 149.15(11) 9_565 18_655
O3 K2 O37 91.26(10) 9_565 18_655
O3 K2 C4 22.21(14) 9_565 9_565
O3 K2 C45 105.28(11) 9_565 18_655
O3 K2 C21 100.28(12) 9_565 .
O4 K2 O16 137.09(11) 9_565 .
O4 K2 O34 85.85(12) 9_565 8_665
O4 K2 O36 97.50(11) 9_565 18_655
O4 K2 C4 79.98(14) 9_565 9_565
O4 K2 C45 65.66(11) 9_565 18_655
O4 K2 C21 153.22(12) 9_565 .
O16 K2 C4 60.59(13) . 9_565
O16 K2 C45 113.42(11) . 18_655
O16 K2 C21 41.02(9) . .
O17 K2 O4 158.56(14) . 9_565
O17 K2 O16 58.00(10) . .
O17 K2 O33 88.52(11) . 8_665
O17 K2 O34 75.94(13) . 8_665
O17 K2 O36 87.50(12) . 18_655
O17 K2 C4 104.75(14) . 9_565
O17 K2 C45 127.82(13) . 18_655
O17 K2 C21 22.88(11) . .
O33 K2 O4 72.00(11) 8_665 9_565
O33 K2 O16 143.56(10) 8_665 .
O33 K2 O34 57.68(12) 8_665 8_665
O33 K2 O36 79.88(12) 8_665 18_655
O33 K2 C4 123.73(14) 8_665 9_565
O33 K2 C45 97.99(11) 8_665 18_655
O33 K2 C21 102.65(10) 8_665 .
O34 K2 O16 97.07(11) 8_665 .
O34 K2 O36 134.21(13) 8_665 18_655
O34 K2 C4 72.80(14) 8_665 9_565
O34 K2 C45 148.08(11) 8_665 18_655
O34 K2 C21 69.97(10) 8_665 .
O36 K2 O16 109.78(11) 18_655 .
O36 K2 C4 152.89(13) 18_655 9_565
O36 K2 C45 44.00(9) 18_655 18_655
O36 K2 C21 107.51(10) 18_655 .
O37 K2 O4 71.79(11) 18_655 9_565
O37 K2 O16 92.95(10) 18_655 .
O37 K2 O17 127.85(13) 18_655 .
O37 K2 O33 121.06(11) 18_655 8_665
O37 K2 O34 155.56(11) 18_655 8_665
O37 K2 O36 60.87(10) 18_655 18_655
O37 K2 C4 93.18(13) 18_655 9_565
O37 K2 C45 23.86(11) 18_655 18_655
O37 K2 C21 129.00(11) 18_655 .
C4 K2 C21 81.93(13) 9_565 .
C45 K2 C4 113.42(13) 18_655 9_565
C45 K2 C21 140.52(11) 18_655 .
C2 O1 H1 109.5 . .
C3 O2 H2 109.5 . .
C4 O3 K2 110.0(3) . 14_654
C4 O3 C5 115.4(4) . .
C5 O3 K2 124.7(3) . 14_654
K2 O4 H4 33.8(13) 14_654 .
C6 O4 K2 118.0(4) . 14_654
C6 O4 H4 84.3(12) . .
C4 O5 C7 118.8(4) . .
K1 O6 H6 122.7(16) . .
C8 O6 K1 125.6(4) . .
C8 O6 H6 106.9(13) . .
K1 O7 H7 116.9(12) . .
C9 O7 K1 123.9(5) . .
C9 O7 H7 110.9(16) . .
C10 O8 C11 108.7(6) . .
C12 O9 H9 109.5 . .
C13 O10 C10 123.2(6) . .
C14 O11 H11 109.5 . .
C15 O12 H12 109.5 . .
C17 O13 K1 123.8(4) . 9_565
C16 O13 K1 106.9(3) . 9_565
C16 O13 C17 111.6(5) . .
K1 O14 H14 117(2) 9_565 .
C18 O14 K1 104.5(6) . 9_565
C18 O14 H14 111.4(19) . .
C16 O15 C19 118.6(4) . .
K2 O16 H16 93.7(11) . .
C20 O16 K2 115.8(2) . .
C20 O16 H16 130.9(17) . .
K2 O17 H17 141.0(9) . .
C21 O17 K2 109.7(3) . .
C21 O17 H17 109.0(10) . .
C22 O18 C23 116.0(4) . .
C24 O19 H19 109.5 . .
C25 O20 C22 113.5(4) . .
C26 O21 H21 109.5 . .
C27 O22 H22 109.5 . .
C28 O23 C29 114.6(6) . .
C30 O24 H24 109.5 . .
C28 O25 C31 112.4(7) . .
C32 O26 H26 109.5 . .
C33 O27 H27 109.5 . .
C35 O28 C34 96.0(6) . .
C36 O29 H29 109.5 . .
C34 O30 C37 145.4(9) . .
C38 O31 H31 109.5 . .
C39 O32 H32 114.8(17) . .
C40 O33 K2 112.6(3) . 15_564
C41 O33 K2 118.0(3) . 15_564
C41 O33 C40 110.9(4) . .
K2 O34 H34 142.4(9) 15_564 .
C42 O34 K2 114.7(3) . 15_564
C42 O34 H34 101.7(9) . .
C43 O35 C40 117.7(4) . .
K2 O36 H36 114.6(15) 18_655 .
C44 O36 K2 114.0(3) . 18_655
C44 O36 H36 104.3(11) . .
K2 O37 H37 104.8(16) 18_655 .
C45 O37 K2 105.3(2) . 18_655
C45 O37 H37 99.1(16) . .
C46 O38 C47 113.2(4) . .
C48 O39 H39 109.5 . .
C1 O40 C46 120.4(3) . .
O40 C1 H1A 110.9 . .
O40 C1 C2 105.3(3) . .
O40 C1 C5 110.1(4) . .
C2 C1 H1A 110.9 . .
C5 C1 H1A 110.9 . .
C5 C1 C2 108.5(4) . .
O1 C2 C1 111.9(4) . .
O1 C2 H2A 109.7 . .
O1 C2 C3 109.3(5) . .
C1 C2 H2A 109.7 . .
C3 C2 C1 106.6(4) . .
C3 C2 H2A 109.7 . .
O2 C3 C2 110.4(5) . .
O2 C3 H3 107.1 . .
O2 C3 C4 107.7(6) . .
C2 C3 H3 107.1 . .
C4 C3 C2 117.0(6) . .
C4 C3 H3 107.1 . .
K2 C4 H4A 75.1(10) 14_654 .
O3 C4 K2 47.8(2) . 14_654
O3 C4 O5 112.9(5) . .
O3 C4 C3 105.4(5) . .
O3 C4 H4A 116.1(9) . .
O5 C4 K2 156.9(4) . 14_654
O5 C4 C3 101.2(4) . .
O5 C4 H4A 111.7(12) . .
C3 C4 K2 97.1(4) . 14_654
C3 C4 H4A 108.1(12) . .
O3 C5 C1 101.9(4) . .
O3 C5 H5 113.8 . .
O3 C5 C6 103.7(4) . .
C1 C5 H5 113.8 . .
C1 C5 C6 108.6(4) . .
C6 C5 H5 113.8 . .
O4 C6 C5 113.6(5) . .
O4 C6 H6A 108.9 . .
O4 C6 H6B 108.9 . .
C5 C6 H6A 108.9 . .
C5 C6 H6B 108.9 . .
H6A C6 H6B 107.7 . .
O5 C7 H7A 102.3 . .
O5 C7 C8 120.6(5) . .
O5 C7 C11 111.4(5) . .
C8 C7 H7A 102.3 . .
C8 C7 C11 114.7(5) . .
C11 C7 H7A 102.3 . .
O6 C8 C7 113.7(5) . .
O6 C8 H8 104.7 . .
O6 C8 C9 111.0(6) . .
C7 C8 H8 104.7 . .
C7 C8 C9 116.7(6) . .
C9 C8 H8 104.7 . .
O7 C9 C8 100.0(6) . .
O7 C9 H9A 111.8 . .
O7 C9 C10 119.7(7) . .
C8 C9 H9A 111.8 . .
C10 C9 C8 100.3(8) . .
C10 C9 H9A 111.8 . .
O8 C10 O10 113.0(7) . .
O8 C10 C9 118.7(7) . .
O8 C10 H10 103.9 . .
O10 C10 C9 111.5(6) . .
O10 C10 H10 103.9 . .
C9 C10 H10 103.9 . .
O8 C11 C7 108.3(6) . .
O8 C11 H11A 108.8 . .
O8 C11 C12 109.0(6) . .
C7 C11 H11A 108.8 . .
C12 C11 C7 113.2(6) . .
C12 C11 H11A 108.8 . .
O9 C12 C11 112.9(7) . .
O9 C12 H12A 109.0 . .
O9 C12 H12B 109.0 . .
C11 C12 H12A 109.0 . .
C11 C12 H12B 109.0 . .
H12A C12 H12B 107.8 . .
O10 C13 H13 109.5 . .
O10 C13 C14 108.1(5) . .
O10 C13 C17 106.4(5) . .
C14 C13 H13 109.5 . .
C17 C13 H13 109.5 . .
C17 C13 C14 113.9(5) . .
O11 C14 C13 108.3(4) . .
O11 C14 H14A 111.0 . .
O11 C14 C15 111.2(5) . .
C13 C14 H14A 111.0 . .
C15 C14 C13 104.1(4) . .
C15 C14 H14A 111.0 . .
O12 C15 C14 110.5(6) . .
O12 C15 H15 111.3 . .
O12 C15 C16 105.6(6) . .
C14 C15 H15 111.3 . .
C16 C15 C14 106.7(6) . .
C16 C15 H15 111.3 . .
O13 C17 C13 106.4(6) . .
O13 C17 H17A 111.6 . .
O13 C17 C18 98.4(7) . .
C13 C17 H17A 111.6 . .
C18 C17 C13 116.3(7) . .
C18 C17 H17A 111.6 . .
O14 C18 C17 118.1(9) . .
O14 C18 H18A 107.8 . .
O14 C18 H18B 107.8 . .
C17 C18 H18A 107.8 . .
C17 C18 H18B 107.8 . .
H18A C18 H18B 107.1 . .
O15 C19 H19A 110.7 . .
O15 C19 C20 106.7(4) . .
O15 C19 C23 110.1(4) . .
C20 C19 H19A 110.7 . .
C20 C19 C23 107.8(4) . .
C23 C19 H19A 110.7 . .
O16 C20 C19 108.5(4) . .
O16 C20 H20 111.4 . .
O16 C20 C21 105.5(3) . .
C19 C20 H20 111.4 . .
C21 C20 C19 108.4(4) . .
C21 C20 H20 111.4 . .
O18 C22 O20 106.7(4) . .
O18 C22 H22A 109.6 . .
O18 C22 C21 109.2(4) . .
O20 C22 H22A 109.6 . .
O20 C22 C21 112.0(5) . .
C21 C22 H22A 109.6 . .
O18 C23 C19 109.3(4) . .
O18 C23 H23 108.2 . .
O18 C23 C24 111.1(5) . .
C19 C23 H23 108.2 . .
C24 C23 C19 111.8(4) . .
C24 C23 H23 108.2 . .
O19 C24 C23 108.6(4) . .
O19 C24 H24A 110.0 . .
O19 C24 H24B 110.0 . .
C23 C24 H24A 110.0 . .
C23 C24 H24B 110.0 . .
H24A C24 H24B 108.3 . .
O20 C25 H25 107.8 . .
O20 C25 C26 100.8(5) . .
O20 C25 C29 113.1(4) . .
C26 C25 H25 107.8 . .
C29 C25 H25 107.8 . .
C29 C25 C26 118.8(6) . .
O21 C26 C25 123.0(7) . .
O21 C26 H26A 105.4 . .
O21 C26 C27 114.7(6) . .
C25 C26 H26A 105.4 . .
C25 C26 C27 101.5(6) . .
C27 C26 H26A 105.4 . .
O22 C27 C26 105.0(7) . .
O22 C27 H27A 108.6 . .
O22 C27 C28 107.4(6) . .
C26 C27 H27A 108.6 . .
C28 C27 C26 118.2(6) . .
C28 C27 H27A 108.6 . .
O23 C28 O25 117.9(6) . .
O23 C28 C27 102.1(6) . .
O23 C28 H28 106.4 . .
O25 C28 C27 116.8(6) . .
O25 C28 H28 106.4 . .
C27 C28 H28 106.4 . .
O23 C29 C25 106.0(5) . .
O23 C29 H29A 106.6 . .
O23 C29 C30 108.2(7) . .
C25 C29 H29A 106.6 . .
C30 C29 C25 122.0(8) . .
C30 C29 H29A 106.6 . .
O24 C30 C29 108.6(7) . .
O24 C30 H30A 110.0 . .
O24 C30 H30B 110.0 . .
C29 C30 H30A 110.0 . .
C29 C30 H30B 110.0 . .
H30A C30 H30B 108.4 . .
O25 C31 H31A 111.4 . .
O25 C31 C32 91.4(7) . .
O25 C31 C35 114.0(9) . .
C32 C31 H31A 111.4 . .
C35 C31 H31A 111.4 . .
C35 C31 C32 115.7(9) . .
O26 C32 C31 122.4(6) . .
O26 C32 H32A 108.6 . .
O26 C32 C33 103.9(6) . .
C31 C32 H32A 108.6 . .
C31 C32 C33 104.0(6) . .
C33 C32 H32A 108.6 . .
O27 C33 C32 98.1(6) . .
O27 C33 H33 111.5 . .
O27 C33 C34 115.3(5) . .
C32 C33 H33 111.5 . .
C34 C33 C32 108.3(5) . .
C34 C33 H33 111.5 . .
O28 C34 C33 118.0(5) . .
O28 C34 H34A 97.1 . .
O30 C34 O28 130.4(6) . .
O30 C34 C33 106.9(5) . .
O30 C34 H34A 97.1 . .
C33 C34 H34A 97.1 . .
O28 C35 H35 107.4 . .
C31 C35 O28 119.5(8) . .
C31 C35 H35 107.4 . .
C36 C35 O28 108.7(6) . .
C36 C35 C31 105.9(7) . .
C36 C35 H35 107.4 . .
O29 C36 C35 114.3(6) . .
O29 C36 H36A 108.7 . .
O29 C36 H36B 108.7 . .
C35 C36 H36A 108.7 . .
C35 C36 H36B 108.7 . .
H36A C36 H36B 107.6 . .
O30 C37 H37A 102.8 . .
O30 C37 C38 130.1(7) . .
O30 C37 C41 96.9(6) . .
C38 C37 H37A 102.8 . .
C38 C37 C41 117.9(7) . .
C41 C37 H37A 102.8 . .
O31 C38 C37 133.9(10) . .
O31 C38 H38 103.3 . .
O31 C38 C39 100.0(7) . .
C37 C38 H38 103.3 . .
C37 C38 C39 109.6(8) . .
C39 C38 H38 103.3 . .
O32 C39 C38 119.2(7) . .
O32 C39 H39A 101.5 . .
O32 C39 C40 109.4(5) . .
C38 C39 H39A 101.5 . .
C40 C39 C38 119.7(7) . .
C40 C39 H39A 101.5 . .
O33 C40 C39 111.8(4) . .
O33 C40 H40 107.8 . .
O35 C40 O33 116.5(4) . .
O35 C40 C39 105.0(4) . .
O35 C40 H40 107.8 . .
C39 C40 H40 107.8 . .
O33 C41 C37 114.2(5) . .
O33 C41 H41 105.9 . .
O33 C41 C42 102.5(4) . .
C37 C41 H41 105.9 . .
C42 C41 C37 121.2(5) . .
C42 C41 H41 105.9 . .
O34 C42 C41 103.9(5) . .
O34 C42 H42A 111.0 . .
O34 C42 H42B 111.0 . .
C41 C42 H42A 111.0 . .
C41 C42 H42B 111.0 . .
H42A C42 H42B 109.0 . .
O35 C43 H43 110.2 . .
O35 C43 C44 107.9(4) . .
O35 C43 C47 109.3(5) . .
C44 C43 H43 110.2 . .
C44 C43 C47 109.0(5) . .
C47 C43 H43 110.2 . .
O36 C44 C43 108.7(4) . .
O36 C44 H44 110.6 . .
O36 C44 C45 109.2(4) . .
C43 C44 H44 110.6 . .
C43 C44 C45 107.0(4) . .
C45 C44 H44 110.6 . .
K2 C45 H45 79.6(11) 18_655 .
O37 C45 K2 50.85(18) . 18_655
O37 C45 C44 108.2(3) . .
O37 C45 H45 115.1(13) . .
O37 C45 C46 108.3(4) . .
C44 C45 K2 88.2(2) . 18_655
C44 C45 H45 108.9(13) . .
C46 C45 K2 157.7(3) . 18_655
C46 C45 C44 108.5(4) . .
C46 C45 H45 107.6(11) . .
O38 C46 O40 107.8(4) . .
O38 C46 C45 110.7(4) . .
O38 C46 H46 108.8 . .
O40 C46 C45 111.9(4) . .
O40 C46 H46 108.8 . .
C45 C46 H46 108.8 . .
O38 C47 C43 109.4(5) . .
O38 C47 H47 108.9 . .
O38 C47 C48 101.0(4) . .
C43 C47 H47 108.9 . .
C48 C47 C43 119.2(5) . .
C48 C47 H47 108.9 . .
O39 C48 C47 110.7(5) . .
O39 C48 H48A 109.5 . .
O39 C48 H48B 109.5 . .
C47 C48 H48A 109.5 . .
C47 C48 H48B 109.5 . .
H48A C48 H48B 108.1 . .
K1 C16 H16A 67.6(12) 9_565 .
O13 C16 K1 49.8(2) . 9_565
O13 C16 O15 112.9(4) . .
O13 C16 C15 113.5(4) . .
O13 C16 H16A 106.9(11) . .
O15 C16 K1 153.2(3) . 9_565
O15 C16 C15 113.1(5) . .
O15 C16 H16A 106.6(13) . .
C15 C16 K1 93.7(4) . 9_565
C15 C16 H16A 103.0(13) . .
K2 C21 H21A 78.4(11) . .
O17 C21 K2 47.4(2) . .
O17 C21 C20 109.1(4) . .
O17 C21 C22 109.1(4) . .
O17 C21 H21A 112.5(11) . .
C20 C21 K2 90.8(2) . .
C20 C21 H21A 108.2(13) . .
C22 C21 K2 154.3(3) . .
C22 C21 C20 109.5(4) . .
C22 C21 H21A 108.4(13) . .
loop_
_geom_bond_atom_site_label_1
_geom_bond_atom_site_label_2
_geom_bond_distance
_geom_bond_site_symmetry_2
K1 O6 3.210(6) .
K1 O6 3.210(6) 18_655
K1 O7 3.329(8) .
K1 O7 3.329(9) 18_655
K1 O13 2.738(5) 14_654
K1 O13 2.738(5) 4_556
K1 O14 2.947(9) 4_556
K1 O14 2.947(9) 14_654
K1 C16 3.431(5) 14_654
K1 C16 3.431(5) 4_556
K2 O3 2.732(4) 9_565
K2 O4 2.794(6) 9_565
K2 O16 3.015(3) .
K2 O17 2.753(5) .
K2 O33 2.766(4) 8_665
K2 O34 2.806(5) 8_665
K2 O36 2.879(4) 18_655
K2 O37 2.746(3) 18_655
K2 C4 3.467(6) 9_565
K2 C45 3.415(4) 18_655
K2 C21 3.520(4) .
O1 H1 0.8400 .
O1 C2 1.411(8) .
O2 H2 0.8400 .
O2 C3 1.423(9) .
O3 K2 2.732(4) 14_654
O3 C4 1.395(7) .
O3 C5 1.458(7) .
O4 K2 2.795(6) 14_654
O4 H4 0.914(11) .
O4 C6 1.458(5) .
O5 C4 1.446(7) .
O5 C7 1.457(7) .
O6 H6 0.880(11) .
O6 C8 1.449(9) .
O7 H7 0.917(11) .
O7 C9 1.472(10) .
O8 C10 1.374(10) .
O8 C11 1.413(9) .
O9 H9 0.8400 .
O9 C12 1.434(5) .
O10 C10 1.452(9) .
O10 C13 1.442(7) .
O11 H11 0.8400 .
O11 C14 1.426(7) .
O12 H12 0.8400 .
O12 C15 1.426(8) .
O13 K1 2.738(5) 9_565
O13 C17 1.420(9) .
O13 C16 1.420(5) .
O14 K1 2.946(9) 9_565
O14 H14 0.83(2) .
O14 C18 1.427(14) .
O15 C19 1.436(6) .
O15 C16 1.424(6) .
O16 H16 0.847(19) .
O16 C20 1.422(6) .
O17 H17 0.888(13) .
O17 C21 1.454(5) .
O18 C22 1.391(6) .
O18 C23 1.401(6) .
O19 H19 0.8400 .
O19 C24 1.447(6) .
O20 C22 1.432(7) .
O20 C25 1.422(7) .
O21 H21 0.8400 .
O21 C26 1.415(10) .
O22 H22 0.8400 .
O22 C27 1.433(10) .
O23 C28 1.398(9) .
O23 C29 1.420(9) .
O24 H24 0.8400 .
O24 C30 1.447(6) .
O25 C28 1.415(8) .
O25 C31 1.434(13) .
O26 H26 0.8400 .
O26 C32 1.422(8) .
O27 H27 0.8400 .
O27 C33 1.450(9) .
O28 C34 1.461(9) .
O28 C35 1.449(11) .
O29 H29 0.8400 .
O29 C36 1.433(6) .
O30 C34 1.434(10) .
O30 C37 1.474(11) .
O31 H31 0.8400 .
O31 C38 1.454(11) .
O32 H32 0.827(15) .
O32 C39 1.445(10) .
O33 K2 2.766(4) 15_564
O33 C40 1.451(7) .
O33 C41 1.400(7) .
O34 K2 2.806(5) 15_564
O34 H34 0.902(9) .
O34 C42 1.454(5) .
O35 C40 1.420(6) .
O35 C43 1.393(6) .
O36 K2 2.879(4) 18_655
O36 H36 0.961(12) .
O36 C44 1.427(6) .
O37 K2 2.746(3) 18_655
O37 H37 0.960(12) .
O37 C45 1.432(6) .
O38 C46 1.418(7) .
O38 C47 1.423(6) .
O39 H39 0.8400 .
O39 C48 1.432(6) .
O40 C1 1.417(5) .
O40 C46 1.423(6) .
C1 H1A 1.0000 .
C1 C2 1.520(6) .
C1 C5 1.504(7) .
C2 H2A 1.0000 .
C2 C3 1.509(8) .
C3 H3 1.0000 .
C3 C4 1.486(9) .
C4 K2 3.467(6) 14_654
C4 H4A 0.924(11) .
C5 H5 1.0000 .
C5 C6 1.507(8) .
C6 H6A 0.9900 .
C6 H6B 0.9900 .
C7 H7A 1.0000 .
C7 C8 1.487(9) .
C7 C11 1.528(10) .
C8 H8 1.0000 .
C8 C9 1.506(11) .
C9 H9A 1.0000 .
C9 C10 1.501(13) .
C10 H10 1.0000 .
C11 H11A 1.0000 .
C11 C12 1.493(10) .
C12 H12A 0.9900 .
C12 H12B 0.9900 .
C13 H13 1.0000 .
C13 C14 1.558(6) .
C13 C17 1.529(11) .
C14 H14A 1.0000 .
C14 C15 1.505(9) .
C15 H15 1.0000 .
C15 C16 1.495(10) .
C17 H17A 1.0000 .
C17 C18 1.507(11) .
C18 H18A 0.9900 .
C18 H18B 0.9900 .
C19 H19A 1.0000 .
C19 C20 1.527(6) .
C19 C23 1.527(8) .
C20 H20 1.0000 .
C20 C21 1.514(6) .
C22 H22A 1.0000 .
C22 C21 1.513(8) .
C23 H23 1.0000 .
C23 C24 1.518(7) .
C24 H24A 0.9900 .
C24 H24B 0.9900 .
C25 H25 1.0000 .
C25 C26 1.547(9) .
C25 C29 1.514(9) .
C26 H26A 1.0000 .
C26 C27 1.558(12) .
C27 H27A 1.0000 .
C27 C28 1.519(10) .
C28 H28 1.0000 .
C29 H29A 1.0000 .
C29 C30 1.447(10) .
C30 H30A 0.9900 .
C30 H30B 0.9900 .
C31 H31A 1.0000 .
C31 C32 1.510(12) .
C31 C35 1.450(11) .
C32 H32A 1.0000 .
C32 C33 1.520(9) .
C33 H33 1.0000 .
C33 C34 1.481(7) .
C34 H34A 1.0000 .
C35 H35 1.0000 .
C35 C36 1.440(9) .
C36 H36A 0.9900 .
C36 H36B 0.9900 .
C37 H37A 1.0000 .
C37 C38 1.478(13) .
C37 C41 1.506(7) .
C38 H38 1.0000 .
C38 C39 1.500(12) .
C39 H39A 1.0000 .
C39 C40 1.486(7) .
C40 H40 1.0000 .
C41 H41 1.0000 .
C41 C42 1.501(9) .
C42 H42A 0.9900 .
C42 H42B 0.9900 .
C43 H43 1.0000 .
C43 C44 1.516(8) .
C43 C47 1.535(8) .
C44 H44 1.0000 .
C44 C45 1.529(6) .
C45 K2 3.415(4) 18_655
C45 H45 0.928(15) .
C45 C46 1.515(6) .
C46 H46 1.0000 .
C47 H47 1.0000 .
C47 C48 1.505(8) .
C48 H48A 0.9900 .
C48 H48B 0.9900 .
C16 K1 3.431(5) 9_565
C16 H16A 1.029(14) .
C21 H21A 0.943(15) .
loop_
_geom_torsion_atom_site_label_1
_geom_torsion_atom_site_label_2
_geom_torsion_atom_site_label_3
_geom_torsion_atom_site_label_4
_geom_torsion
_geom_torsion_site_symmetry_1
_geom_torsion_site_symmetry_4
K1 O6 C8 C7 178.4(4) . .
K1 O6 C8 C9 -47.7(7) . .
K1 O7 C9 C8 -53.3(8) . .
K1 O7 C9 C10 -161.3(6) . .
K1 O13 C17 C13 -73.1(6) 9_565 .
K1 O13 C17 C18 47.5(8) 9_565 .
K1 O13 C16 O15 -155.7(3) 9_565 .
K1 O13 C16 C15 73.9(5) 9_565 .
K1 O14 C18 C17 55.2(10) 9_565 .
K2 O3 C4 O5 -164.8(3) 14_654 .
K2 O3 C4 C3 85.6(4) 14_654 .
K2 O3 C5 C1 -69.5(4) 14_654 .
K2 O3 C5 C6 43.3(5) 14_654 .
K2 O4 C6 C5 39.6(6) 14_654 .
K2 O16 C20 C19 -144.6(3) . .
K2 O16 C20 C21 -28.6(4) . .
K2 O17 C21 C20 -72.7(4) . .
K2 O17 C21 C22 167.8(3) . .
K2 O33 C40 O35 -160.0(3) 15_564 .
K2 O33 C40 C39 79.3(5) 15_564 .
K2 O33 C41 C37 -75.6(6) 15_564 .
K2 O33 C41 C42 57.4(4) 15_564 .
K2 O34 C42 C41 54.6(4) 15_564 .
K2 O36 C44 C43 -140.1(3) 18_655 .
K2 O36 C44 C45 -23.7(5) 18_655 .
K2 O37 C45 C44 -71.8(3) 18_655 .
K2 O37 C45 C46 170.7(3) 18_655 .
K2 C45 C46 O38 -164.2(6) 18_655 .
K2 C45 C46 O40 75.5(8) 18_655 .
O1 C2 C3 O2 65.1(7) . .
O1 C2 C3 C4 -171.2(5) . .
O2 C3 C4 K2 -137.3(4) . 14_654
O2 C3 C4 O3 174.6(5) . .
O2 C3 C4 O5 56.9(6) . .
O3 C5 C6 O4 -50.4(6) . .
O5 C7 C8 O6 -46.4(8) . .
O5 C7 C8 C9 -177.6(6) . .
O5 C7 C11 O8 171.9(4) . .
O5 C7 C11 C12 51.0(7) . .
O6 C8 C9 O7 59.2(7) . .
O6 C8 C9 C10 -177.9(5) . .
O7 C9 C10 O8 169.5(8) . .
O7 C9 C10 O10 35.5(12) . .
O8 C11 C12 O9 -50.3(9) . .
O10 C13 C14 O11 -63.9(5) . .
O10 C13 C14 C15 177.7(5) . .
O10 C13 C17 O13 -176.8(5) . .
O10 C13 C17 C18 74.8(9) . .
O11 C14 C15 O12 71.0(7) . .
O11 C14 C15 C16 -174.7(4) . .
O12 C15 C16 K1 -130.5(5) . 9_565
O12 C15 C16 O13 -177.8(5) . .
O12 C15 C16 O15 51.9(7) . .
O13 C17 C18 O14 -69.3(10) . .
O15 C19 C20 O16 -69.4(5) . .
O15 C19 C20 C21 176.5(4) . .
O15 C19 C23 O18 -173.7(4) . .
O15 C19 C23 C24 62.9(6) . .
O16 C20 C21 K2 21.7(3) . .
O16 C20 C21 O17 66.3(4) . .
O16 C20 C21 C22 -174.4(4) . .
O18 C22 C21 K2 -162.7(5) . .
O18 C22 C21 O17 176.2(4) . .
O18 C22 C21 C20 56.9(6) . .
O18 C23 C24 O19 -62.4(7) . .
O20 C22 C21 K2 79.4(9) . .
O20 C22 C21 O17 58.3(5) . .
O20 C22 C21 C20 -61.0(5) . .
O20 C25 C26 O21 -62.3(8) . .
O20 C25 C26 C27 168.0(5) . .
O20 C25 C29 O23 -170.6(5) . .
O20 C25 C29 C30 65.1(9) . .
O21 C26 C27 O22 56.3(9) . .
O21 C26 C27 C28 176.0(7) . .
O22 C27 C28 O23 -179.5(6) . .
O22 C27 C28 O25 50.4(9) . .
O23 C29 C30 O24 -63.6(11) . .
O25 C31 C32 O26 -78.4(9) . .
O25 C31 C32 C33 164.8(6) . .
O25 C31 C35 O28 -160.7(8) . .
O25 C31 C35 C36 76.3(10) . .
O26 C32 C33 O27 59.9(6) . .
O26 C32 C33 C34 180.0(2) . .
O27 C33 C34 O28 179.3(7) . .
O27 C33 C34 O30 21.0(9) . .
O28 C35 C36 O29 -29.5(8) . .
O30 C37 C38 O31 -72.0(17) . .
O30 C37 C38 C39 161.2(8) . .
O30 C37 C41 O33 170.2(6) . .
O30 C37 C41 C42 46.8(8) . .
O31 C38 C39 O32 42.8(11) . .
O31 C38 C39 C40 -177.9(6) . .
O32 C39 C40 O33 -171.1(6) . .
O32 C39 C40 O35 61.7(7) . .
O33 C41 C42 O34 -70.8(5) . .
O35 C43 C44 O36 -63.7(6) . .
O35 C43 C44 C45 178.6(4) . .
O35 C43 C47 O38 -177.1(4) . .
O35 C43 C47 C48 67.4(6) . .
O36 C44 C45 K2 18.0(4) . 18_655
O36 C44 C45 O37 65.5(5) . .
O36 C44 C45 C46 -177.1(4) . .
O37 C45 C46 O38 176.6(3) . .
O37 C45 C46 O40 56.4(5) . .
O38 C47 C48 O39 -72.3(5) . .
O40 C1 C2 O1 -64.5(5) . .
O40 C1 C2 C3 176.1(5) . .
O40 C1 C5 O3 178.3(3) . .
O40 C1 C5 C6 69.2(5) . .
C1 O40 C46 O38 120.3(4) . .
C1 O40 C46 C45 -117.8(4) . .
C1 C2 C3 O2 -173.8(5) . .
C1 C2 C3 C4 -50.2(7) . .
C1 C5 C6 O4 57.4(6) . .
C2 C1 C5 O3 -67.0(4) . .
C2 C1 C5 C6 -176.1(4) . .
C2 C3 C4 K2 97.7(5) . 14_654
C2 C3 C4 O3 49.6(7) . .
C2 C3 C4 O5 -68.1(7) . .
C4 O3 C5 C1 72.7(5) . .
C4 O3 C5 C6 -174.5(4) . .
C4 O5 C7 C8 96.1(6) . .
C4 O5 C7 C11 -125.2(5) . .
C5 O3 C4 K2 -147.6(5) . 14_654
C5 O3 C4 O5 47.6(6) . .
C5 O3 C4 C3 -62.0(6) . .
C5 C1 C2 O1 177.7(4) . .
C5 C1 C2 C3 58.3(6) . .
C7 O5 C4 K2 87.9(11) . 14_654
C7 O5 C4 O3 117.5(5) . .
C7 O5 C4 C3 -130.3(5) . .
C7 C8 C9 O7 -168.3(6) . .
C7 C8 C9 C10 -45.4(8) . .
C7 C11 C12 O9 70.3(8) . .
C8 C7 C11 O8 -46.7(7) . .
C8 C7 C11 C12 -167.7(5) . .
C8 C9 C10 O8 61.7(9) . .
C8 C9 C10 O10 -72.3(8) . .
C10 O8 C11 C7 56.6(7) . .
C10 O8 C11 C12 -179.9(6) . .
C10 O10 C13 C14 135.1(6) . .
C10 O10 C13 C17 -102.2(7) . .
C11 O8 C10 O10 61.0(9) . .
C11 O8 C10 C9 -72.2(9) . .
C11 C7 C8 O6 176.1(5) . .
C11 C7 C8 C9 44.9(8) . .
C13 O10 C10 O8 121.9(7) . .
C13 O10 C10 C9 -101.4(8) . .
C13 C14 C15 O12 -172.6(5) . .
C13 C14 C15 C16 -58.2(6) . .
C13 C17 C18 O14 43.7(12) . .
C14 C13 C17 O13 -57.9(8) . .
C14 C13 C17 C18 -166.3(7) . .
C14 C15 C16 K1 111.9(4) . 9_565
C14 C15 C16 O13 64.6(6) . .
C14 C15 C16 O15 -65.7(5) . .
C17 O13 C16 K1 -138.2(6) . 9_565
C17 O13 C16 O15 66.1(6) . .
C17 O13 C16 C15 -64.3(7) . .
C17 C13 C14 O11 178.2(6) . .
C17 C13 C14 C15 59.7(7) . .
C19 O15 C16 K1 59.9(7) . 9_565
C19 O15 C16 O13 104.0(4) . .
C19 O15 C16 C15 -125.4(5) . .
C19 C20 C21 K2 137.7(3) . .
C19 C20 C21 O17 -177.7(4) . .
C19 C20 C21 C22 -58.3(5) . .
C19 C23 C24 O19 59.9(6) . .
C20 C19 C23 O18 -57.7(5) . .
C20 C19 C23 C24 178.9(4) . .
C22 O18 C23 C19 60.9(6) . .
C22 O18 C23 C24 -175.3(5) . .
C22 O20 C25 C26 121.7(5) . .
C22 O20 C25 C29 -110.3(6) . .
C23 O18 C22 O20 61.3(6) . .
C23 O18 C22 C21 -59.9(6) . .
C23 C19 C20 O16 172.4(4) . .
C23 C19 C20 C21 58.3(5) . .
C25 O20 C22 O18 112.1(5) . .
C25 O20 C22 C21 -128.5(4) . .
C25 C26 C27 O22 -169.0(6) . .
C25 C26 C27 C28 -49.3(8) . .
C25 C29 C30 O24 59.7(12) . .
C26 C25 C29 O23 -52.8(8) . .
C26 C25 C29 C30 -177.0(7) . .
C26 C27 C28 O23 62.1(8) . .
C26 C27 C28 O25 -68.1(9) . .
C28 O23 C29 C25 66.6(7) . .
C28 O23 C29 C30 -160.9(6) . .
C28 O25 C31 C32 104.4(7) . .
C28 O25 C31 C35 -136.5(8) . .
C29 O23 C28 O25 59.8(9) . .
C29 O23 C28 C27 -69.7(7) . .
C29 C25 C26 O21 173.7(7) . .
C29 C25 C26 C27 43.9(7) . .
C31 O25 C28 O23 94.4(9) . .
C31 O25 C28 C27 -143.4(7) . .
C31 C32 C33 O27 -171.0(7) . .
C31 C32 C33 C34 -50.9(8) . .
C31 C35 C36 O29 100.1(8) . .
C32 C31 C35 O28 -56.6(13) . .
C32 C31 C35 C36 -179.6(8) . .
C32 C33 C34 O28 70.7(8) . .
C32 C33 C34 O30 -87.7(7) . .
C34 O28 C35 C31 56.6(10) . .
C34 O28 C35 C36 178.1(6) . .
C34 O30 C37 C38 139.9(12) . .
C34 O30 C37 C41 -84.2(12) . .
C35 O28 C34 O30 87.0(9) . .
C35 O28 C34 C33 -65.4(8) . .
C35 C31 C32 O26 164.0(8) . .
C35 C31 C32 C33 47.1(11) . .
C37 O30 C34 O28 105.8(13) . .
C37 O30 C34 C33 -99.6(12) . .
C37 C38 C39 O32 -173.0(8) . .
C37 C38 C39 C40 -33.8(12) . .
C37 C41 C42 O34 58.0(7) . .
C38 C37 C41 O33 -46.8(10) . .
C38 C37 C41 C42 -170.2(8) . .
C38 C39 C40 O33 46.0(9) . .
C38 C39 C40 O35 -81.1(8) . .
C40 O33 C41 C37 56.4(6) . .
C40 O33 C41 C42 -170.6(4) . .
C40 O35 C43 C44 126.8(5) . .
C40 O35 C43 C47 -114.8(5) . .
C41 O33 C40 O35 65.3(5) . .
C41 O33 C40 C39 -55.3(6) . .
C41 C37 C38 O31 159.4(10) . .
C41 C37 C38 C39 32.6(12) . .
C43 O35 C40 O33 102.2(5) . .
C43 O35 C40 C39 -133.6(5) . .
C43 C44 C45 K2 135.5(4) . 18_655
C43 C44 C45 O37 -177.0(4) . .
C43 C44 C45 C46 -59.7(5) . .
C43 C47 C48 O39 47.6(7) . .
C44 C43 C47 O38 -59.4(6) . .
C44 C43 C47 C48 -174.9(5) . .
C44 C45 C46 O38 59.3(5) . .
C44 C45 C46 O40 -60.9(5) . .
C46 O38 C47 C43 59.3(6) . .
C46 O38 C47 C48 -174.1(4) . .
C46 O40 C1 C2 133.7(4) . .
C46 O40 C1 C5 -109.5(4) . .
C47 O38 C46 O40 62.7(5) . .
C47 O38 C46 C45 -60.0(5) . .
C47 C43 C44 O36 177.8(4) . .
C47 C43 C44 C45 60.0(5) . .
C16 O13 C17 C13 56.8(7) . .
C16 O13 C17 C18 177.4(6) . .
C16 O15 C19 C20 121.8(4) . .
C16 O15 C19 C23 -121.4(4) . .
loop_
_smtbx_masks_void_nr
_smtbx_masks_void_average_x
_smtbx_masks_void_average_y
_smtbx_masks_void_average_z
_smtbx_masks_void_volume
_smtbx_masks_void_count_electrons
1 -0.646 -0.127 -0.870 22829.1 8503.5
loop_
_twin_individual_id
_twin_individual_mass_fraction_refined
1 0.724(19)
2 0.276(19)
