#------------------------------------------------------------------------------
#$Date: 2019-11-25 22:32:00 +0200 (Mon, 25 Nov 2019) $
#$Revision: 241968 $
#$URL: file:///home/coder/svn-repositories/cod/cif/4/13/18/4131855.cif $
#------------------------------------------------------------------------------
#
# This file is available in the Crystallography Open Database (COD),
# http://www.crystallography.net/
#
# All data on this site have been placed in the public domain by the
# contributors.
#
data_4131855
loop_
_publ_author_name
'Yan, Yong'
'O'Connor, Alice E'
'Kanthasamy, Gopikkaa'
'Atkinson, George'
'Allan, David R.'
'Blake, Alexander J.'
'Schr\"oder, Martin'
_publ_section_title
;
 Unusual and Tunable Negative Linear Compressibility in the Metal-Organic
 Framework MFM-133(M) (M = Zr, Hf).
;
_journal_issue                   11
_journal_name_full               'Journal of the American Chemical Society'
_journal_page_first              3952
_journal_page_last               3958
_journal_paper_doi               10.1021/jacs.7b11747
_journal_volume                  140
_journal_year                    2018
_chemical_formula_moiety         '0.25(C184 H136 O64 Zr12)'
_chemical_formula_sum            'C46 H34 O16 Zr3'
_chemical_formula_weight         1116.39
_space_group_crystal_system      tetragonal
_space_group_IT_number           128
_space_group_name_Hall           '-P 4 2n'
_space_group_name_H-M_alt        'P 4/m n c'
_atom_sites_solution_hydrogens   geom
_atom_sites_solution_primary     direct
_audit_creation_date             2016-08-31
_audit_creation_method
;
Olex2 1.2
(compiled 2016.08.25 svn.r3337 for OlexSys, GUI svn.r5221)
;
_cell_angle_alpha                90
_cell_angle_beta                 90
_cell_angle_gamma                90
_cell_formula_units_Z            4
_cell_length_a                   19.0765(14)
_cell_length_b                   19.0765(14)
_cell_length_c                   33.061(5)
_cell_measurement_reflns_used    1957
_cell_measurement_temperature    293.15
_cell_measurement_theta_max      22.4590
_cell_measurement_theta_min      2.0590
_cell_volume                     12031(2)
_computing_cell_refinement
;
CrysAlisPro, Agilent Technologies,
Version 1.171.37.34 (release 22-05-2014 CrysAlis171 .NET)
(compiled May 22 2014,16:03:01)
;
_computing_data_collection
;
CrysAlisPro, Agilent Technologies,
Version 1.171.37.34 (release 22-05-2014 CrysAlis171 .NET)
(compiled May 22 2014,16:03:01)
;
_computing_data_reduction
;
CrysAlisPro, Agilent Technologies,
Version 1.171.37.34 (release 22-05-2014 CrysAlis171 .NET)
(compiled May 22 2014,16:03:01)
;
_computing_molecular_graphics    'Olex2 (Dolomanov et al., 2009)'
_computing_publication_material  'Olex2 (Dolomanov et al., 2009)'
_computing_structure_refinement  'ShelXL (Sheldrick, 2015)'
_computing_structure_solution    'ShelXS (Sheldrick, 2008)'
_diffrn_ambient_temperature      293.15
_diffrn_detector                 Dectris
_diffrn_detector_area_resol_mean 5.81395
_diffrn_detector_type            'Pilatus 300K detector'
_diffrn_measured_fraction_theta_full 0.757
_diffrn_measured_fraction_theta_max 0.757
_diffrn_measurement_details
;
#__ type_ start__ end____ width___ exp.time_
  1 omega -105.00  -74.00   0.2000    0.9970
omega____ theta____ kappa____ phi______ frames
    -       20.0000   70.0000  155.7700 155

#__ type_ start__ end____ width___ exp.time_
  2 omega -105.00  -74.00   0.2000    0.9970
omega____ theta____ kappa____ phi______ frames
    -       20.0000   70.0000  -24.2300 155

#__ type_ start__ end____ width___ exp.time_
  3 omega -106.00  -66.00   0.2000    0.9970
omega____ theta____ kappa____ phi______ frames
    -      -20.0000  -70.0000 -155.7700 200

#__ type_ start__ end____ width___ exp.time_
  4 omega -106.00  -66.00   0.2000    0.9970
omega____ theta____ kappa____ phi______ frames
    -      -20.0000  -70.0000   24.2300 200

#__ type_ start__ end____ width___ exp.time_
  5 omega -150.00  -94.00   0.2000    0.9970
omega____ theta____ kappa____ phi______ frames
    -      -20.0000   70.0000  -24.2319 280

#__ type_ start__ end____ width___ exp.time_
  6 omega -150.00  -94.00   0.2000    0.9970
omega____ theta____ kappa____ phi______ frames
    -      -20.0000   70.0000  155.7681 280

#__ type_ start__ end____ width___ exp.time_
  7 omega  -96.00  -30.00   0.2000    0.9970
omega____ theta____ kappa____ phi______ frames
    -       20.0000  -70.0000   24.2300 330

#__ type_ start__ end____ width___ exp.time_
  8 omega  -96.00  -30.00   0.2000    0.9970
omega____ theta____ kappa____ phi______ frames
    -       20.0000  -70.0000 -155.7700 330
;
_diffrn_measurement_device       'k-geometry diffractometer'
_diffrn_measurement_device_type
'Newport 4-circle kappa geometry diffractometer'
_diffrn_measurement_method       'oscillation method'
_diffrn_orient_matrix_UB_11      0.0319106000
_diffrn_orient_matrix_UB_12      -0.0014763000
_diffrn_orient_matrix_UB_13      0.0097169000
_diffrn_orient_matrix_UB_21      -0.0143284000
_diffrn_orient_matrix_UB_22      0.0170839000
_diffrn_orient_matrix_UB_23      0.0163911000
_diffrn_orient_matrix_UB_31      -0.0091004000
_diffrn_orient_matrix_UB_32      -0.0317873000
_diffrn_orient_matrix_UB_33      0.0083811000
_diffrn_radiation_collimation    '0.5 mm pinhole'
_diffrn_radiation_monochromator  'Si 111 double-crystal monochromator'
_diffrn_radiation_probe          x-ray
_diffrn_radiation_wavelength     0.6889
_diffrn_reflns_av_R_equivalents  0.8410
_diffrn_reflns_av_unetI/netI     0.5974
_diffrn_reflns_Laue_measured_fraction_full 0.757
_diffrn_reflns_Laue_measured_fraction_max 0.757
_diffrn_reflns_limit_h_max       14
_diffrn_reflns_limit_h_min       -14
_diffrn_reflns_limit_k_max       20
_diffrn_reflns_limit_k_min       -20
_diffrn_reflns_limit_l_max       35
_diffrn_reflns_limit_l_min       -35
_diffrn_reflns_number            23888
_diffrn_reflns_point_group_measured_fraction_full 0.757
_diffrn_reflns_point_group_measured_fraction_max 0.757
_diffrn_reflns_theta_full        22.737
_diffrn_reflns_theta_max         22.737
_diffrn_reflns_theta_min         1.889
_diffrn_source                   'Synchrotron U21 undulator'
_diffrn_source_type              'Synchrotron Diamond Light Source'
_exptl_absorpt_coefficient_mu    0.260
_exptl_absorpt_correction_T_max  0.4269
_exptl_absorpt_correction_T_min  0.2404
_exptl_absorpt_correction_type   multi-scan
_exptl_absorpt_process_details
;
SADABS-2014/5 (Bruker,2014/5) was used for absorption correction.
 wR2(int) was 0.1801 before and 0.1248 after correction. 
The Ratio of minimum to maximum transmission is 0.5631. 
The \l/2 correction factor is Not present.
;
_exptl_crystal_colour            'clear colourless'
_exptl_crystal_colour_lustre     clear
_exptl_crystal_colour_primary    colourless
_exptl_crystal_density_diffrn    0.616
_exptl_crystal_description       octahedral
_exptl_crystal_F_000             2232
_exptl_crystal_size_max          0.046
_exptl_crystal_size_mid          0.046
_exptl_crystal_size_min          0.033
_refine_diff_density_max         1.643
_refine_diff_density_min         -1.383
_refine_diff_density_rms         0.172
_refine_ls_extinction_method     none
_refine_ls_goodness_of_fit_ref   1.300
_refine_ls_hydrogen_treatment    constr
_refine_ls_matrix_type           full
_refine_ls_number_parameters     74
_refine_ls_number_reflns         3456
_refine_ls_number_restraints     59
_refine_ls_restrained_S_all      1.303
_refine_ls_R_factor_all          0.3804
_refine_ls_R_factor_gt           0.1910
_refine_ls_shift/su_max          0.000
_refine_ls_shift/su_mean         0.000
_refine_ls_structure_factor_coef Fsqd
_refine_ls_weighting_details
'w=1/[\s^2^(Fo^2^)+(0.2000P)^2^] where P=(Fo^2^+2Fc^2^)/3'
_refine_ls_weighting_scheme      calc
_refine_ls_wR_factor_gt          0.4183
_refine_ls_wR_factor_ref         0.5421
_reflns_Friedel_coverage         0.000
_reflns_number_gt                942
_reflns_number_total             3456
_reflns_threshold_expression     'I > 2\s(I)'
_cod_data_source_file            ZrMOF_All.cif
_cod_data_source_block           31.7kbar
_cod_original_cell_volume        12031(3)
_cod_database_code               4131855
_chemical_oxdiff_formula         'C46 H42 O16 Zr3'
_shelx_space_group_comment
;
The symmetry employed for this shelxl refinement is uniquely defined
by the following loop, which should always be used as a source of
symmetry information in preference to the above space-group names.
They are only intended as comments.
;
_reflns_odcompleteness_completeness 74.81
_reflns_odcompleteness_iscentric 1
_reflns_odcompleteness_theta     22.88
_olex2_refinement_description
;
1. Fixed Uiso
 At 1.2 times of:
  All C(H) groups
 At 1.5 times of:
  All C(H,H,H) groups
2. Restrained distances
 C8-C11 = C12-C11 = C9-C8
 1.39 with sigma of 0.01
 C4-C3 = C5-C4 = C6-C5 = C7-C6 = C7-C2 = C3-C2
 1.39 with sigma of 0.01
 C2-C1 = C8-C5 = C13-C11 = C9-C10
 1.5 with sigma of 0.01
 C12-C12_$2
 1.5 with sigma of 0.01
3. Restrained planarity
 C1, C2, C7, C6, C5, C4, C3, C8, C11_$1, C13_$1
 with sigma of 0.1
 C1_$1, C2_$1, C3_$1, C7_$1, C6_$1, C5_$1, C4_$1, C8_$1, C11, C13
 with sigma of 0.1
 C1_$2, C2_$2, C7_$2, C6_$2, C5_$2, C4_$2, C3_$2, C8_$2, C11_$3, C13_$3
 with sigma of 0.1
 C1_$3, C2_$3, C3_$3, C4_$3, C5_$3, C6_$3, C7_$3, C8_$3, C11_$2, C13_$2
 with sigma of 0.1
 C10_$2, C9_$2, C12_$2, C12, C9, C10
 with sigma of 0.1
4. Uiso/Uaniso restraints and constraints
All non-hydrogen atoms have similar U: within 2A with sigma of 0.02 and sigma
for terminal atoms of 0.04
5. Others
 Fixed Sof: H10A(0.5) H10B(0.5) H10C(0.5)
6.a Me refined with riding coordinates:
 C13(H13A,H13B,H13C), C10(H10A,H10B,H10C)
6.b Aromatic/amide H refined with riding coordinates:
 C3(H3), C4(H4), C7(H7), C6(H6)
;
_shelx_res_file
;
    31.7kbar.res created by SHELXL-2014/7

TITL g2yy_7xnew in P4/mnc
CELL 0.6889 19.07645 19.07645 33.06068 90 90 90
ZERR 4 0.00135 0.00135 0.00522 0 0 0
LATT 1
SYMM -X,-Y,+Z
SYMM -Y,+X,+Z
SYMM +Y,-X,+Z
SYMM 0.5-X,0.5+Y,0.5-Z
SYMM 0.5+X,0.5-Y,0.5-Z
SYMM 0.5+Y,0.5+X,0.5-Z
SYMM 0.5-Y,0.5-X,0.5-Z
SFAC C H O Zr
DISP C 0.003 0.001 10.848
DISP H -0 0 0.623
DISP O 0.011 0.006 30.192
DISP Zr -11.605 0.551 2275.752
UNIT 184 136 64 12
EQIV $1 -0.5+Y,0.5+X,0.5-Z
EQIV $2 0.5-Y,0.5-X,0.5-Z
EQIV $3 -X,1-Y,+Z
DFIX 1.39 0.01 C8 C11 C12 C11 C9 C8
DFIX 1.39 0.01 C4 C3 C5 C4 C6 C5 C7 C6 C7 C2 C3 C2
DFIX 1.5 0.01 C2 C1 C8 C5 C13 C11 C9 C10
DFIX 1.5 0.01 C12 C12_$2
FLAT C1 C2 C7 C6 C5 C4 C3 C8 C11_$1 C13_$1
FLAT C1_$1 C2_$1 C3_$1 C7_$1 C6_$1 C5_$1 C4_$1 C8_$1 C11 C13
FLAT C1_$2 C2_$2 C7_$2 C6_$2 C5_$2 C4_$2 C3_$2 C8_$2 C11_$3 C13_$3
FLAT C1_$3 C2_$3 C3_$3 C4_$3 C5_$3 C6_$3 C7_$3 C8_$3 C11_$2 C13_$2
FLAT C10_$2 C9_$2 C12_$2 C12 C9 C10
SIMU 0.02 0.04 2

L.S. 5 0 286
PLAN  20
TEMP 20
BOND
MORE -1
BOND $H
CONF
ABIN
fmap 2
acta
REM <olex2.extras>
REM <HklSrc "%.\\31.7kbar.hkl">
REM </olex2.extras>

WGHT    0.200000
FVAR       0.03445
ZR1   4    0.123110    0.045747    0.000000    10.50000    0.03426    0.04570 =
         0.02337    0.00000    0.00000   -0.00231
ZR2   4    0.000000    0.000000    0.073389    10.25000    0.02249    0.02249 =
         0.02145    0.00000    0.00000    0.00000
O5    3   -0.028338    0.092983    0.108238    11.00000    0.07681
O2    3    0.173482    0.063139   -0.060243    11.00000    0.08774
O4    3    0.038297    0.085953    0.036331    11.00000    0.08896
O3    3    0.165865    0.150355    0.000000    10.50000    0.11858
O1    3    0.226883   -0.015957    0.000000    10.50000    0.14953
C11   1   -0.027962    0.416245    0.222830    11.00000    0.10173
C3    1   -0.039192    0.195328    0.170047    11.00000    0.18123
AFIX  43
H3    2   -0.019564    0.151250    0.174071    11.00000   -1.20000
AFIX   0
C12   1   -0.027774    0.472226    0.250000    10.50000    0.09573
C1    1   -0.057690    0.154862    0.099299    11.00000    0.12895
C4    1   -0.042820    0.240072    0.203398    11.00000    0.18346
AFIX  43
H4    2   -0.028621    0.228983    0.229536    11.00000   -1.20000
AFIX   0
C8    1   -0.079576    0.365057    0.220673    11.00000    0.11245
C13   1    0.027447    0.414749    0.190171    11.00000    0.15277
AFIX  33
H13A  2    0.060233    0.452157    0.194573    11.00000   -1.50000
H13B  2    0.051674    0.370663    0.190981    11.00000   -1.50000
H13C  2    0.005631    0.420476    0.164213    11.00000   -1.50000
AFIX   0
C2    1   -0.062768    0.211504    0.130958    11.00000    0.17392
C5    1   -0.071478    0.304795    0.191079    11.00000    0.15598
C7    1   -0.090693    0.275238    0.117658    11.00000    0.18974
AFIX  43
H7    2   -0.104046    0.286408    0.091383    11.00000   -1.20000
AFIX   0
C9    1   -0.132833    0.367167    0.250000    10.50000    0.12398
C6    1   -0.094627    0.318854    0.151510    11.00000    0.18059
AFIX  43
H6    2   -0.115053    0.362538    0.147384    11.00000   -1.20000
AFIX   0
C10   1   -0.188583    0.311417    0.250000    10.50000    0.13864
PART -1
AFIX  33
H10A  2   -0.179971    0.279083    0.228312    10.50000   -1.50000
H10B  2   -0.187663    0.286775    0.275312    10.50000   -1.50000
H10C  2   -0.233698    0.332810    0.246376    10.50000   -1.50000
AFIX   0
HKLF 4

REM  g2yy_7xnew in P4/mnc
REM R1 =  0.1910 for     942 Fo > 4sig(Fo)  and  0.3804 for all    3456 data
REM     74 parameters refined using     59 restraints

END

WGHT      0.2000      0.0000

REM Highest difference peak  1.643,  deepest hole -1.383,  1-sigma level  0.172
Q1    1   0.1262  0.0033  0.0000  10.50000  0.05    1.64
Q2    1   0.1118  0.0171  0.0000  10.50000  0.05    1.59
Q3    1   0.0315  0.0002  0.0755  11.00000  0.05    1.37
Q4    1   0.1516  0.0254  0.0000  10.50000  0.05    1.33
Q5    1   0.0000  0.0000  0.0636  10.25000  0.05    1.33
Q6    1   0.0347  0.0533  0.0282  11.00000  0.05    0.91
Q7    1   0.1272  0.1029  0.0000  10.50000  0.05    0.90
Q8    1   0.2106  0.1278  0.0000  10.50000  0.05    0.79
Q9    1   0.2117  0.0198  0.0000  10.50000  0.05    0.76
Q10   1   0.0535  0.4028  0.1931  11.00000  0.05    0.73
Q11   1  -0.0299  0.1088  0.1023  11.00000  0.05    0.67
Q12   1   0.0561  0.1292  0.0317  11.00000  0.05    0.66
Q13   1   0.1658  0.1746 -0.0180  11.00000  0.05    0.65
Q14   1  -0.0524  0.0993  0.1022  11.00000  0.05    0.65
Q15   1   0.1284  0.2099  0.0000  10.50000  0.05    0.65
Q16   1   0.0035  0.0598  0.0302  11.00000  0.05    0.64
Q17   1   0.1083  0.1223  0.0410  11.00000  0.05    0.62
Q18   1  -0.0531  0.0690  0.1107  11.00000  0.05    0.62
Q19   1  -0.0340  0.0559  0.1157  11.00000  0.05    0.62
Q20   1   0.2110 -0.0578 -0.0082  11.00000  0.05    0.59
;
_shelx_res_checksum              94724
_shelx_hkl_file
;
   0  -2   0   95.17   26.33
   1   2   0    7.58    2.63
  -1  -2   0   10.45    2.71
  -1  -2   0    9.12    3.14
   1   2   0   13.17    2.87
  -2   3   0    0.66    0.37
   1  -3   0    2.23    0.64
   0  -3   0    0.04    0.16
   0  -3   0    0.05    0.80
   0   3   0    0.06    0.38
  -1  -3   0    1.23    0.52
   1   3   0    2.05    0.62
  -1  -3   0    1.63    0.54
   1   3   0    2.11    0.51
  -1  -3   0    2.17    1.00
  -1  -3   0    2.19    0.53
  -2  -3   0    0.49    0.24
   2   3   0    0.21    0.39
  -2  -3   0    0.17    0.86
   1  -4   0   43.85   12.67
   0  -4   0    3.50    0.93
   0  -4   0    3.85    0.98
   0  -4   0    3.29    0.98
   0  -4   0    3.14    1.58
   0   4   0    3.25    1.14
   0   4   0    3.05    1.15
  -1  -4   0   58.56   13.66
   1   4   0   38.58   14.03
  -1  -4   0   57.11   13.56
  -1  -4   0   32.87   16.06
  -1  -4   0   55.29   13.86
   1   4   0   55.69   13.36
   2   4   0   10.94    3.12
  -2  -4   0    8.65    3.70
  -2  -4   0   11.41    2.91
   2  -5   0   55.70   15.88
   1  -5   0    1.37    0.53
   1  -5   0    1.25    0.46
   0   5   0   -0.31    0.81
   0  -5   0   -0.08    0.23
   0  -5   0   -0.04    0.32
   0   5   0   -0.13    0.63
   0  -5   0    0.39    1.62
   0  -5   0    0.05    0.14
   1   5   0    1.32    0.40
  -1  -5   0    1.22    0.40
  -1  -5   0    0.38    1.87
  -1  -5   0    1.63    0.49
  -1  -5   0    1.35    0.43
   1   5   0    1.94    0.76
  -2  -5   0   66.54   17.79
   2   5   0   70.21   18.51
  -2  -5   0   56.91   21.38
   3   5   0    1.21    0.85
  -3  -5   0    0.52    0.48
  -3   6   0    5.89    1.83
   3  -6   0    4.70    1.65
   1  -6   0   60.34   15.09
   1  -6   0   45.17   17.36
  -1   6   0   57.59   15.42
   0  -6   0    0.50    0.22
   0  -6   0    0.41    0.37
   0   6   0   -0.06    0.90
   1   6   0   61.73   17.91
  -1  -6   0   70.26   18.01
  -1  -6   0   65.27   18.14
  -2  -6   0   15.92    4.26
  -2  -6   0   17.01    5.56
   2   6   0   13.59    4.15
  -3  -6   0    6.77    2.15
  -3  -6   0   11.74    3.58
   3   6   0    6.88    2.36
  -4  -6   0    2.33    2.48
  -4   7   0    6.99    2.31
   3  -7   0   28.85    8.10
   2  -7   0   18.66    5.09
   2  -7   0   17.56    5.20
   1  -7   0    4.78    3.49
  -1   7   0    9.27    2.39
   1  -7   0    7.49    2.20
   1  -7   0    9.24    2.30
   0  -7   0    0.63    2.75
   0   7   0   -0.03    0.18
   0  -7   0    0.15    0.57
   0  -7   0   -0.03    0.40
   0   7   0    0.18    0.72
   0  -7   0   -0.05    0.20
   0   7   0    0.02    1.05
   0   7   0   -0.30    1.35
  -1  -7   0    8.37    2.40
  -1  -7   0    9.17    2.43
   1   7   0    8.74    2.76
   1   7   0    8.57    2.66
  -1  -7   0   12.75    4.10
  -1  -7   0    7.16    2.45
   2   7   0   21.60    6.11
  -2  -7   0   27.63    7.63
  -2  -7   0   21.75    5.93
   2   7   0   22.81    5.98
  -2  -7   0   17.91    6.10
  -3  -7   0   27.63    8.64
   3   7   0   36.03    9.05
  -3  -7   0   30.43   11.11
  -4  -7   0    6.00    3.98
  -4  -7   0    8.73    2.20
   4   7   0    6.69    2.53
  -4   8   0   23.39    8.40
   4  -8   0   33.84    8.03
   3  -8   0    1.95    1.08
   2  -8   0   22.31    6.12
  -1   8   0    0.37    0.96
   1  -8   0    1.21    0.75
   1  -8   0    0.65    0.35
   1  -8   0    0.22    2.96
   0   8   0    6.35    2.07
   0   8   0    6.89    2.17
   0  -8   0    4.74    1.35
   0  -8   0    4.50    3.59
   0  -8   0    3.60    1.47
   0  -8   0    4.57    1.50
   0   8   0    5.73    1.64
   1   8   0    0.67    1.09
   1   8   0    0.69    0.32
  -1  -8   0    5.75    3.65
  -1  -8   0    1.04    0.48
   1   8   0    0.78    1.27
  -1  -8   0    0.95    0.69
  -1  -8   0    0.44    0.33
  -2  -8   0   21.55    5.86
  -2  -8   0   22.63    5.67
   2   8   0   21.60    5.78
  -2  -8   0   16.33    7.85
   2   8   0   20.44    5.88
   3   8   0    5.19    2.00
  -4  -8   0   30.67    7.59
   4   8   0   23.34    8.18
  -4  -8   0   26.51   10.30
  -5  -8   0    1.45    3.81
  -4   9   0    7.11    2.32
   4  -9   0    6.43    2.08
   3  -9   0   49.63   13.55
  -2   9   0    1.69    1.21
   2  -9   0    0.10    0.91
   2  -9   0    0.05    3.38
  -1   9   0    2.67    1.32
  -1   9   0    3.40    2.34
   1  -9   0    2.81    1.10
   1  -9   0    2.36    3.55
   0   9   0   -0.05    0.25
   0   9   0   -0.20    1.79
   0  -9   0   -0.38    0.81
   0   9   0   -0.38    1.00
   0   9   0   -0.05    1.53
   0  -9   0   -0.16    0.56
   0  -9   0    6.30    3.86
   0  -9   0   -0.05    0.25
   1   9   0    2.62    1.55
   1   9   0    1.87    1.73
   1   9   0    3.41    0.82
  -1  -9   0   -2.57    4.37
  -1  -9   0    3.50    0.93
  -1  -9   0    2.04    0.82
  -1  -9   0    2.97    1.05
  -2  -9   0    1.81    4.48
  -2  -9   0    1.22    0.59
   2   9   0    1.15    0.43
   2   9   0    0.06    1.23
   2   9   0    0.10    1.31
  -2  -9   0    1.74    0.79
  -3  -9   0   27.55   16.06
  -3  -9   0   38.40   11.60
   3   9   0   53.44   12.12
  -4  -9   0   -0.98    5.18
  -4  -9   0    6.15    1.68
   4   9   0    5.05    2.09
  -4  -9   0    5.25    1.63
   5   9   0    8.38    4.63
  -5  -9   0   19.84    4.19
  -5  -9   0   11.45    7.06
   4 -10   0   31.15    8.78
   3 -10   0   -0.06    1.11
   2 -10   0   15.10    3.12
  -2  10   0   10.85    3.37
   2 -10   0    0.35    5.10
   1 -10   0    2.25    1.01
  -1  10   0   -0.12    1.30
   1 -10   0    0.06    3.92
  -1  10   0    2.32    2.54
   0  10   0    0.78    2.19
   0  10   0    1.65    1.25
   0 -10   0    0.72    0.94
   0 -10   0    1.08    4.35
  -1 -10   0    0.07    4.80
   1  10   0    1.89    1.81
  -1 -10   0    0.70    0.85
   2  10   0   10.89    4.07
  -2 -10   0   17.26    3.77
  -2 -10   0    6.80    7.01
  -3 -10   0   -5.66    5.81
  -3 -10   0    0.25    0.89
   3  10   0    0.06    1.41
  -4 -10   0   25.14   12.96
   4  10   0   31.85    9.17
  -4 -10   0   33.18    8.66
  -5 -10   0    1.47    0.81
   5  10   0    0.65    1.75
  -5 -10   0   -0.48    5.84
  -5 -10   0    1.16    1.11
  -5  11   0    4.88    2.10
   5 -11   0    0.96    1.72
   4 -11   0    0.07    1.33
   3 -11   0   18.27    3.96
   3 -11   0    4.49    6.38
   2 -11   0    0.49    1.16
   2 -11   0    1.62    4.38
  -2  11   0    1.63    1.59
  -1  11   0   -0.50    2.84
  -1  11   0    0.27    1.46
   1 -11   0    2.98    4.53
   1 -11   0    0.74    1.10
   0 -11   0    0.44    1.04
   0  11   0   -0.17    2.42
   0  11   0    0.77    1.42
   0 -11   0   -0.13    4.94
   1  11   0   -1.27    2.07
  -1 -11   0    0.64    1.00
  -1 -11   0   -1.73    5.78
  -2 -11   0   -3.28    6.23
   2  11   0    0.07    1.72
  -2 -11   0    0.75    1.01
   3  11   0   13.85    4.55
  -3 -11   0   12.26    8.78
  -3 -11   0   15.71    4.22
  -4 -11   0   -0.37    1.11
   4  11   0   -1.16    1.69
  -4 -11   0    8.75    7.03
  -5 -11   0    4.02    1.73
  -5 -11   0   24.48    7.21
   5  11   0    1.89    2.35
  -6 -11   0   -0.63    6.87
   5 -12   0    1.18    1.61
   4 -12   0   11.45    3.64
   3 -12   0   -2.25    5.35
   3 -12   0   -0.07    1.45
  -3  12   0   -1.38    1.87
   2 -12   0   -1.02    1.37
  -2  12   0   -0.50    1.74
  -2  12   0   -4.65    3.86
   2 -12   0   -6.41    5.10
  -1  12   0    8.22    4.52
   0 -12   0    7.75    2.62
   0  12   0    7.61    3.81
   2  12   0   -0.37    2.18
  -2 -12   0   -1.26    1.27
   3  12   0   -0.51    1.93
  -3 -12   0   -1.26    7.72
  -3 -12   0   -0.31    1.12
  -4 -12   0    5.99    9.48
  -4 -12   0   14.78    3.83
   4  12   0   12.66    4.26
  -5 -12   0   -2.22    8.07
   5  12   0   -0.18    2.12
  -5 -12   0    0.07    1.29
  -6 -12   0    2.72    7.79
   5 -13   0   -0.09    1.15
  -2  13   0    5.40    4.05
   2 -13   0    1.78    1.62
  -1  13   0    2.21    3.66
  -1  13   0    5.28    2.27
   0 -13   0   -0.35    1.30
   0  13   0   -0.64    3.22
   0  13   0   -0.17    1.92
   0 -13   0  -10.57    6.32
  -1 -13   0    2.04    1.41
  -1 -13   0    1.28    6.93
   1  13   0   -0.66    2.66
   1  13   0   -0.97    1.97
   2  13   0    5.85    2.60
  -2 -13   0   13.65    8.26
  -2 -13   0    1.35    1.60
   4  13   0    3.07    2.14
  -4 -13   0   -0.37    1.34
  -5 -13   0   -0.08    1.45
   5  13   0   -0.10    2.41
   5 -14   0    0.77    1.92
   4 -14   0  -10.36    6.62
   4 -14   0    2.71    2.01
  -3  14   0    1.10    4.70
   3 -14   0   -7.06    6.56
  -3  14   0   -1.23    2.33
   3 -14   0   -0.69    1.63
   2 -14   0    6.36    6.67
   2 -14   0    4.23    1.80
  -2  14   0    0.10    2.47
  -1  14   0    0.19    2.17
   1 -14   0    8.21    6.40
   0 -14   0    3.74    7.22
   0  14   0    2.00    2.31
   1  14   0    1.02    2.16
  -1 -14   0   -0.10    7.63
  -2 -14   0    7.61    8.98
   2  14   0    0.09    2.31
  -3 -14   0   -3.74    9.79
  -4 -14   0  -17.22   10.68
  -5 -14   0   -1.05    1.55
  -5 -14   0   -3.67   10.74
   5  14   0   -0.74    2.90
   6  14   0    0.94    2.60
  -6 -14   0    2.78   10.71
   5 -15   0    6.22    2.46
  -4  15   0    1.88    2.71
   4 -15   0    3.44    1.94
  -4  15   0  -10.42    5.65
   4 -15   0   -2.19    6.92
  -3  15   0    6.35    2.79
  -3  15   0    7.90    5.10
   3 -15   0    3.95    7.36
   3 -15   0    0.09    2.00
   2 -15   0   -0.54    1.79
   2 -15   0   -0.10    7.46
  -2  15   0   -1.76    4.64
  -2  15   0   -1.51    2.52
   1 -15   0    0.53    1.84
  -1  15   0    0.11    2.46
   1 -15   0    5.42    7.62
  -1  15   0    1.91    4.23
   0 -15   0   -3.21    1.78
   0  15   0   -0.65    3.86
   0 -15   0    2.89    8.10
   0  15   0    3.65    2.56
  -1 -15   0   -2.92    8.88
   1  15   0   -0.12    3.31
   1  15   0    0.10    2.47
  -1 -15   0    1.64    1.72
   2  15   0    0.11    2.94
  -2 -15   0   -3.18    9.98
  -2 -15   0    0.09    1.67
   2  15   0    0.51    2.44
  -3 -15   0    0.96    1.66
   3  15   0    0.41    2.81
  -3 -15   0   -9.02   10.97
  -4 -15   0    0.46    1.59
   4  15   0   -0.63    2.64
  -4 -15   0   19.19   11.55
   5  15   0   -0.12    2.92
  -5 -15   0   29.55   12.05
  -6 -15   0    9.94   11.70
   6  15   0    1.02    3.00
   5 -16   0    0.22    2.24
  -4  16   0    3.70    3.02
  -4  16   0   -7.03    6.07
   4 -16   0    8.75    7.73
   4 -16   0    0.11    2.19
  -3  16   0    1.80    2.79
  -3  16   0    2.23    5.47
   3 -16   0   -1.63    1.99
   3 -16   0   -0.24    8.08
  -2  16   0   -7.57    4.93
   2 -16   0    5.36    1.98
  -2  16   0   -1.97    2.83
   2 -16   0  -15.75    8.39
  -1  16   0   -0.87    2.89
   1 -16   0   -7.67    8.08
  -1  16   0  -12.69    4.62
   1 -16   0    2.25    1.95
   0 -16   0   -0.29    1.93
   0 -16   0   -1.27    9.10
   0  16   0   -5.81    2.86
   0  16   0   -0.14    4.10
  -1 -16   0    0.10    1.78
   1  16   0    0.52    3.62
   1  16   0    0.72    2.84
  -1 -16   0    6.40    9.57
   2  16   0    0.24    3.34
  -2 -16   0    9.52   10.79
  -2 -16   0    2.49    1.98
   2  16   0    5.83    2.95
  -3 -16   0   -7.61   11.76
   3  16   0    0.12    3.03
  -3 -16   0   -0.19    1.76
   3  16   0   -0.59    2.90
   4  16   0    0.24    3.12
  -4 -16   0    0.10    1.72
  -4 -16   0    3.11   12.65
   5  16   0   -5.26    3.17
  -5 -16   0    0.11    1.83
  -5 -16   0   -6.81   13.29
   6  16   0    0.14    3.58
  -6 -16   0   30.60   13.77
  -7 -16   0  -10.40   13.21
   5 -17   0    0.49    2.36
  -5  17   0    6.42    3.40
  -5  17   0   -7.30    6.69
  -4  17   0    2.73    6.39
   4 -17   0    0.13    8.56
  -4  17   0    6.06    3.42
   4 -17   0    1.49    2.36
   3 -17   0    0.11    2.30
  -3  17   0   -0.60    5.89
  -3  17   0    0.78    3.21
   3 -17   0   -5.11    9.13
   2 -17   0   -3.29    9.56
  -2  17   0   -3.01    5.76
  -2  17   0   -3.67    3.30
   2 -17   0    0.11    2.32
  -1  17   0   16.31    8.00
   0  17   0   21.10    8.46
   0  17   0   14.96    7.68
   0 -17   0   26.62    6.82
  -2 -17   0  -19.47   12.92
   2  17   0   -0.81    4.04
  -2 -17   0   -7.94    2.31
   2  17   0   -3.93    3.29
  -3 -17   0  -18.88   13.29
   3  17   0    0.13    3.43
   3  17   0   -2.45    3.05
  -3 -17   0   -0.11    1.91
  -4 -17   0    0.34    1.95
  -4 -17   0   -4.81   13.78
   4  17   0   -0.41    3.44
  -5 -17   0    0.12    1.99
  -5 -17   0   20.06   14.89
   5  17   0   -1.00    3.45
   6  17   0   -0.46    3.40
  -6 -17   0  -21.53   14.72
  -7 -17   0   -0.35   14.17
  -5  18   0   -8.03    3.64
  -5  18   0   -2.16    7.14
   5 -18   0    0.40    2.52
   4 -18   0   -8.90    9.40
  -4  18   0   -9.64    7.06
   4 -18   0   -0.13    2.48
  -4  18   0    0.18    3.52
   3 -18   0    4.91    9.95
  -3  18   0    0.17    3.59
  -3  18   0    4.08    6.39
   3 -18   0    0.86    2.49
   2 -18   0   -6.51   10.54
  -2  18   0   -7.86    6.10
   2 -18   0    2.32    2.36
  -2  18   0    0.83    3.63
  -1  18   0   -7.45    3.66
   1 -18   0   -0.15   10.85
  -1  18   0    4.33    5.54
   1 -18   0    0.12    2.33
   0  18   0   -3.23    3.56
   0 -18   0    5.72   10.90
   0  18   0   -3.79    4.89
   0 -18   0    0.60    2.30
   1  18   0   -1.06    3.63
  -1 -18   0   -5.75   11.88
   1  18   0    1.76    4.57
  -1 -18   0   -4.64    2.32
   2  18   0    1.96    4.15
  -2 -18   0    1.32    2.25
  -2 -18   0  -10.61   12.73
   2  18   0   -0.15    3.55
  -3 -18   0    0.12    2.20
   3  18   0   -2.03    3.48
  -3 -18   0  -14.90   14.26
   3  18   0    0.15    4.01
   4  18   0    0.15    3.87
  -4 -18   0    0.55   15.39
   4  18   0   -2.28    3.55
  -4 -18   0    0.12    2.21
  -5 -18   0    4.62   15.77
  -5 -18   0   -1.54    2.22
   5  18   0    0.49    3.89
   6  18   0    0.33    4.31
  -7 -18   0   -0.95   15.79
  -5  19   0    6.20    8.02
   5 -19   0    0.14    2.77
  -5  19   0   -1.48    3.92
   4 -19   0  -19.47   11.03
   4 -19   0    0.14    2.78
  -4  19   0    4.88    4.16
  -4  19   0    2.48    7.39
  -3  19   0   -1.87    7.01
   3 -19   0   -8.63    2.89
  -3  19   0   -0.39    4.19
  -2  19   0    6.50    6.79
  -2  19   0   -4.29    4.46
   1 -19   0   79.73   21.17
  -1  19   0   29.61   23.92
  -1  19   0   86.15   24.65
   0 -19   0   88.53   19.16
   0  19   0   40.12   20.69
  -1 -19   0  197.44   52.61
   1  19   0  216.43   53.82
   2  19   0  -13.69    5.84
   2  19   0   -6.54    4.78
   3  19   0   -2.36    4.90
  -3 -19   0  -11.15    2.86
   3  19   0   -3.80    4.35
   4  19   0   -1.26    3.99
  -4 -19   0   -0.14    2.39
   4  19   0   -1.20    4.40
  -4 -19   0   -5.18   16.37
   5  19   0    0.16    3.68
  -5 -19   0   11.77   17.16
  -5 -19   0    2.13    2.57
   5  19   0    0.18    4.59
  -6 -19   0  -15.82   17.77
   6  19   0   -0.19    4.31
  -7 -19   0    5.62   17.73
  -3  20   0   -1.00    7.51
  -3  20   0    0.22    3.21
   3 -20   0   -4.23    2.96
   2 -20   0   -7.20   13.49
  -2  20   0   -0.24    7.03
   2 -20   0    0.15    2.96
  -2  20   0   -1.47    4.59
   1 -20   0   -1.80    2.85
   1 -20   0   12.88   14.13
  -1  20   0   -3.05    4.58
  -1  20   0    1.54    6.39
   0 -20   0    0.74    2.83
   0 -20   0  -11.47   14.00
   0  20   0   -0.98    4.51
   0  20   0    7.27    5.92
   1  20   0    4.02    4.57
   1  20   0    0.39    5.53
  -1 -20   0   -5.35    2.84
  -1 -20   0   -1.49   14.47
  -2 -20   0   -6.05   15.71
   2  20   0    0.37    4.57
   2  20   0   -0.57    5.27
  -2 -20   0   -8.16    2.75
   3  20   0   11.57    5.28
  -3 -20   0    2.75    2.83
  -3 -20   0   -0.82   16.63
   3  20   0    0.74    4.57
  -4 -20   0   -3.76    2.81
   4  20   0    3.03    4.41
   4  20   0   -4.25    5.05
  -4 -20   0   -3.62   17.72
  -5 -20   0    3.62    2.72
  -5 -20   0    8.63   18.11
   5  20   0   -8.53    5.11
   6  20   0    1.03    4.72
  -6 -20   0    0.23   14.75
   1   1  -1    0.00    0.01
   1   1  -1   -0.01    0.03
  -1  -1   1    0.02    0.01
  -1  -1   1    0.00    0.02
   1  -2  -1   13.95    8.72
   1  -2  -1   30.68    7.39
  -1   2   1   36.34    7.54
   0  -2  -1   -0.03    0.09
   0   2  -1   -0.08    0.12
   0   2   1   -0.09    0.19
   0  -2   1    0.01    0.08
   0  -2   1   -0.04    0.48
   1   2  -1   33.94    8.84
   1   2  -1   25.31    8.17
  -1  -2  -1   35.02    8.52
  -1  -2   1   35.87    8.29
   1   2   1   40.35    9.34
  -1  -2   1   16.62    9.68
  -1  -2   1   33.77    8.48
   2   2  -1    0.01    0.08
   2  -3  -1   -0.16    1.03
  -2   3   1    0.24    0.32
   1  -3  -1    8.35    2.76
  -1   3  -1   11.98    2.87
  -1   3   1   11.34    2.81
   1  -3   1    6.90    3.45
   0   3  -1    3.21    1.78
   0   3  -1    6.15    1.58
   0  -3  -1    7.12    1.54
   0   3   1    5.34    1.66
   0  -3   1    5.84    1.55
   0  -3   1    6.72    1.57
   0  -3   1    3.48    1.95
  -1  -3  -1    6.33    3.63
  -1  -3  -1   12.06    3.01
   1   3  -1   12.07    2.88
   1   3  -1   11.85    3.09
  -1  -3   1    8.68    3.55
  -1  -3   1    9.90    2.97
   1   3   1   12.63    3.18
  -1  -3   1   11.15    2.99
  -1  -3   1   11.64    2.92
   2   3  -1    0.27    0.11
  -2  -3  -1    0.14    0.75
   2   3  -1    0.18    0.36
  -2  -3   1    0.01    0.13
  -2  -3   1   -0.24    0.81
   2   3   1    0.03    0.40
  -2  -3   1    0.02    0.20
  -3   4   1    0.41    0.51
   2  -4  -1   12.30    4.25
   2  -4  -1   11.33    3.45
  -2   4   1   13.35    3.58
  -1   4  -1    1.94    0.69
   1  -4  -1    2.70    0.64
   1  -4   1    0.73    1.35
   1  -4   1    2.07    0.66
   0  -4  -1    0.05    0.22
   0   4  -1   -0.02    0.29
   0   4  -1    0.12    0.52
   0   4   1   -0.10    0.54
   0  -4   1   -0.09    0.24
   0  -4   1    0.02    0.15
   0  -4   1   -0.30    1.18
   0  -4   1    0.07    0.20
   1   4  -1    1.94    0.51
   1   4  -1    2.52    0.71
  -1  -4  -1    2.09    0.57
  -1  -4  -1    1.56    1.36
  -1  -4   1    1.40    0.54
  -1  -4   1    1.55    0.55
  -1  -4   1    2.47    1.36
   1   4   1    2.41    0.69
  -1  -4   1    1.54    0.51
  -2  -4  -1   14.08    3.93
   2   4  -1   12.27    3.82
  -2  -4  -1   13.13    4.70
   2   4  -1   17.76    4.09
  -2  -4   1   14.84    4.74
  -2  -4   1   16.35    3.91
  -2  -4   1   12.74    3.94
   2   4   1   15.85    4.21
  -2  -4   1   11.99    3.90
   3   4  -1    0.14    0.60
  -3  -4   1    0.08    1.27
   2  -5  -1   15.03    2.47
   2  -5   1   -0.03    2.44
   1  -5  -1   48.57   11.65
   1  -5   1   27.64   13.46
   1  -5   1   49.91   11.81
   1  -5   1   46.62   11.71
   0  -5  -1    1.92    0.47
   0   5  -1    1.19    0.86
   0   5  -1    1.77    0.62
   0  -5  -1    1.74    0.53
   0  -5  -1    1.72    0.44
   0   5   1    1.84    0.88
   0  -5   1    1.22    0.52
   0   5   1    1.60    0.44
   0  -5   1    1.06    0.46
   0  -5   1    1.34    0.56
   0   5   1    1.32    0.68
   0  -5   1    1.70    1.74
   1   5  -1   41.09   12.99
   1   5  -1   47.05   12.11
  -1  -5  -1   51.57   12.09
  -1  -5  -1   42.53   14.16
   1   5  -1   54.77   11.46
  -1  -5   1   26.69   13.69
  -1  -5   1   36.18   11.79
  -1  -5   1   47.01   11.53
  -1  -5   1   37.71   11.60
   1   5   1   38.50   12.08
   2   5  -1   14.40    3.68
  -2  -5  -1   14.92    3.76
   2   5  -1   15.57    3.88
  -2  -5   1   14.20    3.81
  -2  -5   1   13.46    4.79
   2   5   1   11.29    3.96
  -2  -5   1   12.97    3.74
  -2  -5   1   12.18    3.75
   3   5  -1   19.57    7.41
  -3  -5   1   29.40    6.90
   3  -6  -1    0.94    2.69
   3  -6  -1    0.04    0.63
  -3   6   1   -0.05    0.87
   2  -6  -1   70.92   18.17
  -2   6  -1   68.82   18.70
   2  -6   1   60.17   20.51
  -2   6   1   70.15   18.50
   1  -6  -1    4.79    1.28
  -1   6  -1    5.55    1.49
   1  -6   1    3.64    2.64
   1  -6   1    4.34    1.36
   0  -6  -1    0.03    2.39
   0  -6  -1   -0.16    0.28
   0   6  -1   -0.26    1.00
   0  -6  -1    0.16    0.14
   0   6   1   -0.46    0.74
   0  -6   1   -0.10    0.39
   0  -6   1    0.01    0.23
   0   6   1    0.02    0.14
  -1  -6  -1    4.23    1.26
   1   6  -1    4.39    1.57
   1   6  -1    4.11    1.21
  -1  -6  -1    4.82    2.97
  -1  -6   1    5.21    1.21
   1   6   1    3.79    1.22
  -1  -6   1    4.25    1.27
  -2  -6  -1   70.68   21.24
   2   6  -1   68.48   17.48
  -2  -6   1   65.98   18.00
   2   6   1   62.53   18.15
  -2  -6   1   52.99   17.71
  -3  -6  -1   -0.04    2.52
  -3  -6  -1    0.46    0.55
   3   6  -1    0.44    0.27
  -3  -6   1   -1.56    2.69
   3   6   1    0.09    0.95
  -3  -6   1    0.59    0.40
   4   6  -1    0.10    0.97
  -4  -6   1    0.48    2.45
   4  -7  -1   13.19    3.70
  -4   7   1   13.71    3.91
   3  -7  -1   -0.13    0.77
   3  -7  -1   -1.13    3.00
   3  -7   1   -0.24    0.81
  -3   7   1    0.44    0.94
   2  -7  -1   16.57    4.10
  -2   7  -1   16.33    4.28
   2  -7  -1   13.59    4.16
   2  -7   1    9.07    5.36
   2  -7   1   15.72    4.19
   2  -7   1   16.15    4.12
   1  -7  -1    2.28    0.77
   1  -7  -1    4.30    1.00
  -1   7  -1    2.18    1.10
   1  -7   1    3.70    1.02
   1  -7   1    2.56    0.87
   1  -7   1    2.62    2.63
   0  -7  -1    0.65    0.59
   0   7  -1    1.28    0.77
   0  -7  -1    0.56    0.25
   0   7  -1    1.77    1.37
   0   7  -1    0.80    1.20
   0  -7  -1   -0.83    2.84
   0  -7  -1    0.59    0.41
   0  -7   1    0.90    0.31
   0  -7   1    0.64    0.61
   0   7   1    0.84    0.26
   0   7   1    0.82    1.23
   0   7   1    0.12    0.92
   0  -7   1    0.83    0.50
   0  -7   1    0.50    2.73
  -1  -7  -1    3.33    1.02
   1   7  -1    2.93    1.34
   1   7  -1    3.35    1.39
  -1  -7  -1    3.61    3.22
   1   7  -1    3.59    0.86
  -1  -7  -1    3.34    0.91
   1   7   1    3.27    1.30
  -1  -7   1    2.94    1.00
  -1  -7   1    2.94    0.94
  -1  -7   1    3.22    0.86
  -1  -7   1    2.64    3.06
   1   7   1    2.07    0.87
   2   7  -1   15.91    4.60
  -2  -7  -1   18.92    4.44
  -2  -7  -1   24.25    6.18
  -2  -7  -1   17.36    4.59
   2   7  -1   18.52    4.42
  -2  -7   1   12.78    4.52
  -2  -7   1   12.44    6.06
   2   7   1   15.44    4.61
  -2  -7   1   12.97    4.46
  -3  -7  -1    1.61    3.16
   3   7  -1    0.78    0.98
   3   7  -1    0.52    0.30
  -3  -7  -1    0.43    0.63
  -3  -7   1    0.19    3.35
   3   7   1    0.19    1.05
  -3  -7   1    0.32    0.57
  -3  -7   1    0.47    0.47
  -4  -7  -1   10.61    4.81
   4   7  -1    8.55    3.53
  -4  -7   1   12.40    5.02
   4   7   1    4.74    3.57
  -4  -7   1   16.65    3.17
   4  -8  -1    7.71    3.91
   4  -8  -1    3.49    1.45
   4  -8   1    4.13    1.52
  -4   8   1    2.48    1.70
   3  -8  -1   27.58    7.34
   3  -8   1   24.44    7.35
  -3   8   1   26.29    7.64
   2  -8  -1    1.67    1.17
  -2   8  -1    3.51    1.32
   2  -8  -1    3.30    0.92
   2  -8   1    4.41    1.19
   2  -8   1    0.10    3.51
   2  -8   1    2.74    1.04
  -1   8  -1    0.60    0.94
   1  -8  -1    0.32    0.23
   1  -8  -1    1.19    0.73
   1  -8   1   -3.68    2.84
   1  -8   1    0.60    0.39
  -1   8   1    0.54    1.75
   1  -8   1    0.12    0.75
   0  -8  -1    0.01    0.20
   0   8  -1   -0.30    1.42
   0   8  -1    0.31    1.64
   0  -8  -1    0.04    0.67
   0   8  -1   -0.29    0.84
   0  -8  -1    1.46    3.44
   0  -8  -1    0.03    0.42
   0  -8   1    0.06    0.26
   0   8   1    0.04    1.14
   0   8   1    0.24    0.20
   0  -8   1    0.35    0.51
   0  -8   1   -0.59    0.67
   0   8   1    0.06    1.47
   0  -8   1    1.69    3.07
   1   8  -1    0.45    0.28
  -1  -8  -1    0.10    3.83
   1   8  -1    0.31    1.21
   1   8  -1   -0.05    1.33
  -1  -8  -1    0.36    0.39
  -1  -8  -1    1.00    0.67
   1   8   1    0.57    1.21
  -1  -8   1    0.42    0.29
   1   8   1    0.89    0.99
   1   8   1    0.24    0.24
  -1  -8   1    5.09    3.60
  -1  -8   1    0.32    0.52
  -1  -8   1    0.59    0.66
   2   8  -1    0.80    1.50
  -2  -8  -1    3.32    0.84
  -2  -8  -1    2.55    0.97
   2   8  -1    1.82    0.78
  -2  -8   1    2.58    0.94
  -2  -8   1    2.63    0.86
   2   8   1    2.62    1.37
  -2  -8   1    2.65    0.80
   3   8  -1   28.41    8.25
  -3  -8  -1   29.83    7.96
  -3  -8  -1   28.03    8.31
  -3  -8   1   45.69   10.85
   3   8   1   26.38    8.33
  -3  -8   1   21.60    7.93
  -4  -8  -1    3.14    1.46
   4   8  -1    6.07    1.86
  -4  -8  -1    5.58    4.09
  -4  -8   1    1.17    4.33
   4   8   1    2.79    1.85
  -4  -8   1    5.11    1.37
  -4  -8   1    5.07    1.43
  -5  -8   1   17.78    7.28
   5  -9  -1    2.53    1.51
  -5   9   1    5.15    1.81
   4  -9  -1   30.68   10.33
   4  -9   1   38.24   10.35
  -4   9   1   44.86   10.78
  -3   9  -1   -0.65    1.35
   3  -9  -1   -0.64    0.99
   3  -9   1    0.23    1.05
   3  -9   1    5.35    3.76
  -3   9   1    0.73    1.26
  -2   9  -1   14.39    4.25
   2  -9  -1   16.33    4.06
   2  -9   1   15.22    4.03
   2  -9   1   15.44    4.05
   2  -9   1   10.14    5.57
   1  -9  -1   -0.54    0.84
  -1   9  -1   -0.05    1.09
   1  -9  -1   -1.99    3.60
  -1   9   1   -0.16    1.03
   1  -9   1    0.41    0.37
   1  -9   1   -3.71    3.38
   1  -9   1    0.14    0.87
  -1   9   1    0.08    2.03
   0  -9  -1    3.26    4.00
   0   9  -1   -0.28    1.90
   0   9  -1    0.89    1.62
   0  -9  -1    0.58    0.73
   0   9  -1    0.17    0.29
   0   9  -1    0.24    1.01
   0  -9   1    0.37    0.63
   0   9   1    0.49    0.98
   0  -9   1   -0.25    0.78
   0  -9   1    0.50    3.52
   0   9   1    0.45    1.80
   0  -9   1   -0.05    0.30
   0   9   1    0.06    0.24
   0   9   1   -0.61    1.35
   1   9  -1    0.18    1.64
   1   9  -1   -0.02    1.41
  -1  -9  -1   -0.21    0.76
   1   9  -1   -0.02    0.30
  -1  -9  -1   -4.22    4.39
  -1  -9  -1    0.15    0.46
  -1  -9   1   -0.44    4.04
   1   9   1    0.13    0.26
   1   9   1   -0.39    1.45
  -1  -9   1    0.02    0.57
  -1  -9   1   -0.16    0.71
  -1  -9   1   -0.02    0.31
   1   9   1    0.76    1.17
  -2  -9  -1   13.48    3.92
   2   9  -1   16.11    4.06
   2   9  -1   14.96    4.39
  -2  -9  -1   11.51    3.80
  -2  -9  -1    8.41    6.58
   2   9  -1   14.99    3.84
  -2  -9   1   12.65    3.83
  -2  -9   1   12.26    3.79
   2   9   1   15.96    4.04
  -2  -9   1   15.74    3.93
  -2  -9   1   10.58    6.35
   3   9  -1   -0.70    1.23
  -3  -9  -1   -2.04    5.12
  -3  -9  -1   -0.38    0.79
  -3  -9  -1    0.05    0.54
  -3  -9   1   -1.96    4.81
   3   9   1    0.48    1.26
  -3  -9   1   -0.82    0.77
   4   9  -1   39.71   10.57
  -4  -9  -1   47.00   10.05
  -4  -9  -1   33.35   13.53
  -4  -9   1   40.88   10.60
  -4  -9   1   21.80   13.74
   4   9   1   32.25   10.71
  -4  -9   1   34.93   10.05
  -5  -9  -1    4.02    4.57
   5   9  -1    1.71    1.69
  -5  -9   1    5.07    4.99
  -5  -9   1    2.85    1.04
   5 -10  -1   13.56    3.61
  -5  10   1   12.13    3.82
   4 -10  -1    2.25    1.27
   4 -10  -1   -3.73    4.36
  -4  10   1    1.63    1.69
   4 -10   1    2.16    1.36
  -3  10  -1   19.10    6.20
   3 -10  -1   23.26    5.82
   3 -10   1   29.14    5.82
   3 -10   1    6.22    7.85
   2 -10  -1   -0.66    1.02
  -2  10  -1    0.07    1.32
   2 -10   1    0.06    3.98
   2 -10   1    1.60    0.97
  -1  10  -1   -0.54    1.23
   1 -10  -1    0.95    0.90
  -1  10  -1   -1.73    2.65
   1 -10  -1    1.27    4.09
   1 -10   1    0.05    0.95
  -1  10   1   -0.77    1.27
  -1  10   1    2.16    2.53
   1 -10   1    1.05    3.84
   0 -10  -1   -0.24    0.92
   0 -10  -1    0.82    4.55
   0  10  -1   -0.66    1.18
   0  10  -1    1.35    2.13
   0  10   1   -0.07    1.97
   0  10   1    0.22    1.19
   0 -10   1   -0.53    0.89
   0 -10   1   -2.74    4.18
  -1 -10  -1    4.02    4.97
  -1 -10  -1    0.66    0.88
   1  10  -1    1.64    1.28
   1  10  -1    0.87    1.87
  -1 -10   1    1.26    0.95
  -1 -10   1    6.21    4.69
   1  10   1    0.13    1.69
  -2 -10  -1    0.48    0.89
  -2 -10  -1  -12.20    5.56
   2  10  -1   -0.06    1.57
  -2 -10   1    0.23    0.81
  -2 -10   1    3.43    5.14
   2  10   1    0.12    1.50
  -3 -10  -1   25.22    6.86
   3  10  -1   24.40    7.16
  -3 -10  -1   17.32   10.54
  -3 -10   1   24.01   10.33
  -3 -10   1   27.41    6.86
   3  10   1   23.52    7.19
  -3 -10   1   28.43    7.26
   4  10  -1    0.71    1.55
  -4 -10  -1   -0.49    5.77
  -4 -10  -1    1.33    1.02
  -4 -10   1    1.15    0.93
  -4 -10   1    1.26    5.94
  -4 -10   1    1.03    0.77
   4  10   1    0.71    1.61
  -5 -10  -1   11.44    6.38
   5  10  -1    5.21    2.95
   5  10   1    6.10    2.99
  -5 -10   1   10.57    2.51
  -5 -10   1    2.88    6.62
  -5 -10   1    8.91    2.51
  -6 -10   1    0.47    5.55
   5 -11  -1   -1.52    1.47
  -5  11   1    1.36    1.84
   4 -11  -1   12.13    3.72
   4 -11   1    4.34    6.20
   4 -11   1   16.76    3.74
  -4  11   1   11.76    4.03
   3 -11  -1   -0.06    1.21
  -3  11  -1    1.12    1.65
   3 -11   1   -4.19    4.71
   3 -11   1    0.47    1.24
   2 -11  -1    0.12    1.15
  -2  11  -1    2.47    1.65
   2 -11   1    0.75    1.20
   2 -11   1   -1.96    4.41
  -2  11   1    2.61    3.18
  -1  11  -1    4.39    3.09
  -1  11  -1    0.54    1.62
   1 -11  -1    4.77    4.85
   1 -11  -1    2.76    1.31
   1 -11   1    3.32    1.31
   1 -11   1   -1.05    4.48
  -1  11   1    1.97    1.62
  -1  11   1    4.39    2.76
   0  11  -1    2.25    1.45
   0  11  -1    0.09    2.50
   0 -11  -1   -1.76    5.26
   0 -11  -1    0.87    1.04
   0  11   1    1.15    1.44
   0  11   1    1.58    2.40
   0 -11   1    1.15    1.10
   0 -11   1   -0.13    4.78
   1  11  -1    3.04    1.55
   1  11  -1    2.49    2.23
  -1 -11  -1    1.29    1.17
  -1 -11  -1    0.78    5.90
  -1 -11   1    2.02    1.18
  -1 -11   1    2.47    5.39
   1  11   1    2.84    2.03
   2  11  -1    0.40    1.79
  -2 -11  -1    0.87    1.03
  -2 -11  -1   -0.25    6.43
   2  11   1    0.73    1.79
  -2 -11   1    2.79    1.06
  -2 -11   1   -2.83    6.01
   3  11  -1    0.06    1.63
  -3 -11  -1   -1.99    6.76
  -3 -11  -1    1.14    1.10
   3  11   1    2.05    1.67
  -3 -11   1   -0.49    0.96
  -3 -11   1    0.25    6.60
  -4 -11  -1   20.59    8.76
  -4 -11  -1   12.65    4.05
   4  11  -1   13.20    4.38
   4  11   1   17.18    4.47
  -4 -11   1   15.93    4.04
  -4 -11   1   -0.27    8.47
  -5 -11  -1    7.71    6.96
  -5 -11  -1   -0.14    1.14
   5  11  -1    0.58    1.90
  -5 -11   1   -3.59    7.11
   5  11   1    1.44    1.98
  -5 -11   1   -0.07    1.08
  -6 -11   1    5.61    7.02
  -4  12  -1    1.98    1.87
   4 -12  -1    0.08    1.47
   4 -12   1    2.30    1.60
  -4  12   1   -0.30    1.99
   4 -12   1   -4.62    5.28
  -3  12  -1    6.25    2.61
   3 -12  -1    7.77    2.18
   3 -12   1    7.32    2.20
   3 -12   1   -5.84    5.54
  -2  12  -1    2.42    1.74
   2 -12  -1    1.86    1.41
  -2  12  -1    4.58    3.69
  -2  12   1   -3.02    3.50
   2 -12   1    3.04    1.39
  -2  12   1    1.55    1.75
   2 -12   1  -14.09    5.36
   0  12  -1    5.45    3.23
   0  12  -1    2.49    2.25
   0 -12  -1    7.87    2.01
   0  12   1    3.90    2.37
   0 -12   1    3.83    1.91
   0  12   1    7.23    3.46
  -2 -12  -1   -1.47    1.30
   2  12  -1    1.30    2.18
  -2 -12   1    0.36    1.20
   2  12   1    1.11    1.95
  -3 -12  -1    8.05    2.15
  -3 -12  -1    9.50    8.16
   3  12  -1    5.84    2.67
   3  12   1    4.58    2.62
  -3 -12   1   -2.31    7.79
  -3 -12   1    7.15    2.14
  -4 -12  -1   -0.55    1.22
  -4 -12  -1   -8.50    8.29
   4  12  -1   -0.53    1.95
   4  12   1    1.15    2.02
  -4 -12   1    0.72    1.17
  -4 -12   1    0.99    8.02
   5  12  -1    6.20    2.82
  -5 -12  -1   -1.72    8.55
  -5 -12  -1    6.98    2.19
  -5 -12   1    6.01    8.59
  -5 -12   1    5.03    2.12
   5  12   1    7.21    2.86
   6  12  -1    0.80    2.13
  -6 -12  -1   11.70    7.63
  -6 -12   1   -1.04    8.40
   5 -13  -1  -10.14    6.07
   5 -13   1   -0.09    1.37
  -5  13   1    2.80    2.24
  -2  13  -1   -0.41    4.13
   2 -13  -1   -0.07    1.48
   2 -13   1   -0.08    4.54
  -2  13   1   -2.51    3.94
   2 -13   1    1.44    1.55
  -1  13  -1    6.14    3.88
   1 -13  -1    2.05    1.66
  -1  13  -1    5.29    2.09
  -1  13   1    4.15    3.65
   1 -13   1   -1.51    1.67
   1 -13   1    2.16    5.68
  -1  13   1    5.66    2.12
   0  13  -1    1.83    1.91
   0 -13  -1    1.87    1.41
   0  13  -1    4.99    3.30
   0 -13   1   -0.80    6.03
   0  13   1   -2.49    3.12
   0 -13   1   -0.84    1.41
   0  13   1    5.68    1.98
  -1 -13  -1    2.61    1.57
   1  13  -1    3.14    2.88
   1  13  -1    0.72    2.02
  -1 -13   1    1.23    1.55
   1  13   1    3.39    2.75
  -1 -13   1   -4.58    7.10
   1  13   1    5.07    2.03
   2  13  -1    0.08    1.92
   2  13  -1   -2.46    2.46
  -2 -13  -1    0.41    1.33
  -2 -13   1    2.49    1.33
   2  13   1   -2.85    2.38
  -2 -13   1    3.83    7.60
  -3 -13  -1   -0.11    7.89
   3  13  -1    0.80    2.18
  -3 -13  -1   -1.84    1.26
  -3 -13   1   -3.01    8.58
   3  13   1   -2.07    2.20
  -3 -13   1    2.53    1.30
   5  13  -1    2.55    2.36
  -5 -13   1    2.08    1.44
  -5  14  -1    3.77    2.69
   5 -14  -1    6.05    2.33
   5 -14   1    4.27    2.42
  -5  14   1    5.69    2.83
  -4  14  -1    3.58    2.50
   4 -14  -1    1.15    1.84
   4 -14   1    2.88    1.92
  -3  14  -1    1.72    2.48
  -3  14  -1    4.12    4.76
   3 -14  -1    0.08    1.91
   3 -14  -1    0.10    6.85
   3 -14   1    4.20    1.92
   3 -14   1   -3.48    6.61
  -3  14   1    3.59    4.56
   2 -14  -1    6.40    6.48
  -2  14  -1   19.65    4.33
   2 -14  -1    0.57    2.01
  -2  14  -1   -0.31    2.47
  -2  14   1   16.61    4.51
  -2  14   1    1.66    2.59
   2 -14   1   -6.30    6.58
   2 -14   1    9.53    2.07
   1 -14  -1   -0.09    6.76
  -1  14  -1    0.68    2.31
   1 -14  -1    9.03    1.79
   1 -14   1   -6.35    6.48
  -1  14   1    0.79    2.38
   0 -14  -1   -4.74    7.45
   0  14  -1   -0.09    2.07
   0  14   1    2.79    2.23
  -1 -14  -1    1.50    8.18
   1  14   1   -4.64    2.20
  -2 -14  -1   21.59   10.75
  -3 -14  -1    7.97   10.75
  -3 -14  -1   16.37    4.18
  -4 -14  -1   -3.00   10.45
  -4 -14  -1   -0.17    1.47
   4  14   1   -0.10    2.48
  -4 -14   1  -21.20   10.12
  -5 -14  -1    0.09    1.85
   5  14  -1    2.17    2.85
  -5 -14  -1    1.61   10.94
  -5 -14   1    3.05   10.50
   5  14   1   -0.44    3.04
  -5 -14   1    9.13    1.82
   6  14  -1   -0.11    2.61
  -6 -14  -1    9.52   10.72
   6  14   1    0.12    2.68
  -6 -14   1    3.12   10.30
  -7 -14   1    3.99   10.03
  -5  15  -1   -2.63    2.71
   5 -15  -1    2.95    2.12
   5 -15   1   -0.11    2.00
  -5  15   1    9.81    2.80
  -4  15  -1   -5.40    2.71
   4 -15  -1    2.72    2.00
   4 -15   1    5.63    2.16
  -4  15   1   16.11    5.67
   4 -15   1   -0.44    6.90
   3 -15  -1    0.09    1.83
  -3  15  -1    0.13    2.52
   3 -15  -1   -1.63    7.51
  -3  15  -1    5.53    5.20
   3 -15   1   -2.47    1.91
  -3  15   1    1.99    2.60
  -3  15   1    0.84    5.18
   3 -15   1    1.38    7.17
   2 -15  -1   -1.66    7.61
  -2  15  -1    4.68    2.65
   2 -15  -1    2.32    1.86
  -2  15  -1   -4.89    5.01
  -2  15   1    0.64    4.79
   2 -15   1    4.47    7.65
   2 -15   1    3.08    1.93
  -2  15   1    0.47    2.64
  -1  15  -1   -2.84    2.51
   1 -15  -1    4.87    7.91
   1 -15  -1    0.35    1.77
  -1  15  -1   -0.45    4.31
   1 -15   1   -1.50    1.75
  -1  15   1    0.85    4.00
  -1  15   1   -0.66    2.57
   1 -15   1    3.30    7.19
   0  15  -1    0.40    3.90
   0  15  -1    3.19    2.49
   0 -15  -1   -5.09    8.95
   0 -15  -1   -1.83    1.79
   0  15   1   -1.02    3.60
   0 -15   1   10.79    7.93
   0 -15   1   -5.47    1.80
   0  15   1    4.90    2.62
  -1 -15  -1    0.93    9.47
   1  15  -1    0.12    3.34
   1  15  -1   -0.73    2.50
  -1 -15  -1   -0.09    1.70
  -1 -15   1   -0.64    8.92
   1  15   1   -5.40    2.54
  -1 -15   1    0.09    1.68
   1  15   1    0.12    3.31
   2  15  -1   -0.11    3.02
  -2 -15  -1    0.94    1.70
  -2 -15  -1   12.95   10.71
   2  15  -1   -0.71    2.46
   2  15   1    1.06    2.59
  -2 -15   1   15.94    9.60
  -2 -15   1   -0.09    1.68
   2  15   1    0.21    2.90
   3  15  -1    0.10    2.76
  -3 -15  -1   -5.15   11.41
  -3 -15  -1    0.09    1.60
   3  15  -1   -1.03    2.39
  -3 -15   1    1.78    1.59
   3  15   1    1.04    2.73
  -3 -15   1    0.38   10.41
  -4 -15  -1   16.40   12.68
  -4 -15   1   26.50   12.73
  -5 -15  -1    1.26    1.64
  -5 -15  -1  -13.87   11.91
   5  15  -1   -0.11    2.79
   5  15   1   -0.12    2.85
  -5 -15   1   -1.39    1.58
  -5 -15   1  -13.94   11.54
  -6 -15  -1   -9.84   12.00
   6  15  -1    0.12    2.80
  -6 -15   1    1.00   11.71
   6  15   1   -0.13    2.79
  -6 -15   1    1.81    1.73
  -7 -15   1   -7.43   11.63
   5 -16  -1    0.33    2.18
  -5  16  -1   -3.18    2.92
   5 -16   1   -3.57    2.25
  -5  16   1  -17.42    6.28
  -4  16  -1    4.59    2.89
  -4  16  -1    3.94    6.07
   4 -16  -1    0.52    2.17
  -4  16   1   10.70    6.06
   4 -16   1    0.11    2.17
   4 -16   1    6.92    7.69
   3 -16  -1    4.18    8.24
  -3  16  -1    5.60    2.91
  -3  16  -1    0.19    5.59
   3 -16  -1    0.10    2.01
   3 -16   1   -4.04    7.78
   3 -16   1    0.21    2.02
  -3  16   1   -3.66    5.43
  -3  16   1    0.42    3.01
   2 -16  -1    2.17    1.97
  -2  16  -1   -3.89    5.33
   2 -16  -1   -1.40    8.42
  -2  16  -1   -1.70    2.87
   2 -16   1    0.12    8.01
  -2  16   1   -2.40    4.91
  -2  16   1   -1.83    2.88
   2 -16   1    1.10    1.99
   1 -16  -1    7.70    8.37
  -1  16  -1    0.12    2.84
   1 -16  -1    1.66    1.96
  -1  16  -1    1.92    4.77
   1 -16   1    2.51    7.97
  -1  16   1    3.13    2.88
  -1  16   1    2.78    4.37
   1 -16   1   -0.69    2.04
   0 -16  -1    1.07    1.90
   0  16  -1    1.17    4.45
   0 -16  -1   -8.97    9.32
   0  16  -1   -1.19    2.76
   0 -16   1    9.85    8.49
   0  16   1  -10.28    2.97
   0 -16   1    0.68    1.92
   0  16   1    5.40    4.06
  -1 -16  -1    2.74   10.15
   1  16  -1   -0.26    3.69
   1  16  -1   -2.95    2.71
  -1 -16  -1    3.46    1.90
   1  16   1   -0.36    2.82
   1  16   1    0.64    3.60
  -1 -16   1    2.59    1.89
  -1 -16   1    1.66    9.16
   2  16  -1   -2.99    2.84
  -2 -16  -1    3.71    1.93
   2  16  -1    1.55    3.57
  -2 -16  -1   20.90   11.41
   2  16   1   -0.72    3.27
   2  16   1   -1.17    2.80
  -2 -16   1    3.18    9.98
  -2 -16   1    4.02    1.88
   3  16  -1   -0.11    3.03
   3  16  -1    2.38    2.83
  -3 -16  -1    9.44   12.31
  -3 -16  -1    0.10    1.74
   3  16   1    0.47    3.05
  -3 -16   1   -8.85   11.45
  -3 -16   1    1.35    1.80
  -4 -16  -1    8.92   12.95
  -4 -16  -1    1.23    1.85
   4  16  -1   -0.35    3.07
  -4 -16   1   14.85   12.16
  -4 -16   1   -2.36    1.78
   4  16   1   -0.12    3.19
   5  16  -1    0.13    3.25
  -5 -16  -1   -7.77   13.26
  -5 -16  -1    1.49    1.82
   5  16   1    0.13    3.31
  -5 -16   1    1.69   12.80
  -5 -16   1    1.22    1.85
  -6 -16  -1   16.38   14.24
  -6 -16   1   20.29   14.20
  -7 -16   1    2.50   12.71
  -5  17  -1   -4.17    3.24
  -5  17  -1    3.34    6.71
   5 -17  -1   -1.20    2.34
   5 -17   1   -4.51    2.47
  -5  17   1   -0.88    6.91
   4 -17  -1    5.20    8.81
   4 -17  -1   -2.39    2.22
  -4  17  -1    1.15    3.33
  -4  17  -1   -1.28    6.75
   4 -17   1    0.12    2.21
   4 -17   1   -0.65    8.60
  -4  17   1   -5.24    6.34
  -3  17  -1    0.61    6.03
   3 -17  -1   -2.78    2.22
  -3  17  -1   -0.62    3.24
   3 -17  -1  -13.82    9.47
   3 -17   1   -3.71    8.73
  -3  17   1    0.93    3.29
  -3  17   1    1.20    5.84
   3 -17   1    0.23    2.26
   2 -17  -1   -5.38    2.26
  -2  17  -1   -5.69    5.71
   2 -17  -1  -19.49   10.16
  -2  17  -1    2.79    3.31
  -2  17   1   -1.10    5.52
   2 -17   1   -1.77    2.28
   2 -17   1   -5.19    9.50
  -2  17   1   -8.43    3.37
  -1  17  -1   10.37    7.21
  -1  17  -1   16.07    5.69
   0  17  -1   24.07    9.10
   2  17  -1   -1.20    4.22
   2  17  -1   -9.44    3.33
   2  17   1   -4.71    3.98
  -2 -17   1  -10.84    2.40
   2  17   1   -0.66    3.43
  -3 -17  -1   -0.11    1.99
  -3 -17  -1  -28.46   14.09
   3  17  -1    0.13    3.53
   3  17  -1    3.58    3.16
   3  17   1    0.13    3.04
  -3 -17   1    0.43    1.96
   3  17   1    0.26    3.50
  -3 -17   1  -29.57   12.94
   4  17  -1   -1.28    3.10
  -4 -17  -1   -0.34    2.01
   4  17  -1    1.55    3.30
  -4 -17  -1   18.16   14.64
   4  17   1    0.97    3.38
  -4 -17   1   -0.11    2.02
  -4 -17   1    4.22   13.44
  -5 -17  -1   -1.25   14.58
   5  17  -1    0.28    3.34
  -5 -17  -1   -0.12    2.02
  -5 -17   1    1.69    1.93
   5  17   1   -0.30    3.57
  -5 -17   1  -11.01   14.03
  -6 -17  -1  -10.58   14.98
   6  17  -1   -0.15    3.46
  -6 -17   1    0.12    2.02
  -6 -17   1    3.25   14.39
   6  17   1    1.09    3.53
  -7 -17   1   -2.73   14.16
  -5  18  -1   -0.96    7.61
   5 -18  -1   -2.19    2.63
  -5  18  -1    0.95    3.56
   5 -18   1    0.27    2.62
  -5  18   1    4.49    7.33
  -4  18  -1    1.15    7.10
   4 -18  -1   -7.98    9.78
   4 -18  -1    0.13    2.57
  -4  18  -1   -1.45    3.48
   4 -18   1   -8.70    9.48
  -4  18   1   -4.74    3.89
   4 -18   1    2.81    2.45
  -4  18   1    9.07    6.44
   3 -18  -1   -1.48   10.43
   3 -18  -1    0.12    2.36
  -3  18  -1   -1.76    6.55
  -3  18  -1    0.34    3.61
  -3  18   1    1.93    6.42
  -3  18   1    0.18    3.55
   3 -18   1    5.69    9.64
   3 -18   1   -2.62    2.50
  -2  18  -1    2.97    3.65
   2 -18  -1    0.12    2.37
  -2  18  -1   -6.69    6.10
   2 -18  -1  -14.46   11.01
  -2  18   1  -10.04    6.01
  -2  18   1   -0.66    3.52
   2 -18   1  -14.75   10.29
   2 -18   1   -3.81    2.41
  -1  18  -1   11.56    5.76
   1 -18  -1   -0.12    2.41
  -1  18  -1    0.16    3.60
   1 -18  -1    4.91   10.60
  -1  18   1   -7.76    5.40
   1 -18   1    5.39   10.51
  -1  18   1    0.96    3.51
   1 -18   1    1.45    2.32
   0 -18  -1   18.84   11.72
   0 -18  -1    2.53    2.32
   0  18  -1    8.64    3.71
   0  18  -1   13.05    5.19
   0 -18   1    3.49   10.63
   0  18   1   -4.99    5.03
   0 -18   1    2.30    2.49
   0  18   1   -4.18    3.60
  -1 -18  -1   40.13   12.59
   1  18  -1    0.48    4.55
  -1 -18  -1    4.96    2.36
   1  18  -1    3.43    3.53
  -1 -18   1   -1.30   11.54
   1  18   1   -5.67    3.65
   1  18   1    4.60    4.46
  -1 -18   1   -0.12    2.33
  -2 -18  -1    6.11   13.36
   2  18  -1    0.15    4.09
   2  18  -1   -2.95    3.46
  -2 -18  -1   -0.12    2.25
  -2 -18   1    7.26   12.21
   2  18   1    2.88    4.17
   2  18   1    0.15    3.64
  -2 -18   1   -0.12    2.27
   3  18  -1   -2.15    3.50
   3  18  -1    0.72    3.95
  -3 -18  -1   -2.49    2.20
  -3 -18  -1   -7.97   14.51
  -3 -18   1   -0.66   13.15
   3  18   1   -1.89    3.52
   3  18   1    3.94    3.92
  -3 -18   1    0.60    2.12
  -4 -18  -1   15.82   15.86
   4  18  -1    0.45    3.86
  -4 -18  -1    3.71    2.30
   4  18  -1   -1.26    3.67
   4  18   1    0.31    3.88
  -4 -18   1   -6.99   14.26
  -4 -18   1   -2.60    2.23
   4  18   1   -3.96    3.68
   5  18  -1   -2.96    3.66
  -5 -18  -1   -6.29   16.14
  -5 -18  -1   -3.64    2.20
   5  18  -1   -1.09    3.78
   5  18   1    0.99    4.03
  -5 -18   1   -3.41    2.22
  -5 -18   1   10.95   15.09
  -6 -18  -1  -12.57   16.54
   6  18  -1    1.97    4.37
  -6 -18   1    1.45    2.30
   6  18   1    0.51    4.43
  -6 -18   1    2.81   16.09
  -7 -18   1  -10.79   15.70
  -5  19  -1   10.12    7.80
  -5  19  -1    0.21    3.91
   5 -19  -1   -2.13    2.88
  -5  19   1   -0.26    8.05
   5 -19   1    0.73    2.80
  -4  19  -1  -24.37    7.46
  -4  19  -1   -3.83    3.93
   4 -19  -1   11.69   11.30
   4 -19  -1    4.68    2.83
  -4  19   1    4.07    4.25
   4 -19   1   -0.80   10.61
   4 -19   1    2.12    2.78
  -4  19   1   -1.94    7.13
  -3  19  -1   -3.53    6.90
   3 -19  -1   -0.14    2.78
  -3  19  -1    2.13    4.00
  -3  19   1    0.20    4.09
  -3  19   1    2.29    6.81
  -2  19  -1  -10.85    7.13
  -2  19  -1   -5.00    4.55
  -2  19   1   -9.61    4.67
  -2  19   1  -12.95    6.94
  -1  19  -1   60.37   28.24
   1 -19  -1   88.99   24.88
  -1  19  -1   72.71   28.93
  -1  19   1  107.31   28.98
   1 -19   1   63.15   24.91
   0 -19  -1   68.91   38.02
   0 -19  -1  127.72   27.61
   0  19  -1  139.00   30.36
   0 -19   1   33.98   36.23
   0 -19   1   92.40   27.65
   0  19   1  122.28   30.23
   2  19  -1   -4.35    6.75
   2  19   1  -14.57    5.00
   3  19  -1   -0.16    4.03
  -3 -19  -1  -10.79    2.61
   3  19  -1    0.16    4.80
   3  19   1    1.37    4.63
   3  19   1   -2.96    4.05
  -3 -19   1  -11.22    2.83
   4  19  -1    0.16    3.91
   4  19  -1   -1.51    4.15
  -4 -19  -1    1.64   16.81
  -4 -19  -1    2.99    2.43
  -4 -19   1  -26.58   15.61
  -4 -19   1   -2.19    2.53
   4  19   1    3.05    3.98
   4  19   1    1.61    4.38
  -5 -19  -1   -0.14    2.42
  -5 -19  -1    8.89   17.79
   5  19  -1   -1.08    3.94
   5  19  -1   -0.35    4.30
  -5 -19   1    4.39   16.68
   5  19   1    0.64    4.03
  -5 -19   1    0.14    2.44
   5  19   1    0.19    4.38
  -6 -19  -1    9.50   17.86
   6  19  -1    0.72    4.33
  -6 -19   1   -4.52   16.76
   6  19   1    0.19    4.36
  -7 -19   1   -9.35   17.04
  -3  20  -1    2.51    7.43
   3 -20  -1    0.15    3.11
   3 -20  -1   -0.18   10.94
   3 -20   1   -3.97    2.94
  -3  20   1   -2.70    7.31
  -2  20  -1    3.57    7.02
  -2  20  -1   -0.63    4.67
   2 -20  -1   -0.15    2.87
   2 -20  -1   -3.41   13.80
  -2  20   1   -2.56    6.78
   2 -20   1   10.51   12.72
   2 -20   1   -1.05    2.94
   1 -20  -1    0.45    2.79
  -1  20  -1   11.23    6.71
  -1  20  -1    7.89    4.66
   1 -20  -1   25.20   14.44
  -1  20   1    2.88    4.68
  -1  20   1  -16.94    6.43
   1 -20   1    0.15    2.91
   1 -20   1    0.74   13.43
   0  20  -1   10.70    4.74
   0 -20  -1   -2.97    3.07
   0 -20  -1   -3.37   14.55
   0  20  -1    7.05    6.12
   0 -20   1   -9.33   13.88
   0 -20   1    4.64    3.05
   0  20   1   12.08    5.92
   0  20   1    2.96    4.89
  -1 -20  -1   13.49   15.45
  -1 -20  -1    0.15    2.79
   1  20  -1   -2.08    4.36
   1  20  -1   11.37    5.47
   1  20   1    0.97    4.57
   1  20   1   -2.37    5.65
  -1 -20   1   -2.23    2.85
  -1 -20   1   -7.58   14.21
   2  20  -1    4.62    4.43
  -2 -20  -1    0.15    2.75
  -2 -20  -1  -29.07   16.55
   2  20  -1  -14.46    5.25
   2  20   1   -1.71    4.66
   2  20   1  -16.22    5.42
  -2 -20   1    7.99    2.79
  -2 -20   1   -9.49   15.21
   3  20  -1   -3.74    5.06
  -3 -20  -1   -5.52    2.75
   3  20  -1   -3.64    4.44
  -3 -20  -1    9.71   17.02
  -3 -20   1  -11.20   16.13
   3  20   1    7.89    5.07
  -3 -20   1    0.91    2.71
   3  20   1    0.75    4.46
  -4 -20  -1   -3.16    2.79
   4  20  -1    0.18    4.39
  -4 -20  -1    1.58   18.35
   4  20  -1    0.19    4.68
  -4 -20   1   -2.06   16.97
  -4 -20   1   -2.12    2.66
   4  20   1    7.20    4.62
   4  20   1   -0.20    5.07
   5  20  -1   -1.39    4.93
   5  20  -1   -5.14    4.38
  -5 -20  -1    4.65    2.74
  -5 -20   1    4.49   17.73
   5  20   1    2.70    4.93
  -5 -20   1   -7.13    2.75
   6  20  -1    0.17    3.68
   6  20  -1    0.40    4.63
  -6 -20   1   41.18   18.69
   1   0  -2   -0.01    0.02
   1   0  -2    0.00    0.01
   0   1  -2   -0.01    0.10
  -1   0   2    0.01    0.03
   0  -1   2    0.03    0.04
   0  -1   2   -0.01    0.05
  -1   0   2   -0.01    0.02
  -1   0   2   -0.01    0.02
  -1  -1   2    0.58    0.17
   1  -2  -2    3.45    0.74
   1  -2  -2    1.14    1.00
  -1   2   2    3.01    0.75
   0   2  -2   19.30    5.12
   2   0  -2   18.14    4.86
   0   2  -2   18.18    5.57
   0  -2  -2   22.63    5.00
   0  -2  -2   12.22    5.77
   0  -2   2   23.11    5.02
   0   2   2   21.02    5.22
   0  -2   2   15.33    4.98
   0  -2   2   13.53    5.90
  -1  -2  -2    2.03    0.59
   1   2  -2    1.04    0.54
   1   2  -2    2.34    0.62
  -1  -2   2    2.44    0.57
   1   2   2    1.96    0.70
  -1  -2   2    1.02    0.83
  -1  -2   2    1.93    0.55
  -1  -2   2    2.92    0.57
   2  -2  -2    1.80    1.18
   2   2  -2    2.67    0.72
  -2   2   2    2.97    0.80
  -2  -2   2    2.68    0.74
   2  -3  -2   20.19    4.93
   2  -3  -2   16.29    5.69
  -2   3   2   17.98    5.06
  -1   3  -2    0.67    0.32
   1  -3  -2    0.64    0.26
   1  -3  -2    0.31    0.94
   1  -3   2    0.45    0.94
  -1   3   2    0.45    0.29
   0   3  -2   -0.14    0.23
   0   3  -2   -0.27    0.45
   0  -3  -2   -0.14    0.16
   0  -3   2   -0.04    0.19
   0   3   2   -0.05    0.33
   0  -3   2    0.04    0.18
   0  -3   2    0.02    0.81
   0  -3   2   -0.04    0.17
   1   3  -2    0.29    0.36
   1   3  -2    0.41    0.17
  -1  -3  -2    0.22    0.24
   1   3   2    0.42    0.35
  -1  -3   2    0.22    0.87
  -1  -3   2    0.46    0.18
  -1  -3   2    0.82    0.21
  -1  -3   2    0.71    0.20
   2   3  -2   25.30    5.19
  -2  -3   2   16.46    5.76
  -2  -3   2   12.04    4.78
  -2  -3   2   18.65    4.88
   3   3  -2   -0.09    0.14
  -3  -3   2    0.05    0.18
   3  -4  -2   12.58    6.10
  -3   4   2   23.17    5.19
   2  -4  -2    4.76    2.60
   2  -4  -2    7.67    1.97
  -2   4   2    8.18    2.02
   1  -4  -2    0.43    1.31
   1  -4  -2   -0.04    0.28
  -1   4  -2   -0.06    0.41
   1  -4   2    0.05    0.30
   1  -4   2    0.03    1.37
  -1   4   2    0.36    0.34
   0   4  -2    0.54    0.64
   0  -4  -2    0.92    0.32
   0   4  -2    0.62    0.38
   0  -4   2    0.59    0.32
   0   4   2    0.47    0.53
   0  -4   2    0.68    1.21
   0  -4   2    0.64    0.29
   0  -4   2    0.84    0.32
   1   4  -2   -0.13    0.52
  -1  -4  -2    0.10    0.24
   1   4  -2   -0.07    0.51
   1   4  -2    0.16    0.13
  -1  -4   2    0.23    0.14
  -1  -4   2    0.18    0.23
  -1  -4   2    0.06    1.27
  -1  -4   2    0.23    0.22
   1   4   2   -0.12    0.43
  -2  -4  -2    8.64    1.92
   2   4  -2    7.19    2.01
   2   4  -2    7.03    1.83
  -2  -4  -2    7.61    2.57
  -2  -4   2    6.42    1.91
  -2  -4   2    6.55    1.90
  -2  -4   2    3.62    2.58
  -2  -4   2    6.26    1.85
   2   4   2    6.65    2.17
   3   4  -2   23.39    5.97
   3   4  -2   15.45    6.65
  -3  -4   2   24.91    7.40
  -3  -4   2   23.17    6.13
  -3  -4   2   22.31    6.11
  -1   5  -2    3.11    0.86
   1  -5  -2    2.30    0.75
   1  -5   2    1.13    0.76
   1  -5   2    2.73    0.80
   1  -5   2    4.73    1.95
   0   5  -2    0.12    0.43
   0   5  -2    0.06    0.83
   0  -5  -2    0.13    0.33
   0  -5   2    0.07    0.25
   0  -5   2    0.58    1.62
   0   5   2   -0.50    0.75
   0  -5   2   -0.12    0.34
   0  -5   2   -0.02    0.36
   1   5  -2    0.95    0.58
   1   5  -2    3.13    0.97
  -1  -5  -2    2.23    0.68
   1   5  -2    2.03    0.95
  -1  -5   2    2.92    0.65
   1   5   2    1.75    0.83
  -1  -5   2    2.58    0.66
  -1  -5   2    2.01    0.59
  -1  -5   2    2.82    1.89
   2   5  -2   27.67    6.90
   2   5  -2   21.76    6.52
  -2  -5   2   17.27    8.18
  -2  -5   2   24.25    6.56
  -2  -5   2   28.68    6.77
   3   5  -2    6.13    1.72
   3   5  -2    3.62    1.45
  -3  -5   2    6.24    1.49
  -3  -5   2    3.76    1.51
  -3  -5   2    6.82    1.53
  -3  -5   2    7.17    2.69
   4  -6  -2    0.94    0.76
  -4   6   2    1.43    0.99
   3  -6  -2   26.07    9.93
  -3   6   2   38.22    8.84
   2  -6  -2    1.07    2.40
  -2   6  -2    1.78    1.01
   2  -6  -2    1.96    0.80
  -2   6   2    2.42    0.93
   2  -6   2    2.19    0.85
   2  -6   2    1.08    2.66
  -1   6  -2    4.57    1.34
  -1   6   2    4.51    1.28
   1  -6   2    3.79    1.20
   1  -6   2    2.80    2.57
   0   6  -2    1.88    1.39
   0  -6   2    2.15    0.73
   0  -6   2    3.07    0.83
  -1  -6  -2   -0.03    0.92
  -1  -6  -2    5.22    2.82
   1   6  -2    3.37    0.81
   1   6  -2    2.69    1.32
  -1  -6  -2    4.06    0.87
  -1  -6   2    2.51    0.82
  -1  -6   2    3.50    0.90
  -2  -6  -2    3.14    2.75
   2   6  -2    2.30    0.66
  -2  -6  -2    2.75    0.80
  -2  -6   2    2.08    0.74
  -2  -6   2    1.99    0.67
   2   6   2    2.07    1.06
   3   6  -2   26.04    9.26
  -3  -6  -2   47.14   11.10
  -3  -6  -2   29.41    9.38
  -3  -6   2   30.45    9.53
   3   6   2   35.91   10.07
  -3  -6   2   36.82    9.38
   4   6  -2    1.38    0.96
  -4  -6   2    0.08    2.53
   4  -7  -2   -0.10    0.84
   4  -7  -2    1.98    3.25
  -4   7   2    0.39    1.09
   3  -7  -2    8.33    2.07
  -3   7  -2    7.13    2.26
   3  -7  -2    8.92    3.84
  -3   7   2    4.99    2.23
   3  -7   2    5.48    2.09
   2  -7  -2    2.31    2.62
   2  -7  -2    1.85    0.74
  -2   7  -2    1.60    0.98
   2  -7  -2    0.89    0.46
   2  -7   2    1.51    0.81
  -2   7   2    1.31    0.88
   2  -7   2   -0.05    2.86
   1  -7  -2   -0.03    0.62
  -1   7  -2    0.59    0.79
  -1   7   2   -0.06    1.45
   1  -7   2    0.05    0.48
   1  -7   2    0.55    2.51
   1  -7   2   -0.04    0.66
   0   7  -2    1.02    1.46
   0   7  -2   -0.59    1.32
   0   7  -2    0.07    0.71
   0  -7  -2   -0.13    0.27
   0  -7  -2   -0.61    0.57
   0   7   2    0.02    0.68
   0  -7   2   -0.07    0.58
   0   7   2   -0.14    0.11
   0   7   2   -0.51    1.18
   0  -7   2    0.26    0.48
   0  -7   2    0.18    2.56
   0  -7   2   -0.11    0.29
   1   7  -2    0.17    0.23
  -1  -7  -2    0.34    0.53
   1   7  -2    0.26    1.14
  -1  -7  -2    0.29    0.28
   1   7  -2    0.10    1.10
  -1  -7  -2   -0.85    3.11
   1   7   2   -0.40    1.01
  -1  -7   2   -0.40    0.45
  -1  -7   2   -1.31    2.91
  -1  -7   2   -0.26    0.53
  -1  -7   2   -0.09    0.25
  -2  -7  -2    1.15    0.67
   2   7  -2    1.37    0.45
  -2  -7  -2    1.92    3.20
   2   7  -2    1.35    1.12
  -2  -7   2    1.21    0.45
   2   7   2    2.56    1.00
  -2  -7   2   -5.33    3.39
  -2  -7   2    1.50    0.63
  -2  -7   2    0.81    0.56
   3   7  -2    7.19    2.40
  -3  -7  -2    7.54    2.23
  -3  -7  -2    9.71    3.98
   3   7   2    4.73    2.51
  -3  -7   2    8.65    2.19
  -3  -7   2    9.87    4.24
  -4  -7  -2   -0.75    2.85
   4   7  -2   -0.77    1.11
  -4  -7   2    0.16    0.65
  -4  -7   2   -4.15    3.39
  -4  -7   2    2.20    0.55
  -5  -7   2   -8.50    3.96
   5  -8  -2   15.61    4.22
  -5   8   2   15.59    4.40
   4  -8  -2   20.00    8.19
  -4   8   2   25.53    6.81
   3  -8  -2    2.26    0.92
   3  -8  -2   -7.74    3.78
  -3   8  -2    1.16    1.18
  -3   8   2    1.47    1.17
   3  -8   2   -1.98    3.75
   3  -8   2    2.76    1.00
   2  -8  -2    2.47    0.92
   2  -8  -2   -1.76    3.45
   2  -8  -2    2.20    0.54
  -2   8  -2    0.97    1.17
   2  -8   2    0.73    0.97
   2  -8   2   -9.73    3.74
  -2   8   2    2.29    1.13
   2  -8   2    1.79    0.89
   1  -8  -2   -0.77    0.72
   1  -8  -2    0.08    0.12
  -1   8  -2   -0.10    0.94
   1  -8   2   -0.25    0.49
  -1   8   2    0.16    0.12
   1  -8   2   -2.98    2.92
   1  -8   2   -0.04    0.77
  -1   8   2   -0.52    1.65
   0  -8  -2    2.63    0.66
   0   8  -2    3.19    1.82
   0  -8  -2    3.11    0.87
   0   8  -2    2.28    1.09
   0   8  -2    1.86    1.67
   0   8   2    1.78    1.10
   0   8   2    1.49    0.59
   0  -8   2    3.94    0.92
   0  -8   2    2.46    0.84
   0   8   2    1.09    1.50
   0  -8   2    1.54    0.65
   0  -8   2    4.32    3.19
   1   8  -2    0.06    0.27
  -1  -8  -2   -0.25    0.65
   1   8  -2   -1.54    1.41
  -1  -8  -2   -0.01    0.32
   1   8  -2   -0.10    1.42
  -1  -8  -2    0.05    3.72
  -1  -8   2   -5.39    3.67
   1   8   2   -0.32    0.86
  -1  -8   2    0.60    0.57
  -1  -8   2    0.06    0.30
   1   8   2   -0.52    1.25
  -1  -8   2   -0.45    0.67
  -2  -8  -2    2.11    0.65
   2   8  -2   -1.65    1.71
   2   8  -2   -2.64    1.66
  -2  -8  -2    1.36    0.84
   2   8  -2    2.42    0.60
  -2  -8   2    3.09    0.61
   2   8   2    1.86    1.25
  -2  -8   2    1.11    0.76
  -2  -8   2   -0.45    0.93
   3   8  -2   -4.30    1.57
  -3  -8  -2    0.89    0.84
   3   8   2    0.54    1.34
  -3  -8   2   -0.79    0.89
   4   8  -2   32.78    7.61
  -4  -8  -2   24.21    7.22
  -4  -8  -2   24.53    9.45
  -4  -8   2   16.55    9.87
  -4  -8   2   27.41    7.45
   4   8   2   17.44    7.82
  -4  -8   2   34.21    7.20
   5   8  -2    6.12    3.12
  -5  -8   2   10.24    2.71
  -5  -8   2   10.35    5.21
   5  -9  -2   11.08    3.34
  -5   9   2   12.15    3.59
   4  -9  -2    0.63    1.09
  -4   9  -2    0.42    1.40
   4  -9  -2    0.27    3.97
   4  -9   2    1.20    1.17
  -4   9   2    0.08    1.39
   3  -9  -2   25.75    5.95
  -3   9  -2   27.45    6.30
   3  -9  -2   12.00    7.52
   3  -9   2   20.97    7.71
   3  -9   2   25.09    5.99
  -3   9   2   16.92    6.19
   2  -9  -2    0.05    0.90
  -2   9  -2    0.50    1.21
  -2   9   2   -0.17    1.17
   2  -9   2   -0.17    0.67
   2  -9   2   -0.53    3.65
   2  -9   2    0.96    0.96
  -1   9  -2    0.27    1.07
   1  -9  -2    0.04    0.81
   1  -9   2    0.43    0.87
  -1   9   2   -0.07    2.02
   1  -9   2    0.98    3.33
   1  -9   2    0.43    0.47
   0   9  -2   -1.87    1.96
   0  -9  -2    3.09    4.28
   0  -9  -2    0.46    0.80
   0   9  -2    0.05    1.03
   0   9  -2    0.54    1.75
   0   9   2    0.31    1.63
   0  -9   2    0.27    0.69
   0  -9   2   -1.88    3.44
   0  -9   2   -0.22    0.78
   0  -9   2    0.38    0.35
   1   9  -2    0.06    1.57
   1   9  -2    1.76    1.02
   1   9  -2    0.36    1.66
  -1  -9  -2   -5.11    4.47
  -1  -9  -2   -0.38    0.79
   1   9  -2    0.22    0.32
   1   9   2   -0.22    1.46
   1   9   2   -0.38    1.05
  -1  -9   2    0.23    0.31
  -1  -9   2    0.57    0.75
  -1  -9   2    0.19    0.63
  -1  -9   2   -3.17    3.87
   2   9  -2   -0.21    1.35
  -2  -9  -2   -1.78    4.81
  -2  -9  -2    0.02    0.45
  -2  -9  -2    0.13    0.78
   2   9   2   -0.21    1.23
  -2  -9   2    2.29    4.39
  -2  -9   2   -0.08    0.70
  -3  -9  -2   19.33    8.86
   3   9  -2   24.33    6.13
  -3  -9  -2   22.75    6.26
  -3  -9  -2   13.01    5.89
  -3  -9   2   13.18    8.69
  -3  -9   2   21.15    5.89
  -3  -9   2   27.11    6.16
   3   9   2   24.36    6.25
  -3  -9   2   24.11    6.00
  -4  -9  -2   -0.64    4.62
   4   9  -2    0.46    1.32
  -4  -9  -2   -0.06    0.85
  -4  -9   2    1.21    0.71
  -4  -9   2    0.48    0.84
  -4  -9   2   -5.75    5.24
   4   9   2   -0.07    1.56
   5   9  -2    8.93    3.31
  -5  -9   2   10.97    2.93
  -5  -9   2    2.31    6.09
  -5  -9   2   11.48    2.91
  -6  -9   2    8.38    2.26
  -6  -9   2    3.94    5.21
   5 -10  -2    6.53    2.33
   5 -10  -2    8.58    5.32
  -5  10   2    7.35    2.59
  -4  10  -2   22.24    5.44
   4 -10  -2   18.35    5.18
   4 -10   2   17.43    5.25
  -4  10   2   20.02    5.41
   3 -10  -2   -0.06    4.18
  -3  10  -2    2.10    1.55
   3 -10  -2    2.02    1.14
  -3  10   2    0.65    1.47
   3 -10   2    1.55    4.13
   3 -10   2    0.90    1.24
  -2  10  -2    2.58    1.53
   2 -10  -2    3.43    1.26
   2 -10   2    4.49    4.34
  -2  10   2   -0.67    2.81
   2 -10   2    2.58    1.35
   1 -10  -2   -0.20    0.91
  -1  10  -2    0.24    1.17
  -1  10   2    1.44    2.45
   1 -10   2    0.05    0.98
   1 -10   2    5.76    3.81
   0 -10  -2    0.72    0.95
   0  10  -2    1.46    2.35
   0 -10  -2    0.07    4.67
   0  10  -2    1.23    1.25
   0 -10   2    1.12    0.98
   0 -10   2    0.05    3.98
   0  10   2    1.33    1.28
   0  10   2    2.29    1.99
  -1 -10  -2   -1.77    0.88
   1  10  -2   -0.69    1.15
   1  10  -2    1.00    1.76
   1  10  -2   -1.30    1.85
  -1 -10  -2    0.07    5.11
  -1 -10   2    0.28    0.85
  -1 -10   2    1.73    4.57
   1  10   2   -0.93    1.62
   2  10  -2    2.51    1.64
  -2 -10  -2   -3.87    5.57
  -2 -10  -2    2.63    0.93
   2  10  -2   -0.03    0.52
   2  10   2    2.33    1.48
  -2 -10   2    1.92    5.00
  -2 -10   2    1.85    0.89
   3  10  -2    2.69    1.79
   3  10  -2    1.38    0.78
   3  10  -2    3.44    1.59
  -3 -10  -2    1.34    1.12
  -3 -10  -2   12.48    5.82
  -3 -10   2    2.21    0.80
  -3 -10   2   -4.26    5.48
  -3 -10   2    3.08    0.99
   3  10   2    3.56    1.67
  -3 -10   2    2.71    1.11
  -4 -10  -2    6.70    7.37
   4  10  -2   12.45    3.76
  -4 -10  -2   13.63    3.46
   4  10   2   12.00    3.90
  -4 -10   2   12.46    7.43
  -4 -10   2    8.39    3.41
  -4 -10   2   13.89    3.66
  -5 -10  -2   10.75    5.75
   5  10  -2    4.35    2.44
   5  10   2    3.97    2.54
  -5 -10   2    2.91    6.31
  -5 -10   2    8.90    1.98
  -5 -10   2    5.82    1.99
  -6 -10   2    0.38    0.82
  -6 -10   2    1.32    5.81
   5 -11  -2    3.60    6.27
   5 -11  -2    8.79    2.84
  -5  11   2   11.01    3.20
   4 -11  -2  -13.04    5.02
  -4  11  -2    0.30    1.72
   4 -11  -2   -0.95    1.36
  -4  11   2   -0.92    1.74
   4 -11   2   -2.73    1.44
  -3  11  -2    3.15    1.91
   3 -11  -2    3.91    1.56
   3 -11   2    4.10    1.64
  -3  11   2    2.87    1.88
   3 -11   2    1.74    4.66
  -2  11  -2   -0.92    1.53
   2 -11  -2    0.06    1.14
  -2  11   2    2.78    2.96
   2 -11   2   -1.54    4.72
   2 -11   2    0.19    1.20
   1 -11  -2    1.01    1.12
  -1  11  -2    0.34    1.45
  -1  11  -2    3.12    2.97
   1 -11   2   -2.41    4.45
  -1  11   2    1.71    2.66
   1 -11   2    1.43    1.22
   0  11  -2    1.55    2.60
   0 -11  -2   -4.84    5.62
   0 -11  -2   -1.14    1.07
   0  11  -2   -0.58    1.40
   0 -11   2   -0.87    4.59
   0 -11   2    0.06    1.06
   0  11   2    1.31    2.23
   0  11   2    0.85    1.43
  -1 -11  -2    1.35    1.03
  -1 -11  -2   -2.26    6.10
   1  11  -2    0.62    2.24
   1  11  -2    0.24    1.36
   1  11   2   -0.92    1.81
  -1 -11   2   -0.53    0.98
  -1 -11   2   -0.40    5.06
  -2 -11  -2    1.26    1.05
  -2 -11  -2   -0.52    6.56
   2  11  -2    1.47    1.87
   2  11   2    0.79    1.74
  -2 -11   2    0.37    1.04
  -2 -11   2    8.42    5.82
  -3 -11  -2    5.53    1.46
  -3 -11  -2   -0.09    7.01
   3  11  -2    3.50    1.98
  -3 -11   2    3.10    1.42
   3  11   2    2.91    1.98
  -3 -11   2   -3.69    6.68
  -4 -11  -2  -17.60    7.24
  -4 -11  -2   -0.39    1.11
   4  11  -2   -0.93    1.78
  -4 -11   2    1.05    1.08
   4  11   2   -0.56    1.84
  -4 -11   2   -4.18    6.82
   5  11  -2   11.78    3.14
  -5 -11  -2    9.27    7.39
  -5 -11   2   -0.45    7.77
   5  11   2    3.81    3.23
  -5 -11   2   11.07    2.69
  -6 -11   2   -4.85    6.93
   4 -12  -2    0.74    1.50
   4 -12  -2    2.37    5.65
  -4  12  -2    1.70    1.98
   4 -12   2    2.21    1.64
   4 -12   2   -0.09    5.26
  -4  12   2    1.60    2.07
   3 -12  -2   -0.35    1.39
  -3  12  -2   -0.29    1.86
   3 -12   2    2.05    1.48
   3 -12   2   -3.01    5.18
  -3  12   2   -2.57    3.77
  -3  12   2    0.53    1.86
   2 -12  -2   -1.04    1.23
  -2  12  -2    0.60    1.78
   2 -12   2   -8.15    5.54
  -2  12   2    2.70    3.51
   2 -12   2   -0.63    1.34
   1 -12  -2   -2.83    1.53
  -1  12  -2    1.16    1.64
  -1  12  -2    5.77    3.40
  -1  12   2   -0.08    1.81
   1 -12   2    9.96    5.02
  -1  12   2   -0.84    3.30
   1 -12   2   -0.59    1.29
   1  12  -2    2.69    2.62
   1  12  -2    0.35    1.71
   1  12   2   -0.16    2.42
  -1 -12   2   17.29    5.96
  -2 -12  -2   -2.03    1.19
   2  12  -2   -0.08    2.11
   2  12  -2    0.84    1.66
  -2 -12   2   -0.06    1.17
   2  12   2   -0.82    2.01
   3  12  -2    1.41    1.88
  -3 -12  -2    0.13    1.20
  -3 -12  -2    3.86    7.72
   3  12   2    0.23    1.92
  -3 -12   2    0.49    1.14
  -3 -12   2   -0.09    7.23
   4  12  -2    1.98    1.98
  -4 -12  -2   -3.99    8.28
  -4 -12  -2    3.55    1.38
   4  12   2    0.43    2.16
  -4 -12   2    1.33    7.79
  -4 -12   2    1.61    1.27
  -5 -12  -2   -2.20    1.36
   5  12  -2   -1.27    2.02
  -5 -12  -2   -4.29    8.06
  -5 -12   2    4.12    8.24
  -5 -12   2   -0.07    1.15
   5  12   2   -1.39    2.23
   6  12  -2   -1.36    2.10
  -6 -12   2    0.31    8.18
  -7 -12   2    1.20    7.85
   6 -13  -2    4.59    1.99
  -6  13   2    1.99    2.43
   5 -13  -2   -0.09    1.65
   5 -13  -2    0.49    6.18
  -5  13   2    8.46    2.73
  -2  13  -2    2.62    4.38
  -2  13   2    2.35    3.88
  -1  13  -2    0.78    2.00
   1 -13  -2    1.48    1.48
  -1  13  -2   -0.89    3.91
   1 -13   2    0.15    5.45
  -1  13   2    3.15    3.44
   1 -13   2   -0.94    1.40
   0  13  -2    0.67    3.47
   0  13   2    4.91    2.05
   0 -13   2    1.31    5.74
   0  13   2    0.31    2.96
   1  13  -2   -0.56    1.99
  -1 -13  -2    0.82    1.47
   1  13  -2    1.95    2.94
   1  13   2    8.19    2.07
  -1 -13   2   13.56    6.66
  -1 -13   2    1.15    1.42
   1  13   2    0.64    2.65
  -2 -13  -2   -1.24    1.32
   2  13  -2    0.55    1.85
   2  13  -2   -0.52    2.33
  -2 -13   2    0.40    1.28
   2  13   2    1.18    2.25
  -2 -13   2   -5.39    7.55
  -3 -13  -2    0.66    1.39
   3  13  -2   -0.40    2.09
  -3 -13   2    4.48    8.37
   3  13   2   -0.84    2.17
  -3 -13   2    0.07    1.25
   4  13  -2    2.37    2.20
  -4 -13   2    0.50    1.36
  -4 -13   2    9.77    8.58
   6  13  -2    0.10    2.34
  -6 -13  -2    6.57    8.78
   6 -14  -2    0.10    1.93
  -6  14   2    1.71    2.50
   5 -14  -2    0.21    6.89
   5 -14  -2    0.18    1.71
  -5  14   2    1.05    2.54
   4 -14  -2    1.57    1.94
  -4  14  -2    4.01    2.57
  -4  14   2    2.45    4.86
   4 -14   2    3.62    1.99
  -4  14   2    0.73    2.57
   3 -14  -2   -0.08    1.55
  -3  14  -2    0.58    2.25
  -3  14   2   -2.33    4.54
   3 -14   2   -7.65    6.14
   3 -14   2    0.72    1.67
  -2  14  -2    1.89    2.78
   2 -14  -2    0.08    2.31
   2 -14   2   13.21    2.28
  -2  14   2    7.45    4.41
   2 -14   2    5.98    6.64
   1 -14  -2    4.42    1.59
  -1  14  -2    1.08    2.19
   1 -14  -2   -6.68    7.19
  -1  14   2    0.60    2.16
   1 -14   2   -4.53    6.11
   0 -14  -2   -0.08    1.47
   0 -14  -2   11.21    7.83
   0  14   2    0.48    2.20
  -1 -14  -2   -0.08    1.31
  -1 -14  -2   -0.45    8.77
   1  14   2   -1.70    2.24
  -2 -14  -2   21.53    9.93
  -2 -14  -2    8.12    2.26
   2  14   2    0.85    2.92
  -3 -14  -2    2.86    1.54
  -3 -14  -2   -1.67    9.85
   3  14   2    0.94    2.47
  -4 -14  -2    1.46    1.51
  -4 -14  -2   -6.29   10.62
   4  14   2   -0.81    2.63
  -5 -14  -2   -1.45    1.59
  -5 -14  -2  -16.50   10.71
   5  14   2   -1.37    2.84
  -5 -14   2   11.01   10.36
   6  14  -2    0.45    2.72
  -6 -14  -2   13.91   10.42
  -6 -14   2   13.73   10.32
  -7 -14   2   -2.53   10.23
   6 -15  -2    5.54    2.20
  -6  15   2    0.31    2.81
   5 -15  -2    2.98    2.12
   5 -15  -2    1.83    7.26
  -5  15   2    4.18    2.89
   4 -15  -2    2.83    1.88
  -4  15  -2    0.14    2.57
  -4  15   2   -7.82    5.38
   4 -15   2   -2.87    2.02
   4 -15   2    5.85    6.77
  -4  15   2    3.08    2.70
  -3  15  -2    0.13    2.64
   3 -15  -2    0.09    1.80
  -3  15  -2    7.15    5.36
   3 -15   2    0.10    1.97
   3 -15   2    0.52    6.85
  -3  15   2    5.05    5.07
  -2  15  -2    0.59    2.51
   2 -15  -2    0.09    1.77
   2 -15  -2    0.10    7.50
  -2  15  -2   -0.33    4.87
  -2  15   2   -2.77    2.53
   2 -15   2   -2.11    1.84
  -2  15   2    6.64    4.53
   2 -15   2  -11.90    7.59
   1 -15  -2    0.18    1.77
   1 -15  -2   -2.32    8.11
  -1  15  -2    0.22    2.46
  -1  15  -2   -0.61    4.71
  -1  15   2    3.95    4.15
  -1  15   2    1.68    2.64
   1 -15   2    1.34    1.80
   1 -15   2   -9.46    7.49
   0 -15  -2    3.91    1.75
   0  15  -2   -0.52    2.32
   0  15  -2    2.17    4.01
   0 -15  -2    7.95    8.87
   0 -15   2   -2.87    1.66
   0 -15   2    1.44    7.41
   0  15   2   -2.42    2.57
   0  15   2   -3.92    3.69
  -1 -15  -2    0.35    1.67
   1  15  -2    0.36    3.40
  -1 -15  -2   -7.07    9.86
   1  15  -2    1.13    2.41
  -1 -15   2    0.09    1.71
   1  15   2   -0.91    3.05
   1  15   2    1.91    2.55
  -1 -15   2   -2.04    8.21
  -2 -15  -2    2.54    1.71
   2  15  -2    0.54    3.07
  -2 -15  -2    8.36   11.17
   2  15  -2    1.20    2.45
   2  15   2   -7.70    2.63
  -2 -15   2    0.08    1.66
  -2 -15   2    0.87    9.00
   2  15   2   -0.11    2.83
  -3 -15  -2    0.14   11.60
   3  15  -2   -0.10    2.86
   3  15  -2    1.10    2.41
  -3 -15  -2    1.18    1.73
  -3 -15   2    2.79    1.65
   3  15   2   -0.74    2.84
  -3 -15   2   -6.67   10.11
  -4 -15  -2    0.47    1.75
   4  15  -2    0.41    2.65
  -4 -15  -2   -9.59   11.77
  -4 -15   2    1.49    1.61
  -4 -15   2    9.09   10.93
   4  15   2   -2.48    2.70
   5  15  -2    0.55    2.80
  -5 -15  -2   -0.79    1.62
  -5 -15  -2   -9.94   11.95
  -5 -15   2   -5.39   11.14
  -5 -15   2   -3.22    1.64
   5  15   2    0.50    2.76
   6  15  -2    0.61    2.87
  -6 -15  -2   -6.48   11.87
  -6 -15   2    2.62   11.22
  -6 -15   2    0.99    1.64
  -7 -15   2    4.87   11.29
   6 -16  -2    0.92    2.27
  -6  16   2    1.01    2.99
   5 -16  -2    0.86    2.10
   5 -16  -2   15.66    8.13
  -5  16   2   -2.53    3.07
  -5  16   2   -9.30    6.32
  -4  16  -2   -8.51    6.21
   4 -16  -2   -0.10    1.97
  -4  16  -2    5.98    2.94
  -4  16   2    8.81    5.91
   4 -16   2    3.96    7.59
   4 -16   2    1.56    2.24
  -3  16  -2    0.19    5.78
  -3  16  -2   -0.14    2.89
   3 -16  -2   -3.20    2.00
   3 -16   2    1.15    7.61
   3 -16   2   -1.68    2.05
  -3  16   2   -8.40    5.62
   2 -16  -2    6.40    8.57
   2 -16  -2    0.89    2.01
  -2  16  -2   -0.36    5.21
  -2  16  -2    0.13    2.83
  -2  16   2   -2.38    4.94
   2 -16   2   10.54    7.99
  -2  16   2    3.81    2.95
   2 -16   2    1.92    2.06
   1 -16  -2   -0.12    8.77
   1 -16  -2    4.49    1.95
  -1  16  -2   -0.66    4.83
  -1  16  -2   -0.49    2.67
  -1  16   2    3.02    2.84
  -1  16   2   -1.07    4.44
   1 -16   2   -5.86    7.89
   1 -16   2   -0.59    1.96
   0 -16  -2    2.63    9.53
   0  16  -2   -0.29    4.27
   0  16  -2   -1.90    2.60
   0 -16  -2    1.95    1.92
   0  16   2    5.95    3.86
   0 -16   2    0.11    8.11
   0 -16   2   -0.10    1.92
   0  16   2   -0.99    2.89
   1  16  -2    0.26    3.87
  -1 -16  -2    9.57   10.56
   1  16  -2    3.71    2.70
  -1 -16  -2    0.10    1.86
  -1 -16   2   -1.92    1.97
   1  16   2    2.78    2.85
  -1 -16   2    3.60    8.85
   1  16   2    6.40    3.63
  -2 -16  -2   -1.49   11.71
   2  16  -2    2.53    2.73
   2  16  -2    0.36    3.37
  -2 -16  -2    0.49    1.76
   2  16   2    0.12    2.77
   2  16   2   -0.84    3.20
  -2 -16   2    0.38    1.81
  -2 -16   2  -11.96    9.79
  -3 -16  -2    1.62    1.85
  -3 -16  -2   21.91   13.16
   3  16  -2   -0.11    2.76
   3  16  -2    0.23    3.07
  -3 -16   2   -6.07   10.54
  -3 -16   2    0.09    1.79
   3  16   2    0.73    3.08
   4  16  -2    1.59    3.07
  -4 -16  -2   14.67   13.19
  -4 -16  -2   -1.26    1.96
   4  16  -2    2.60    2.81
  -4 -16   2    0.39    1.82
  -4 -16   2  -31.33   11.91
   4  16   2   -0.88    3.11
   5  16  -2    1.22    3.28
  -5 -16  -2   -4.88    1.84
  -5 -16  -2    1.99   13.53
  -5 -16   2    2.03    1.89
   5  16   2   -0.14    3.40
  -5 -16   2   -0.30   12.47
   6  16  -2   -0.53    3.54
  -6 -16  -2  -13.79   13.76
  -6 -16   2   -6.13    1.98
   6  16   2    0.44    3.32
  -6 -16   2  -21.40   12.95
  -7 -16   2   -1.37   12.23
   6 -17  -2    0.12    2.35
  -6  17   2    1.84    3.38
  -6  17   2    1.83    7.00
   5 -17  -2    1.05    2.32
  -5  17   2    5.92    6.67
  -5  17   2   -2.96    3.43
  -4  17  -2  -27.07    7.89
   4 -17  -2   -2.59    2.20
  -4  17  -2    3.45    3.16
   4 -17   2  -13.12    9.36
   4 -17   2   -4.70    2.39
  -4  17   2    0.21    6.37
   3 -17  -2    6.71    2.25
   3 -17  -2   12.72    9.81
  -3  17  -2   -6.84    3.25
   3 -17   2    2.98    2.22
   3 -17   2  -19.76    9.05
  -3  17   2    3.71    5.92
   2 -17  -2   -3.60    2.17
  -2  17  -2   -1.76    3.16
  -2  17  -2    0.39    5.74
   2 -17   2    1.23    2.18
  -2  17   2   -7.65    5.58
  -2  17   2    2.36    3.30
   2 -17   2  -17.62    9.23
  -1  17  -2    6.36    5.70
  -1  17   2    5.28    3.62
   2  17  -2    0.13    3.17
   2  17  -2   -1.20    4.08
   2  17   2   -1.46    3.23
  -2 -17   2   -1.70    2.23
   2  17   2   -6.10    3.67
  -3 -17  -2  -13.44   13.87
  -3 -17  -2    6.63    2.11
   3  17  -2   -1.01    3.09
   3  17  -2    0.25    3.53
   3  17   2    2.04    3.53
  -3 -17   2    2.88    2.00
   3  17   2   -0.13    3.32
  -3 -17   2  -30.89   12.44
   4  17  -2   -0.38    3.39
  -4 -17  -2   14.08   14.61
   4  17  -2   -0.12    3.11
  -4 -17  -2   -3.03    2.12
  -4 -17   2    2.95   12.89
  -4 -17   2   -0.22    1.97
   4  17   2   -2.82    3.42
  -5 -17  -2   -1.64   14.67
  -5 -17  -2   -2.27    2.10
   5  17  -2   -0.14    3.31
  -5 -17   2   -4.69    1.97
  -5 -17   2   11.30   13.40
   5  17   2    0.91    3.41
   6  17  -2   -1.16    3.38
  -6 -17  -2    2.19   14.76
   6  17   2   -0.48    3.57
  -6 -17   2   -4.23    2.10
  -6 -17   2   -2.15   13.90
  -7 -17   2    0.99   13.54
  -6  18   2   42.54   12.76
  -6  18   2   30.58   10.45
   5 -18  -2  -10.07    2.63
  -5  18   2    0.58    3.69
  -5  18   2    2.83    7.25
  -4  18  -2   -0.18    3.47
   4 -18  -2    0.12    2.44
  -4  18  -2   12.71    7.25
   4 -18   2   -6.63    9.46
   4 -18   2    0.13    2.45
  -4  18   2   -0.45    6.98
  -3  18  -2    5.34    3.59
   3 -18  -2   -4.41    2.36
  -3  18  -2   14.83    6.71
   3 -18  -2  -11.34   10.54
  -3  18   2   -0.17    3.79
   3 -18   2    0.28    9.31
   3 -18   2   -2.77    2.46
  -3  18   2    1.49    6.31
   2 -18  -2   -7.50   11.06
  -2  18  -2    4.79    6.32
   2 -18  -2   -0.12    2.31
  -2  18  -2    2.32    3.52
   2 -18   2   -9.82   10.00
   2 -18   2   -3.32    2.51
  -2  18   2   -2.36    5.57
  -2  18   2    0.17    3.67
  -1  18  -2   12.26    3.65
   1 -18  -2   -3.13    2.42
  -1  18  -2    5.14    5.64
   1 -18  -2  -18.15   11.02
   1 -18   2    6.32    2.55
  -1  18   2    0.80    3.68
  -1  18   2   -3.13    5.35
   1 -18   2   -0.14   10.41
   0  18  -2    1.36    3.55
   0  18  -2   10.60    5.22
   0 -18  -2   15.46   11.85
   0 -18  -2    3.75    2.57
   0  18   2    5.06    4.85
   0 -18   2    0.14    9.96
   0 -18   2    0.12    2.49
   0  18   2    6.76    3.88
  -1 -18  -2   -8.20   12.88
   1  18  -2   -0.16    4.56
   1  18  -2   -9.37    3.37
  -1 -18  -2    1.93    2.24
  -1 -18   2   11.49   10.68
  -1 -18   2    1.08    2.23
   1  18   2    5.56    4.36
   1  18   2   -0.77    3.66
   2  18  -2   -0.15    4.25
  -2 -18  -2   15.92   13.99
   2  18  -2   -0.29    3.56
  -2 -18  -2    3.44    2.44
  -2 -18   2    5.42    2.43
  -2 -18   2  -12.28   11.79
   2  18   2    4.98    3.83
   2  18   2    5.99    4.24
  -3 -18  -2   16.97   15.09
   3  18  -2    0.29    3.91
  -3 -18  -2    2.12    2.32
   3  18  -2    4.01    3.39
  -3 -18   2    3.44    2.26
   3  18   2   -7.98    3.72
   3  18   2    7.51    4.17
  -3 -18   2   14.51   12.99
   4  18  -2   -0.14    3.35
  -4 -18  -2  -11.57   15.86
  -4 -18  -2    1.68    2.18
   4  18  -2    0.71    3.75
   4  18   2    7.47    4.09
  -4 -18   2   -2.68   13.72
  -4 -18   2   -2.09    2.18
   5  18  -2   -0.61    3.88
  -5 -18  -2   -1.19    2.17
   5  18  -2    1.10    3.42
  -5 -18  -2   -9.02   16.50
   5  18   2   -0.51    4.05
  -5 -18   2    0.98    2.17
  -5 -18   2   12.31   14.74
   6  18  -2    2.56    6.43
  -6 -18  -2   57.21   19.17
   6  18   2    1.75    6.88
  -6 -18   2    6.20    4.87
  -6 -18   2   43.01   17.50
  -7 -18   2  -12.26   15.51
   5 -19  -2   -5.06    2.93
  -5  19   2   -6.37    7.58
  -4  19  -2   10.23    4.12
  -4  19  -2   10.09    7.84
   4 -19  -2   -3.95    2.84
  -4  19   2    8.20    7.12
   4 -19   2   -1.57    2.91
  -3  19  -2    1.34    4.12
   3 -19  -2   -3.90    2.71
  -3  19  -2   18.91    7.41
   3 -19   2   -5.83    2.69
  -3  19   2  -16.17    6.98
  -3  19   2    3.33    4.44
  -2  19  -2  -15.96    4.62
   2 -19  -2   31.69   15.08
  -2  19  -2  -23.10    7.16
   2 -19  -2  -12.91    3.29
  -2  19   2   -9.25    6.72
   2 -19   2  -11.76    3.28
   2 -19   2   33.17   13.56
   0 -19  -2  138.23   31.55
   0  19  -2   51.03   33.44
   0  19   2  147.93   33.66
  -1 -19   2 1000.00  248.13
   2  19  -2  -15.78    5.01
  -2 -19   2  -37.66   18.16
  -3 -19  -2   -2.99    2.56
   3  19  -2    0.64    3.85
   3  19  -2   -0.48    4.62
   3  19   2    1.04    4.51
  -3 -19   2   -0.53    2.56
   3  19   2   -6.14    4.18
  -4 -19  -2    3.01    2.51
  -4 -19  -2  -23.17   17.48
   4  19  -2   -0.16    3.69
   4  19  -2    1.16    4.24
   4  19   2   -9.93    4.07
   4  19   2  -10.61    4.56
  -4 -19   2    1.09    2.43
  -4 -19   2   11.68   14.82
   5  19  -2   -0.90    3.86
  -5 -19  -2    0.15    2.47
   5  19  -2    0.17    4.28
  -5 -19  -2   -2.21   17.69
  -5 -19   2    0.14    2.35
   5  19   2   -5.67    4.50
  -5 -19   2   10.36   15.75
   6  19  -2    0.15    3.86
  -6 -19  -2   -4.82   18.42
   6  19  -2    0.18    4.15
  -6 -19   2   10.29   16.35
  -6 -19   2   -1.28    2.38
  -7 -19   2    2.17   16.04
  -3  20  -2    3.23    4.44
  -3  20  -2   -9.01    7.67
   3 -20  -2    4.04    3.10
   3 -20   2   10.03    3.12
  -3  20   2  -14.67    7.51
   3 -20   2   -2.43   11.59
  -2  20  -2   -2.70    4.36
  -2  20  -2   -1.91    7.07
   2 -20  -2   -1.94    2.95
   2 -20   2   -2.43   12.19
   2 -20   2    0.30    2.79
  -2  20   2   10.07    4.75
  -2  20   2   -4.89    6.85
  -1  20  -2   -1.35    6.48
   1 -20  -2    8.95   14.99
  -1  20  -2   -5.40    4.26
   1 -20  -2   -7.37    2.90
  -1  20   2  -18.71    6.66
   1 -20   2    0.30    2.92
   1 -20   2    6.74   13.23
  -1  20   2    0.82    4.68
   0 -20  -2    5.13    3.00
   0  20  -2   -3.58    6.13
   0  20  -2    2.72    4.14
   0 -20  -2  -21.18   15.28
   0 -20   2   -9.38    2.97
   0  20   2   -5.98    5.58
   0  20   2    2.20    4.64
   0 -20   2   10.35   13.86
   1  20  -2    0.19    4.36
  -1 -20  -2    5.88    2.98
  -1 -20  -2   11.53   15.73
   1  20  -2   -4.10    5.61
   1  20   2   10.38    4.81
   1  20   2   -2.98    5.66
  -1 -20   2   16.59   13.50
  -1 -20   2    0.45    2.87
  -2 -20  -2    9.05   17.08
  -2 -20  -2    1.57    2.93
   2  20  -2   -3.35    5.02
   2  20  -2    1.82    4.20
  -2 -20   2    7.13   14.18
   2  20   2   -2.70    4.78
  -2 -20   2    0.59    2.83
   2  20   2   14.44    5.37
  -3 -20  -2  -18.13   17.72
   3  20  -2   -0.36    5.12
   3  20  -2   -4.29    4.24
  -3 -20  -2    0.47    2.84
  -3 -20   2  -19.73   15.14
   3  20   2   -2.60    4.69
  -3 -20   2    4.53    2.79
   3  20   2    7.25    5.19
   4  20  -2    1.05    4.32
  -4 -20  -2   -2.22    2.79
   4  20  -2    0.37    4.90
  -4 -20   2   -0.19   15.78
  -4 -20   2    0.15    2.63
   4  20   2   -6.66    3.87
   4  20   2    0.62    4.95
  -5 -20  -2    6.80    2.95
   5  20  -2   -1.18    4.25
   5  20  -2   -0.57    4.59
  -5 -20   2   -2.29    2.59
  -5 -20   2   -4.61   16.33
   5  20   2    2.80    4.96
   6  20  -2   -0.79    4.59
   6  20  -2   -1.63    4.21
  -6 -20   2   -5.17    2.67
  -6 -20   2   -0.21   16.89
  -7 -20   2  -16.60   16.66
   0   0  -3    0.02    0.14
   0   0   3   -0.04    0.08
   0   0   3   -0.01    0.10
   0   1  -3   62.12   15.94
   0  -1  -3   61.30   16.03
   0  -1  -3   62.88   15.79
  -1   0   3   71.18   15.76
  -1   0   3   58.27   15.74
   0  -1   3   64.40   15.78
   1   1  -3    0.07    0.23
  -1   1   3    0.05    0.08
  -1  -1   3    0.03    0.09
  -1   1   3   -0.01    0.05
   1  -2  -3   16.68    4.00
   1  -2  -3   12.33    4.64
   2   0  -3    0.10    0.07
   0   2  -3    0.14    0.43
   0  -2  -3    0.04    0.60
   0  -2  -3   -0.06    0.12
   0   2  -3    0.01    0.17
  -2   0   3    0.04    0.09
   0   2   3    0.04    0.22
   0  -2   3   -0.07    0.17
   0  -2   3    0.01    0.57
   0  -2   3    0.09    0.16
   2  -1  -3   16.62    4.20
   1   2  -3   13.19    4.68
   1   2  -3   19.20    4.46
  -2   1   3   12.17    4.35
  -1  -2   3   19.22    4.19
  -1  -2   3   14.05    4.29
  -1  -2   3   11.60    4.90
  -1  -2   3   17.68    4.26
   2   2  -3    0.04    0.10
   2   2  -3    0.21    0.24
   2  -2  -3    0.13    0.89
   2  -2  -3    0.14    0.20
  -2  -2   3    0.08    0.56
  -2  -2   3    0.10    0.11
  -2   2   3    0.21    0.26
  -2  -2   3    0.01    0.16
   2  -3  -3    2.08    0.54
   2  -3  -3    1.32    1.25
   3   2  -3    1.31    0.46
  -2   3   3    2.13    0.58
  -3  -2   3    1.37    0.48
   1  -3  -3    6.34    2.53
   1  -3  -3    7.87    2.02
   0  -3  -3    4.22    0.99
   0  -3  -3    2.97    1.51
   0   3  -3    3.52    1.21
   0   3  -3    3.72    1.03
   0  -3   3    2.51    0.99
   0   3   3    4.08    1.06
   0  -3   3    3.54    1.01
   0  -3   3    1.93    1.44
   0  -3   3    3.82    1.00
   1   3  -3    7.02    2.17
  -1  -3  -3    8.32    2.11
  -1  -3  -3    5.32    2.64
   1   3  -3    5.51    2.30
  -1  -3   3    9.41    2.03
  -1  -3   3    6.46    2.00
  -1  -3   3    8.81    2.06
  -1  -3   3    5.04    2.51
   1   3   3   10.83    2.36
   2   3  -3    2.77    0.62
   2   3  -3    1.50    0.50
  -2  -3   3    2.08    0.53
  -2  -3   3    0.95    0.50
  -2  -3   3    2.18    0.53
  -2  -3   3    2.52    1.07
   3   3  -3   -0.02    0.16
  -3  -3   3   -0.05    0.93
  -3  -3   3    0.02    0.25
  -3   3   3   -0.07    0.42
  -3  -3   3    0.31    0.20
   4   3  -3    0.40    0.21
   3  -4  -3    0.11    1.93
   3  -4  -3    0.03    0.42
  -3   4   3   -0.04    0.59
   2  -4  -3   25.73    5.36
   2  -4  -3   13.23    6.21
  -2   4   3   20.17    5.45
   1  -4  -3    3.66    1.04
   1  -4  -3    2.09    1.82
  -1   4  -3    3.95    1.14
   1  -4   3    3.87    1.08
   1  -4   3    2.80    1.85
  -1   4   3    4.39    1.25
   0  -4  -3    0.10    1.37
   0  -4  -3   -0.09    0.25
   0   4  -3   -0.29    0.69
   0   4  -3   -0.04    0.35
   0  -4   3    0.02    0.30
   0  -4   3   -0.09    1.18
   0  -4   3    0.02    0.30
   0  -4   3    0.07    0.26
   0   4   3    0.22    0.49
   1   4  -3    3.47    1.15
   1   4  -3    2.80    1.24
  -1  -4  -3    4.17    1.03
  -1  -4   3    1.99    1.66
  -1  -4   3    3.97    1.00
   1   4   3    3.73    1.16
  -1  -4   3    3.81    1.02
  -1  -4   3    3.10    0.97
  -2  -4  -3   17.21    5.69
   2   4  -3   20.26    5.42
   2   4  -3   24.78    5.82
  -2  -4   3   24.44    5.62
  -2  -4   3   21.85    5.64
  -2  -4   3   20.15    6.68
   2   4   3   11.65    6.35
  -2  -4   3   17.52    5.48
   3   4  -3   -0.06    0.60
   3   4  -3   -0.16    0.20
  -3  -4   3   -0.05    0.30
  -3  -4   3   -0.05    1.47
  -3  -4   3   -0.02    0.30
  -3  -4   3   -0.05    0.22
  -4   5   3    2.70    1.15
   2  -5  -3   -0.03   10.57
   1  -5  -3    3.27    1.19
  -1   5  -3    5.08    1.32
   1  -5   3    3.84    2.37
   1  -5   3    4.13    1.24
  -1   5   3    3.86    1.52
   1  -5   3    3.85    1.23
   0  -5  -3    2.25    0.58
   0   5  -3    1.27    0.67
   0   5  -3    1.51    1.10
   0   5   3    0.79    0.85
   0  -5   3    0.48    1.77
   0  -5   3    1.16    0.61
   0  -5   3    1.58    0.61
   0  -5   3    2.27    0.56
   1   5  -3    3.74    1.46
  -1  -5  -3    3.74    1.24
   1   5  -3    2.74    1.54
  -1  -5   3    4.90    1.21
  -1  -5   3    4.82    1.17
  -1  -5   3    4.26    1.23
  -1  -5   3    3.74    2.22
   1   5   3    4.35    1.39
   2   5  -3   90.21   23.15
   2   5  -3   89.66   24.34
  -2  -5   3   91.41   23.93
  -2  -5   3   89.38   23.70
  -2  -5   3   64.22   27.51
  -2  -5   3   96.60   23.30
   3   5  -3   25.29    8.23
   3   5  -3   37.08    8.90
  -3  -5   3   30.95    8.55
  -3  -5   3   25.78    8.47
  -3  -5   3   32.81    8.33
  -3  -5   3   32.15   10.25
   4  -6  -3    9.29    3.74
   4  -6  -3    7.40    2.17
  -4   6   3    7.16    2.31
   3  -6  -3    1.26    0.77
   3  -6  -3   -0.18    2.83
  -3   6   3    2.08    0.91
   2  -6  -3    0.79    0.60
  -2   6  -3    0.10    0.79
   2  -6  -3    2.12    2.45
   2  -6   3    1.18    2.57
   2  -6   3    0.28    0.64
  -2   6   3    0.30    0.75
   1  -6  -3    1.07    0.52
   1  -6  -3   -0.22    2.52
  -1   6  -3    0.43    0.75
   1  -6   3    0.31    0.58
  -1   6   3    0.42    0.71
  -1   6   3    2.67    1.20
   1  -6   3    0.95    2.54
   0  -6  -3    1.25    0.47
   0   6  -3    0.41    1.29
   0   6   3    2.68    0.98
   0  -6   3    0.06    0.41
   0  -6   3   -0.05    0.52
  -1  -6  -3    1.28    0.52
   1   6  -3    0.02    1.09
  -1  -6   3    0.19    0.29
  -1  -6   3    0.24    0.45
   1   6   3    1.34    0.83
  -2  -6  -3    0.96    0.52
   2   6  -3    0.13    0.25
  -2  -6   3    0.24    0.42
  -2  -6   3   -0.03    0.25
   2   6   3    0.64    0.92
  -3  -6  -3    3.70    2.27
  -3  -6  -3    1.95    0.67
   3   6   3    0.67    1.07
  -3  -6   3   -0.02    0.51
   4   6  -3    6.41    1.67
  -4  -6   3    7.65    3.31
  -4  -6   3    4.93    1.71
  -5  -6   3    0.51    2.61
  -5  -6   3    0.87    0.53
   5  -7  -3   -0.57    0.91
   4  -7  -3   -5.91    3.60
   4  -7  -3    0.52    0.85
  -4   7   3    0.13    1.11
   3  -7  -3    7.80    3.63
   3  -7  -3    6.36    1.93
  -3   7   3    5.96    2.08
   2  -7  -3    0.36    0.66
  -2   7  -3    0.33    0.90
   2  -7  -3    0.28    2.72
   2  -7   3    0.32    0.76
   2  -7   3    0.62    3.00
  -2   7   3    0.21    0.84
  -1   7  -3   -0.09    0.88
   1  -7  -3   -0.51    2.97
   1  -7  -3    1.16    0.62
   1  -7   3    0.69    0.62
  -1   7   3    0.99    0.81
  -1   7   3    0.21    1.40
   1  -7   3    4.19    2.67
   1  -7   3    0.59    0.72
   0   7  -3   10.21    3.88
   0  -7  -3   12.23    3.08
   0   7  -3    9.82    3.22
   0  -7   3   12.20    3.01
   0  -7   3    9.55    3.11
   0  -7   3   12.89    3.20
   0   7   3   13.43    3.39
   0  -7   3    5.08    4.32
   1   7  -3    1.45    0.77
   1   7  -3    0.64    1.25
  -1  -7  -3    0.84    0.61
   1   7  -3    0.59    1.27
  -1  -7  -3    1.07    0.36
   1   7   3    0.48    1.00
  -1  -7   3   -1.33    2.66
  -1  -7   3    0.88    0.56
  -1  -7   3    0.74    0.39
  -1  -7   3    1.41    0.60
  -2  -7  -3    0.04    0.59
   2   7  -3   -0.02    0.23
   2   7  -3   -0.71    1.19
   2   7  -3   -1.55    1.05
  -2  -7  -3   -2.31    3.14
  -2  -7   3    0.28    0.48
   2   7   3   -0.47    0.97
  -2  -7   3   -0.09    0.53
  -2  -7   3   -2.57    3.11
  -2  -7   3    1.29    0.30
  -3  -7  -3    4.85    1.93
  -3  -7  -3   11.38    3.71
   3   7  -3    8.10    2.11
  -3  -7   3    6.43    1.88
   3   7   3    4.54    2.24
  -3  -7   3    6.15    3.94
   4   7  -3    1.53    0.50
   4   7  -3   -0.39    1.39
  -4  -7   3   -9.40    3.64
  -4  -7   3    1.65    0.53
  -4  -7   3    1.49    0.66
  -4  -7   3    0.97    0.77
  -5  -7   3    0.53    0.58
   5  -8  -3    2.64    1.30
  -5   8   3    3.72    1.59
   4  -8  -3    2.96    3.86
   4  -8  -3    1.60    1.05
  -4   8   3    2.00    1.37
   3  -8  -3   11.50    2.86
  -3   8  -3   13.49    3.11
   3  -8  -3    3.43    4.67
  -3   8   3    7.28    3.01
   3  -8   3   10.86    2.88
   2  -8  -3    5.93    3.68
  -2   8  -3    2.95    1.54
   2  -8  -3    7.56    1.37
  -2   8   3    3.44    1.50
   2  -8   3    2.34    1.45
   2  -8   3   -4.65    4.03
   2  -8   3    4.19    1.37
   1  -8  -3    1.62    0.82
  -1   8  -3    3.14    1.08
  -1   8   3    0.81    1.84
   1  -8   3    1.58    0.90
  -1   8   3    1.90    1.04
   1  -8   3    0.86    0.75
   0   8  -3    0.43    0.92
   0   8  -3   -2.43    1.81
   0  -8  -3   -0.36    0.70
   0  -8  -3   -0.14    0.24
   0  -8   3   -2.14    3.21
   0  -8   3   -0.12    0.71
   0  -8   3   -0.29    0.42
   0   8   3   -0.29    0.67
   0   8   3   -0.16    1.43
   0  -8   3   -0.49    0.64
  -1  -8  -3    0.86    0.82
   1   8  -3    0.46    0.98
  -1  -8  -3    1.95    0.49
   1   8  -3   -2.05    1.73
   1   8  -3   -4.04    1.89
   1   8  -3    2.01    0.49
  -1  -8   3    1.02    0.79
   1   8   3    1.31    1.24
  -1  -8   3    1.38    0.50
  -1  -8   3    0.49    0.83
  -2  -8  -3    2.27    1.06
  -2  -8  -3    3.16    0.92
  -2  -8  -3   -0.55    4.45
   2   8   3    3.19    1.48
   3   8  -3    9.45    2.88
   3   8  -3    9.94    3.14
  -3  -8  -3    7.64    5.30
  -3  -8  -3   10.24    2.98
  -3  -8   3   10.36    2.94
  -3  -8   3   13.29    3.01
   3   8   3   11.06    3.29
  -3  -8   3    9.63    2.89
  -4  -8  -3    5.01    3.58
   4   8  -3    1.14    0.60
   4   8  -3    2.28    1.32
  -4  -8   3   -2.04    4.16
  -4  -8   3    1.29    0.64
   4   8   3    1.53    1.48
  -4  -8   3    1.49    0.84
  -4  -8   3    2.20    0.75
   5   8  -3    2.50    1.53
  -5  -8   3    3.46    4.16
  -5  -8   3    2.78    1.01
  -6  -8   3    5.42    4.59
  -6  -8   3    8.44    2.30
   5  -9  -3   22.60    4.52
   5  -9  -3    9.68    6.64
  -5   9   3   11.76    4.82
   4  -9  -3    1.64    5.04
   4  -9  -3   10.78    2.90
  -4   9   3   13.39    3.18
  -3   9  -3    2.52    1.44
   3  -9  -3    1.84    3.76
   3  -9  -3    2.44    1.18
  -3   9   3    2.86    1.34
   3  -9   3    1.06    1.22
   3  -9   3   -0.14    3.85
  -2   9  -3    1.05    1.28
   2  -9  -3    1.31    3.68
   2  -9  -3    1.13    1.00
   2  -9   3    1.11    1.09
   2  -9   3    2.99    0.94
  -2   9   3    0.84    1.25
  -2   9   3    4.16    2.38
   2  -9   3    5.38    3.80
  -1   9  -3    0.73    1.08
   1  -9  -3    0.82    0.83
   1  -9   3   -0.10    0.88
   1  -9   3    0.03    0.57
   1  -9   3    3.69    3.39
  -1   9   3   -1.08    1.85
  -1   9   3   -0.05    1.12
   0  -9  -3   -3.18    0.80
   0   9  -3    0.05    1.02
   0   9  -3   -0.60    1.86
   0   9  -3    0.37    2.04
   0  -9   3    0.22    0.83
   0  -9   3    1.23    0.41
   0  -9   3   -5.71    3.43
   0   9   3    0.37    1.56
   0  -9   3   -0.03    0.73
  -1  -9  -3    0.04    0.71
  -1  -9  -3    0.13    4.54
   1   9  -3   -0.43    1.74
   1   9  -3    0.04    0.98
   1   9   3   -0.86    1.31
  -1  -9   3    0.25    3.72
  -1  -9   3    0.40    0.77
   2   9  -3    0.41    0.42
   2   9  -3    1.51    1.43
  -2  -9  -3    0.67    0.79
  -2  -9  -3    0.07    4.73
  -2  -9   3    1.66    0.77
  -2  -9   3    0.46    0.42
  -2  -9   3    1.76    4.25
   2   9   3    0.73    1.32
  -3  -9  -3   -3.67    4.89
  -3  -9  -3    1.06    1.13
   3   9  -3    2.65    0.89
   3   9  -3    2.97    1.77
   3   9  -3    3.80    1.47
  -3  -9   3    3.47    1.04
   3   9   3    5.70    1.58
  -3  -9   3    0.81    4.67
  -3  -9   3    2.82    0.89
  -3  -9   3    2.47    1.06
   4   9  -3   15.75    3.51
  -4  -9  -3   13.75    5.92
  -4  -9  -3   13.10    3.31
  -4  -9   3    4.84    6.19
   4   9   3    8.76    3.69
  -4  -9   3   12.20    3.34
  -4  -9   3    9.24    3.22
  -4  -9   3   11.21    3.23
   5   9  -3   12.93    5.01
  -5  -9   3   19.05    4.59
  -5  -9   3    8.95    7.67
  -5  -9   3   19.21    4.74
  -6  -9   3    0.51    0.82
  -6  -9   3    0.66    4.85
   5 -10  -3    4.18    1.97
   5 -10  -3    6.52    5.14
  -5  10   3    6.11    2.35
   4 -10  -3    4.22    1.50
   4 -10  -3    1.92    4.68
  -4  10   3    2.76    1.92
   3 -10  -3    1.29    1.25
   3 -10  -3    1.05    4.11
  -3  10  -3    3.38    1.59
  -3  10   3    2.90    1.53
   3 -10   3   -0.44    4.27
   3 -10   3    2.37    1.35
   2 -10  -3    4.03    4.30
   2 -10  -3    2.35    1.28
  -2  10  -3    2.74    1.60
   2 -10   3    1.93    1.40
  -2  10   3    3.46    2.78
   2 -10   3    3.59    4.24
  -2  10   3    3.57    1.53
  -1  10  -3    3.77    1.70
   1 -10  -3    4.14    1.44
   1 -10   3    3.17    1.51
   1 -10   3    1.51    3.91
  -1  10   3    8.95    2.61
   0 -10  -3    1.01    0.90
   0  10  -3    0.42    2.35
   0  10  -3    0.23    1.21
   0 -10   3    0.55    0.95
   0  10   3    1.04    1.89
   0 -10   3   -1.44    3.84
   1  10  -3    3.31    1.51
  -1 -10  -3    2.52    1.27
  -1 -10  -3    4.81    5.41
   1  10  -3    3.74    2.16
  -1 -10   3    2.99    4.35
   1  10   3    1.29    1.78
  -1 -10   3    3.71    1.23
   2  10  -3    6.11    2.03
   2  10  -3    3.30    1.87
  -2 -10  -3    2.70    1.23
  -2 -10  -3    8.76    5.80
   2  10  -3    3.24    0.97
   2  10   3    3.35    1.65
  -2 -10   3    2.40    0.96
  -2 -10   3    1.91    1.21
  -2 -10   3    5.09    4.89
  -2 -10   3    3.84    1.20
  -3 -10  -3    2.41    1.07
   3  10  -3    0.91    1.90
   3  10  -3    1.64    1.56
  -3 -10  -3    5.19    6.05
   3  10  -3    2.55    0.78
  -3 -10   3    1.22    0.76
  -3 -10   3    2.47    1.05
  -3 -10   3    0.79    5.32
   3  10   3    2.32    1.66
  -3 -10   3    3.46    0.99
   4  10  -3    2.29    1.69
  -4 -10  -3    4.26    1.30
   4  10  -3    3.18    0.99
  -4 -10  -3    4.31    5.66
   4  10   3    1.11    1.93
  -4 -10   3    3.30    1.21
  -4 -10   3    2.79    1.13
  -4 -10   3    1.16    5.87
  -4 -10   3    2.84    0.99
   5  10  -3    7.08    2.43
  -5 -10   3    6.20    6.44
  -5 -10   3    5.87    1.96
  -5 -10   3    6.03    1.97
  -6 -10   3   -0.46    6.07
  -6 -10   3    5.97    1.73
   6 -11  -3    1.18    1.53
  -6  11   3   -0.34    1.92
   5 -11  -3    0.07    1.38
  -5  11   3    1.92    2.06
   4 -11  -3  -10.44    5.30
  -4  11  -3    3.82    1.75
   4 -11  -3   -2.45    1.39
   4 -11   3    3.31    1.51
  -4  11   3   -1.96    1.97
   3 -11  -3    0.93    1.27
   3 -11  -3   -2.53    4.64
  -3  11  -3    0.72    1.71
   3 -11   3    2.01    1.38
  -3  11   3    2.37    1.68
   3 -11   3    1.55    4.60
   2 -11  -3   -0.06    1.12
  -2  11  -3    0.79    1.54
   2 -11  -3    0.07    4.80
   2 -11   3   -3.12    4.58
   2 -11   3   -0.53    1.24
  -2  11   3   -0.14    1.58
  -2  11   3   -0.83    3.07
  -1  11  -3   -0.07    1.42
   1 -11  -3    0.17    1.05
   1 -11   3   -2.85    4.29
   1 -11   3   -0.36    1.16
  -1  11   3    3.19    2.54
   0  11  -3    8.92    2.51
   0  11  -3    7.84    3.51
   0 -11  -3    4.74    2.22
   0 -11   3   -1.26    4.95
   0 -11   3    7.48    2.23
   0  11   3   14.04    3.06
  -1 -11  -3   -1.09    6.33
   1  11  -3    1.21    1.32
  -1 -11  -3   -1.10    1.02
   1  11  -3    0.47    2.19
  -1 -11   3    0.27    0.98
   1  11   3   -0.07    1.90
  -1 -11   3   -2.32    4.72
   2  11  -3   -0.21    1.95
   2  11  -3    1.32    1.42
  -2 -11  -3    0.06    0.96
  -2 -11  -3   -2.98    6.59
  -2 -11   3    3.16    5.33
   2  11   3    0.40    1.64
  -2 -11   3    0.21    0.95
  -3 -11  -3    2.65    1.18
  -3 -11  -3    5.71    6.96
   3  11  -3    0.56    1.72
   3  11   3    0.92    1.81
  -3 -11   3    2.16    1.11
  -3 -11   3   -5.52    6.02
   4  11  -3    1.72    1.66
  -4 -11  -3    1.67    1.20
  -4 -11  -3   -0.48    6.69
  -4 -11   3    1.32    1.08
  -4 -11   3   -7.28    6.89
   4  11   3    1.57    1.90
   5  11  -3    2.28    1.87
   5  11   3    2.51    2.03
  -5 -11   3    1.06    1.19
  -5 -11   3   -2.85    7.05
   6  11  -3    0.45    1.88
  -6 -11   3   -0.86    0.95
  -6 -11   3    3.01    6.86
  -7 -11   3    0.64    1.03
  -7 -11   3    2.77    6.46
   5 -12  -3    0.15    1.64
  -5  12   3    7.55    2.23
  -4  12  -3    1.73    1.91
   4 -12  -3   -1.29    1.46
   4 -12  -3   16.28    5.92
   4 -12   3   -0.94    1.62
  -4  12   3   -2.84    2.10
   3 -12  -3    0.14    1.31
   3 -12  -3   -0.08    5.45
  -3  12  -3    0.39    1.84
   3 -12   3    0.17    5.03
   3 -12   3   -0.77    1.49
  -3  12   3    1.66    3.86
  -3  12   3    1.94    1.86
   2 -12  -3    0.52    1.31
  -2  12  -3    2.18    1.80
   2 -12   3    2.01    1.46
   2 -12   3   -2.93    5.13
  -2  12   3   -0.65    1.87
  -2  12   3    2.09    3.46
  -1  12  -3    2.69    3.65
   1 -12  -3   -1.45    1.93
  -1  12  -3    6.93    1.96
   1 -12   3  -10.06    5.27
   1 -12   3    6.58    1.59
   0  12  -3   -0.87    1.69
   0  12  -3   -2.39    3.08
   0 -12  -3   -5.81    1.69
   0 -12   3    1.01    5.11
   0  12   3   -1.21    1.98
   0 -12   3   -0.06    1.33
   1  12  -3    8.19    2.82
  -1 -12  -3   -0.06    1.77
   1  12  -3    4.76    1.86
   1  12   3    1.34    2.65
  -1 -12   3    5.59    1.47
  -1 -12   3   -8.35    5.93
   2  12  -3    2.77    1.70
   2  12  -3    3.11    2.23
  -2 -12  -3    1.95    1.32
  -2 -12   3   -4.50    6.42
  -2 -12   3    1.42    1.21
   2  12   3    1.42    1.98
   3  12  -3    0.84    1.94
  -3 -12  -3   -3.96    8.02
  -3 -12  -3    0.27    1.22
   3  12   3    0.08    1.92
  -3 -12   3   -3.62    7.01
  -3 -12   3    2.07    1.10
   4  12  -3   -0.56    1.88
  -4 -12  -3    0.98    7.85
  -4 -12  -3    0.43    1.21
   4  12   3   -0.80    2.14
  -4 -12   3    0.76    1.13
  -4 -12   3    0.36    7.52
   5  12  -3    2.30    2.12
   5  12   3    2.55    2.24
  -5 -12   3    0.58    8.06
   6  12  -3    0.76    2.11
  -6 -12   3   -1.69    7.84
  -7 -12   3    3.35    7.85
   6 -13  -3   -1.60    1.68
  -6  13   3   -1.97    2.36
   5 -13  -3   -0.08    1.28
   5 -13  -3    0.39    6.06
  -5  13   3    0.71    2.31
  -1  13  -3   -0.53    1.88
  -1  13  -3   -1.68    3.75
   1 -13  -3    0.14    1.46
   1 -13   3   -0.80    1.48
  -1  13   3   -1.91    3.26
   1 -13   3    1.26    5.64
   0  13  -3   -0.35    3.50
   0  13  -3    1.48    1.92
   0 -13  -3    2.37    1.42
   0 -13   3    0.49    1.42
   0  13   3    3.59    2.91
   0 -13   3    4.70    5.72
   1  13  -3    1.48    2.84
  -1 -13  -3    0.90    1.36
   1  13  -3    0.16    1.89
  -1 -13   3    1.69    1.37
   1  13   3    3.12    2.55
  -1 -13   3    5.62    6.21
  -2 -13  -3   -1.41    1.26
   2  13  -3   -0.69    2.46
   2  13  -3   -0.69    1.86
  -2 -13   3   -0.20    1.31
  -2 -13   3   -4.19    6.96
   2  13   3    1.18    2.31
   3  13  -3   -1.02    2.16
  -3 -13   3   -1.90    7.77
  -3 -13   3   -0.46    1.24
   4  13  -3    1.10    2.04
  -4 -13   3    4.92    8.42
  -4 -13   3   -0.07    1.23
   5  13  -3    0.09    2.35
  -5 -13   3    1.73    1.40
  -5 -13   3   14.42    9.32
   6  13  -3    0.41    2.39
  -6 -13   3   -1.49    1.44
   6 -14  -3    0.10    1.84
  -6  14   3   -3.54    2.54
   5 -14  -3   -3.16    6.94
   5 -14  -3    0.18    1.87
  -5  14   3    7.42    2.67
  -4  14  -3    1.64    2.53
   4 -14  -3  -13.20    7.41
   4 -14  -3    4.62    1.96
  -4  14   3   14.10    5.00
  -4  14   3   -3.11    2.65
   4 -14   3    8.54    2.23
  -3  14  -3   -0.58    2.36
   3 -14  -3    3.59    1.73
  -3  14   3    2.31    2.44
   3 -14   3    1.64    1.90
  -3  14   3    6.40    4.76
   3 -14   3    2.50    6.23
  -2  14  -3    1.28    2.22
   2 -14  -3   -0.24    1.63
   2 -14   3    2.96    6.42
  -2  14   3   -1.39    4.07
  -1  14  -3   -1.38    2.16
   1 -14  -3   -1.81    1.68
  -1  14   3    9.92    3.70
   0 -14  -3    7.85    2.28
   0 -14  -3   14.10    8.28
   0  14   3    9.30    3.44
   0  14   3   -1.26    2.87
  -1 -14  -3    7.27    2.55
  -1 -14  -3    4.10    9.38
   1  14   3   21.66    3.49
   1  14   3   -0.68    3.12
  -2 -14  -3    8.43    9.98
  -2 -14  -3   -0.31    1.68
   2  14   3    7.42    2.56
  -3 -14  -3    0.08    1.53
  -3 -14  -3    0.13   10.03
   3  14   3    0.39    2.42
  -4 -14  -3   -1.83    1.59
  -4 -14  -3   -2.18   10.48
   4  14   3    0.11    2.60
  -5 -14  -3   -8.52   10.69
  -5 -14  -3    0.09    1.59
   5  14   3    0.24    2.86
  -6 -14   3   -5.46    9.88
  -6 -14   3   -0.09    1.40
  -7 -14   3   -2.58   10.15
   6 -15  -3   -2.28    2.03
  -6  15   3   -3.85    3.00
   5 -15  -3   -0.69    1.90
   5 -15  -3   -3.67    7.26
  -5  15   3   -0.43    2.83
  -5  15   3    8.89    5.38
   4 -15  -3    0.55    1.86
  -4  15  -3    5.64    2.70
   4 -15  -3   -2.80    7.62
   4 -15   3    2.41    1.96
  -4  15   3   -0.71    5.39
  -4  15   3    3.84    2.84
   3 -15  -3    3.16    1.87
  -3  15  -3    0.35    5.35
  -3  15  -3   -5.36    2.68
   3 -15   3   -5.34    6.94
   3 -15   3   -0.10    1.96
  -3  15   3   -2.98    2.58
  -3  15   3   18.08    4.86
  -2  15  -3    2.01    5.06
   2 -15  -3    0.62    1.77
  -2  15  -3    0.12    2.46
   2 -15   3   -2.54    7.02
  -2  15   3    3.06    4.57
   2 -15   3    1.39    1.85
  -1  15  -3    0.15    4.40
  -1  15  -3    0.11    2.43
   1 -15  -3    0.11    8.37
   1 -15  -3    2.45    1.73
   1 -15   3   -1.36    7.27
   1 -15   3   -0.09    1.84
  -1  15   3   -5.99    2.61
  -1  15   3   -2.20    4.13
   0  15  -3   -3.03    2.35
   0 -15  -3    0.18    1.77
   0 -15  -3  -13.44    9.45
   0  15  -3   -0.96    4.25
   0 -15   3    2.02    1.82
   0  15   3    0.37    3.41
   0 -15   3    1.69    7.19
   0  15   3   -1.34    2.63
   1  15  -3    0.24    3.57
  -1 -15  -3   -0.88    1.73
   1  15  -3    0.10    2.37
  -1 -15  -3    4.23   10.19
  -1 -15   3   -3.43    1.72
  -1 -15   3   -2.80    7.72
   1  15   3    2.48    2.61
   1  15   3    1.59    3.14
  -2 -15  -3    0.98   10.85
  -2 -15  -3   -1.31    1.61
   2  15  -3    0.50    2.39
   2  15  -3    0.65    3.06
   2  15   3    3.00    2.87
  -2 -15   3   -1.85    1.65
  -2 -15   3   -9.52    8.65
   3  15  -3    0.60    2.79
  -3 -15  -3   -0.09    1.61
  -3 -15  -3    2.48   11.58
   3  15  -3    0.58    2.42
  -3 -15   3   -2.12    1.63
  -3 -15   3  -10.86    9.48
   3  15   3   -0.22    2.88
  -4 -15  -3   -4.21   11.76
  -4 -15  -3    0.58    1.69
   4  15  -3    1.47    2.67
  -4 -15   3    1.13    1.60
  -4 -15   3    1.74   10.65
   4  15   3   -0.59    2.85
   5  15  -3   -0.21    2.63
  -5 -15  -3    3.96   11.64
  -5 -15  -3   -0.10    1.80
   5  15   3    0.89    2.92
  -5 -15   3   -3.35   10.74
  -5 -15   3    0.45    1.60
   6  15  -3   -0.47    2.82
  -6 -15  -3   -4.70   12.20
  -6 -15   3   -0.80   11.14
  -6 -15   3   -2.52    1.72
  -7 -15   3   -7.81   11.24
   6 -16  -3    0.11    2.22
  -6  16   3   -2.86    3.18
   5 -16  -3   -1.69    2.16
   5 -16  -3    0.38    8.08
  -5  16   3   15.68    6.22
  -5  16   3    1.57    3.22
  -4  16  -3   -1.80    2.74
   4 -16  -3    2.33    1.99
   4 -16  -3    6.07    8.58
  -4  16   3    6.32    5.82
  -4  16   3   -2.09    3.17
   4 -16   3    4.08    2.30
  -3  16  -3   -2.39    3.01
   3 -16  -3    1.19    1.93
  -3  16  -3   -4.20    5.92
   3 -16   3    1.50    2.16
   3 -16   3   -1.14    7.62
  -3  16   3   -6.76    5.27
  -2  16  -3    0.18    5.44
  -2  16  -3   -0.93    2.83
   2 -16  -3    0.10    1.93
  -2  16   3    0.66    4.78
   2 -16   3    6.49    7.75
   2 -16   3    2.05    2.10
   1 -16  -3    0.59    1.91
  -1  16  -3    2.99    2.70
   1 -16  -3    7.17    9.05
  -1  16  -3    0.17    4.96
   1 -16   3    0.69    1.91
  -1  16   3    1.92    3.04
  -1  16   3   -3.89    4.31
   1 -16   3    3.56    8.02
   0  16  -3    0.60    4.44
   0  16  -3   -2.82    2.66
   0 -16  -3    1.68   10.00
   0 -16  -3    0.10    1.90
   0 -16   3   -7.74    7.86
   0  16   3   -3.86    3.93
   0  16   3   -1.13    3.02
   0 -16   3   -1.75    1.99
   1  16  -3   -1.49    2.57
  -1 -16  -3    0.59    1.82
   1  16  -3    0.13    3.96
  -1 -16  -3   18.10   11.22
  -1 -16   3    0.32    8.29
  -1 -16   3    0.10    1.88
   1  16   3   -3.41    3.47
   1  16   3   -2.81    2.94
   2  16  -3    0.24    3.47
   2  16  -3    1.92    2.67
  -2 -16  -3    0.10    1.79
  -2 -16  -3    3.83   12.05
   2  16   3   -0.49    2.96
  -2 -16   3   -2.06    1.89
  -2 -16   3   -5.14    9.23
   2  16   3   -1.69    3.19
   3  16  -3    1.10    2.60
   3  16  -3   -0.45    3.18
  -3 -16  -3   12.66   12.84
  -3 -16  -3    0.10    1.83
  -3 -16   3   -3.92    9.90
   3  16   3    3.06    3.24
  -3 -16   3    1.03    1.75
   4  16  -3    3.52    2.73
  -4 -16  -3    6.05    1.92
   4  16  -3    0.56    3.04
  -4 -16  -3    8.60   13.18
   4  16   3    0.13    3.14
  -4 -16   3   -2.51    1.83
  -4 -16   3  -13.99   11.50
  -5 -16  -3   -4.83    1.96
  -5 -16  -3  -16.27   13.78
   5  16  -3   -0.23    3.26
   5  16   3   -0.28    3.37
  -5 -16   3   -4.79    1.93
  -6 -16  -3  -34.30   13.83
   6  16  -3   -1.66    3.32
  -6 -16   3   -2.43    1.93
  -7 -16   3   -3.96   12.25
   6 -17  -3    0.24    2.32
  -6  17   3    2.21    3.65
  -6  17   3   -2.95    7.01
   5 -17  -3    0.11    2.15
   5 -17  -3    1.39    9.07
  -5  17   3    6.48    6.54
  -5  17   3    0.35    3.44
   4 -17  -3   -0.45    2.14
  -4  17   3   -2.90    5.83
   4 -17   3   -2.36    2.52
  -4  17   3   -1.33    3.38
  -3  17  -3    1.09    3.40
  -3  17  -3  -11.32    6.99
  -3  17   3   -0.97    5.53
   3 -17   3   -3.13    2.31
   3 -17   3   -7.65    8.84
  -2  17  -3   -1.63    3.19
   2 -17  -3  -21.09   10.03
  -2  17  -3    0.20    5.86
   2 -17  -3    4.14    2.21
   2 -17   3   -0.11    2.28
   2 -17   3  -21.43    9.09
  -2  17   3  -11.93    5.47
   1 -17  -3   -6.41    2.32
  -1  17  -3   -0.84    3.21
  -1  17  -3   -0.18    5.59
   1 -17  -3    1.62   10.88
  -1  17   3    2.29    3.38
   1 -17   3   -2.55    2.32
   1 -17   3   -7.45    9.57
  -1  17   3   -6.80    5.12
   0 -17  -3   -7.85    2.28
   0 -17  -3   43.72   12.52
   0  17  -3    1.47    5.09
   0  17  -3   -0.67    3.25
   0  17   3    6.94    3.39
   0 -17   3   -2.92    2.22
   0  17   3    4.23    4.38
   1  17  -3   -3.47    3.08
   1  17  -3   -2.19    4.79
  -1 -17  -3   -4.67    2.31
   1  17   3    1.10    3.38
   1  17   3  -12.76    4.22
  -1 -17   3   -8.77    2.26
   2  17  -3   -0.13    4.02
  -2 -17  -3   -9.74    2.28
   2  17  -3    0.13    3.17
   2  17   3   -3.16    3.75
  -2 -17   3   -4.97    2.16
   2  17   3   -0.94    3.27
  -3 -17  -3   -3.73    1.97
  -3 -17  -3   -8.28   14.28
   3  17  -3    0.38    3.51
   3  17  -3   -8.04    3.15
   3  17   3    3.17    3.48
  -3 -17   3   -2.60    1.97
  -3 -17   3  -15.49   11.49
  -4 -17  -3    0.12    2.02
  -4 -17  -3   -6.95   14.76
   4  17  -3    0.25    3.33
   4  17  -3   -2.18    2.99
   4  17   3   -3.39    3.65
  -4 -17   3  -11.35   11.78
  -4 -17   3   -3.10    1.99
  -5 -17  -3  -10.31   15.05
   5  17  -3   -0.13    3.39
  -5 -17  -3   -2.35    2.16
   5  17  -3    1.22    2.99
   5  17   3   -6.97    3.59
  -5 -17   3  -14.59   12.70
  -5 -17   3    0.44    1.93
   6  17  -3    0.14    3.31
  -6 -17  -3  -11.24   14.94
  -6 -17   3   -0.58    2.00
  -6 -17   3  -17.41   13.66
  -7 -17   3   -9.27   13.20
  -6  18   3   42.07   12.62
  -6  18   3   57.02   14.51
   5 -18  -3   -7.82    2.59
   5 -18  -3  -10.59   10.39
  -5  18   3  -14.01    7.23
  -5  18   3    5.04    3.89
   4 -18  -3   -0.12    2.40
  -4  18  -3    4.34    3.41
  -4  18  -3  -22.13    7.49
  -4  18   3    6.63    6.59
   4 -18   3   -3.33    2.60
  -4  18   3   -5.72    3.77
  -3  18  -3    9.66    7.22
   3 -18  -3   -4.74    2.40
  -3  18  -3   -2.57    3.43
   3 -18   3   -7.05    9.41
  -3  18   3    5.41    6.32
   3 -18   3    3.95    2.54
   2 -18  -3    0.24    2.31
   2 -18  -3  -17.63   11.57
  -2  18  -3   -6.07    6.35
  -2  18  -3   -4.12    3.53
  -2  18   3    0.59    5.70
   2 -18   3   -4.59    2.47
  -2  18   3   -5.53    3.78
   2 -18   3    1.23    9.43
   1 -18  -3   12.01   11.57
   1 -18  -3   -3.88    2.37
  -1  18  -3    0.16    3.45
  -1  18  -3   -8.37    5.83
  -1  18   3    0.16    3.61
  -1  18   3    6.47    5.11
   1 -18   3    1.81    9.97
   1 -18   3    0.61    2.39
   0 -18  -3    2.05    2.25
   0 -18  -3  -10.82   12.40
   0  18  -3    3.15    3.54
   0  18  -3    1.77    5.29
   0  18   3    3.81    3.70
   0 -18   3    0.12    2.35
   0 -18   3  -17.57   10.33
   0  18   3    2.19    4.53
   1  18  -3   -0.73    3.47
  -1 -18  -3   -1.18   13.22
  -1 -18  -3   -3.21    2.38
   1  18  -3   -0.16    4.57
  -1 -18   3   -6.17    2.31
  -1 -18   3   12.08   10.22
   1  18   3   -4.86    3.80
   1  18   3   -4.77    4.30
  -2 -18  -3   -9.58   14.72
  -2 -18  -3    0.49    2.33
   2  18  -3    1.04    4.28
   2  18  -3    2.57    3.49
  -2 -18   3  -11.73   11.04
  -2 -18   3   -3.17    2.25
   2  18   3   -0.93    4.04
   2  18   3    2.74    3.70
  -3 -18  -3    4.64    2.28
  -3 -18  -3    7.39   15.50
   3  18  -3    0.14    3.75
   3  18  -3    3.51    3.41
  -3 -18   3  -16.65   12.25
  -3 -18   3    0.83    2.27
   3  18   3    2.18    3.85
   3  18   3   -0.91    3.76
   4  18  -3    1.12    3.89
   4  18  -3   -5.47    3.49
  -4 -18  -3   28.76   16.34
  -4 -18  -3   -3.77    2.30
  -4 -18   3    2.01    2.18
  -4 -18   3   -4.53   12.88
   4  18   3    2.98    4.12
  -5 -18  -3    0.14    2.33
   5  18  -3   -0.15    3.82
   5  18  -3   -0.13    3.38
  -5 -18  -3    1.83   16.88
   5  18   3   -0.70    4.03
  -5 -18   3    3.40    2.22
  -5 -18   3  -25.23   13.88
  -6 -18   3  132.30   36.69
  -7 -18   3    7.51   14.99
   6 -19  -3    0.43    2.89
  -6  19   3   -2.13    8.27
  -6  19   3    4.72    4.19
   5 -19  -3    0.14    2.76
   5 -19  -3  -15.41   11.75
  -5  19   3    0.76    7.82
  -5  19   3   -1.08    4.30
  -4  19  -3   -8.36    7.83
  -4  19  -3   -1.40    3.76
   4 -19  -3    0.14    2.67
  -4  19   3    7.22    7.53
   4 -19   3    0.29    2.82
  -3  19  -3    2.88    3.82
  -3  19  -3   -6.31    7.45
   3 -19  -3   -2.96    2.73
  -3  19   3   -6.03    6.90
   3 -19   3   -2.39    2.79
  -2  19  -3  -25.23    7.42
  -2  19  -3   -9.53    4.44
  -2  19   3  -13.54    4.67
   2 -19   3   -5.53    3.08
  -2  19   3  -19.25    6.95
   2  19  -3   -4.46    6.00
   2  19  -3  -13.55    4.80
   3  19  -3    0.32    4.28
  -3 -19  -3  -42.70   17.61
  -3 -19  -3    5.43    2.62
   3  19  -3    2.67    3.84
   3  19   3    5.48    4.07
   3  19   3    1.99    4.54
  -3 -19   3   -3.66    2.46
   4  19  -3   -0.16    4.31
  -4 -19  -3    2.01    2.50
  -4 -19  -3   -0.88   17.54
   4  19  -3    0.31    3.69
  -4 -19   3   10.78   14.11
  -4 -19   3   -2.16    2.38
   4  19   3    2.16    4.10
   4  19   3    7.27    4.64
  -5 -19  -3    3.13   18.33
  -5 -19  -3   -3.18    2.61
   5  19  -3    0.50    4.31
   5  19  -3   -1.05    3.75
  -5 -19   3   -4.69    2.41
   5  19   3   -2.34    4.43
  -5 -19   3   -2.34   14.83
  -6 -19  -3  -20.40   18.13
   6  19  -3   -1.89    3.67
   6  19  -3    0.17    4.20
  -6 -19   3    0.28    2.36
  -6 -19   3    3.16   15.58
  -7 -19   3    3.42   16.06
  -3  20  -3    5.44    7.64
   3 -20   3  -12.85   11.40
  -3  20   3    4.39    7.22
   3 -20   3   -6.19    3.08
  -2  20  -3   -2.06    4.38
  -2  20  -3    1.46    7.17
   2 -20  -3   -5.85    3.02
  -2  20   3    0.22    3.40
   2 -20   3   -5.19    3.08
   2 -20   3  -12.23   11.75
  -2  20   3    0.23    6.59
   1 -20  -3    0.15    2.96
   1 -20  -3   25.39   15.22
  -1  20  -3    5.01    4.36
  -1  20  -3   -8.79    6.81
   1 -20   3   -0.30    2.92
  -1  20   3   -3.03    6.05
   1 -20   3    7.57   12.56
   0 -20  -3   -2.86    2.86
   0 -20  -3   29.04   15.44
   0  20  -3    3.83    4.29
   0  20  -3   -1.89    5.98
   0 -20   3    1.34    2.90
   0 -20   3    6.51   13.41
   0  20   3  -11.72    4.96
   0  20   3   -1.03    5.72
  -1 -20  -3    0.15    2.80
  -1 -20  -3    3.71   16.37
   1  20  -3    0.20    5.64
   1  20  -3   -2.41    4.41
  -1 -20   3    3.87    3.00
   1  20   3   -5.92    4.76
  -1 -20   3   15.49   13.49
   1  20   3  -12.00    5.51
   2  20  -3   -4.13    4.30
   2  20  -3    1.10    5.15
  -2 -20  -3   -9.90    2.97
  -2 -20  -3   19.01   17.57
  -2 -20   3    2.80    2.80
   2  20   3    7.22    5.37
  -2 -20   3    7.05   13.85
   3  20  -3    0.18    4.88
  -3 -20  -3   -0.16    2.79
   3  20  -3    1.93    4.18
   3  20   3   -0.20    5.12
   3  20   3   -1.50    4.13
  -3 -20   3   -2.84   14.54
  -3 -20   3   -2.33    2.71
  -4 -20  -3    1.79    2.71
   4  20  -3   -0.54    4.92
   4  20  -3    1.90    4.18
   4  20   3  -14.53    5.07
  -4 -20   3   -0.15    2.68
  -4 -20   3   -7.02   15.35
   5  20  -3   -1.67    4.64
   5  20  -3   -2.87    4.19
  -5 -20   3   -0.88    2.70
  -5 -20   3   -8.64   15.94
   6  20  -3    0.38    4.65
   6  20  -3    0.16    3.99
  -6 -20   3    4.30    2.70
  -6 -20   3    2.38   16.57
   7  20  -3    0.31    3.61
   0   0  -4   50.38   16.62
   0   0   4   59.02   15.07
   0   1  -4   -0.17    0.45
   1   0  -4    0.10    0.29
   0  -1   4    0.06    0.16
  -1   0   4   -0.08    0.11
  -1   0   4   -0.06    0.12
   1  -1  -4    0.36    0.30
   1   1  -4    0.15    0.38
   1  -1  -4    0.49    0.14
   1  -1  -4    0.07    0.57
  -1   1   4    0.46    0.15
  -1  -1   4    0.34    0.18
  -1   1   4    0.27    0.21
  -1   1   4    0.35    0.17
   1  -2  -4    0.38    0.33
   1  -2  -4    0.43    0.18
   1  -2  -4    0.67    0.84
  -1   2   4    0.40    0.30
  -1   2   4    0.38    0.17
  -1   2   4    0.31    0.13
  -2  -1   4    0.52    0.20
   0  -2  -4   15.99    5.39
   2   0  -4   17.42    4.44
   0   2  -4   13.39    5.15
   0  -2  -4   15.56    4.68
   0  -2   4   15.35    4.59
   0  -2   4   15.57    4.63
  -2   0   4   17.63    4.63
  -2   0   4   15.69    4.50
   0   2   4   23.85    5.06
   2  -1  -4    0.18    0.12
   1   2  -4    0.28    0.47
   2  -1  -4    0.23    0.69
   1   2  -4    0.27    0.19
  -1  -2   4    0.15    0.17
  -2   1   4    0.55    0.16
  -2   1   4    0.24    0.14
  -1  -2   4    0.35    0.20
  -1  -2   4    0.34    0.14
  -2   1   4    0.61    0.21
  -1  -2   4    0.45    0.61
   2  -2  -4    2.25    2.43
   2  -2  -4    7.68    1.99
   2   2  -4    6.85    2.17
   2   2  -4    9.52    1.89
  -2  -2   4    5.89    1.99
  -2  -2   4    5.49    2.38
  -2   2   4    9.07    2.04
  -2   2   4    8.33    1.98
  -2  -2   4    7.49    1.98
  -2  -2   4    7.66    1.91
   2  -3  -4    8.72    2.58
   2  -3  -4    5.39    3.15
  -2   3   4   10.74    2.63
  -3  -2   4    8.95    2.52
  -2   3   4   11.75    2.63
  -3  -2   4    9.70    2.60
   3   1  -4    2.96    0.74
   1  -3  -4    2.63    0.77
   1  -3  -4    1.07    1.42
  -3  -1   4    2.97    0.79
  -1   3   4    2.65    0.91
   0  -3  -4    0.09    0.22
   0   3  -4   -0.47    0.69
   3   0  -4   -0.06    0.11
   0  -3  -4   -0.16    1.05
   0   3  -4   -0.06    0.30
   0   3   4    0.15    0.35
   0  -3   4   -0.02    0.26
   0  -3   4   -0.04    0.27
  -3   0   4    0.01    0.14
   0  -3   4   -0.14    1.03
   1   3  -4    1.58    0.98
  -1  -3  -4    2.24    1.27
  -1  -3  -4    2.57    0.79
   3  -1  -4    2.18    0.73
   1   3  -4    2.80    0.79
   1   3   4    3.28    0.98
  -1  -3   4    2.91    0.75
  -1  -3   4    1.75    1.24
  -1  -3   4    3.05    0.78
  -1  -3   4    3.30    0.76
   2   3  -4    8.01    2.43
   2   3  -4   10.22    2.68
  -2  -3   4    9.91    2.53
  -2  -3   4    8.18    2.45
  -2  -3   4    9.86    2.56
  -2  -3   4    7.96    3.09
   3  -3  -4   15.44    6.09
  -3  -3   4   18.83    5.17
  -3   3   4   16.97    5.32
  -3  -3   4   18.21    6.45
  -3  -3   4   21.12    4.99
   3  -4  -4    6.18    3.33
   3  -4  -4    9.08    2.35
  -3   4   4    8.69    2.46
   2  -4  -4    6.36    1.33
   2  -4  -4    3.76    2.20
  -4  -2   4   -0.02    1.31
  -2   4   4    6.93    1.38
   1  -4  -4    0.07    1.57
  -1   4  -4    0.39    0.43
   4   1  -4    0.15    0.19
   1  -4  -4    0.62    0.30
  -1   4   4    0.06    0.65
   0   4  -4   26.16    8.92
   0  -4  -4   21.64    9.31
   0  -4  -4   31.67    7.83
   0   4  -4   34.15    8.14
   0  -4   4   21.64    7.80
   0  -4   4   29.63    7.90
   0   4   4   31.53    8.13
   0  -4   4   22.18    9.40
   0  -4   4   36.72    7.96
   1   4  -4    0.25    0.73
   1   4  -4    0.50    0.35
  -1  -4  -4    0.36    1.39
  -1  -4  -4    0.05    0.31
  -1  -4   4    0.41    0.24
  -1  -4   4    0.34    0.32
   1   4   4    0.24    0.58
  -1  -4   4   -0.16    1.29
  -1  -4   4    0.55    0.29
   2   4  -4    7.10    1.78
   2   4  -4    5.70    1.63
  -2  -4   4    6.12    1.64
  -2  -4   4    5.13    2.32
  -2  -4   4    6.19    1.69
  -2  -4   4    6.17    1.69
   3   4  -4   10.27    2.65
   3   4  -4    8.74    2.31
  -3  -4   4    7.12    3.26
  -3  -4   4    8.60    2.43
  -3  -4   4    8.05    2.34
  -4  -4   4   12.31    4.55
   5   4  -4    3.33    0.88
   4  -5  -4    1.16    2.81
  -4   5   4    2.98    1.19
   1  -5  -4   18.73    4.55
  -1   5  -4   18.06    4.80
   1  -5   4   17.38    4.61
   1  -5   4   15.70    4.64
  -1   5   4   14.02    4.86
   1  -5   4   15.57    5.73
   0  -5  -4   -0.18    0.38
   0   5  -4   -0.06    1.15
   0   5  -4   -0.42    0.55
   0  -5   4    1.09    2.01
   0  -5   4   -0.02    0.41
   0   5   4    0.12    0.70
   0  -5   4   -0.05    0.46
   0  -5   4    0.07    0.46
   1   5  -4   17.10    4.34
   1   5  -4   12.18    4.63
   1   5  -4   17.06    4.15
  -1  -5   4    9.54    3.94
  -1  -5   4    9.47    5.02
  -1  -5   4   17.57    4.03
  -1  -5   4   18.52    4.10
   2   5  -4    7.25    1.99
   2   5  -4    5.84    2.45
   2   5  -4    7.82    2.22
  -2  -5   4    5.23    3.11
  -2  -5   4    6.84    2.09
  -2  -5   4    7.59    2.00
  -2  -5   4    8.87    2.06
   3   5  -4    0.50    0.72
  -3  -5   4    1.47    2.19
  -3  -5   4    0.17    0.42
  -3  -5   4    0.98    0.44
   4   5  -4    2.35    0.78
  -4  -5   4    4.38    2.35
  -4  -5   4    2.51    0.81
   5   5  -4    1.46    0.57
  -5  -5   4    1.68    0.63
   5  -6  -4    1.75    0.95
   4  -6  -4   -0.25    3.01
   4  -6  -4    0.28    0.69
  -4   6   4    1.18    1.00
   3  -6  -4    4.19    2.78
   3  -6  -4    0.87    0.71
  -3   6   4    1.15    0.91
   2  -6  -4   31.51    7.75
   2  -6  -4   26.70    8.51
  -2   6  -4   29.96    7.94
  -2   6   4   31.45    7.82
   1  -6  -4    0.24    0.49
   1  -6  -4   -1.11    2.79
  -1   6  -4   -0.04    0.79
  -1   6   4    0.04    1.17
   1  -6   4    0.13    2.57
   1  -6   4    0.07    0.58
   0   6  -4    3.45    2.27
   0  -6  -4    4.80    1.63
   0  -6  -4    7.73    3.29
   0  -6   4    5.23    1.60
   0  -6   4    7.36    1.69
   0   6   4    5.56    1.86
   1   6  -4   -0.07    1.18
  -1  -6  -4   -0.15    0.51
   1   6   4   -0.21    0.81
  -1  -6   4    0.23    0.33
  -1  -6   4   -0.26    0.49
  -2  -6  -4   39.33    9.00
   2   6  -4   33.17    9.35
  -2  -6   4   30.83    9.01
   2   6   4   36.99    9.25
   3   6   4    0.12    1.02
   4   6  -4    0.54    0.34
  -4  -6   4    0.13    0.50
  -4  -6   4    0.25    0.40
   5   6  -4    1.94    0.66
  -5  -6   4    1.74    0.73
  -5  -6   4    1.22    2.90
  -5  -6   4    1.96    0.67
   5  -7  -4    2.11    1.23
  -5   7   4    4.78    1.47
   4  -7  -4    2.62    1.03
   4  -7  -4    4.23    3.92
  -4   7   4    1.60    1.26
   3  -7  -4   -1.86    2.99
   3  -7  -4    1.02    0.75
  -3   7   4    1.18    0.96
  -2   7  -4    0.28    0.93
   2  -7  -4    0.07    0.64
   2  -7  -4   -2.51    2.87
   2  -7   4    0.48    0.76
  -2   7   4    0.30    0.82
   2  -7   4   -1.03    2.94
   1  -7  -4    0.66    3.03
  -1   7  -4   -0.52    0.87
   1  -7  -4    0.93    0.60
   1  -7   4    0.47    0.66
   1  -7   4    0.50    0.73
  -1   7   4    0.15    1.30
   1  -7   4    1.02    2.95
   0   7  -4   -0.42    0.77
   0  -7  -4   -0.09    3.19
   0  -7  -4   -0.06    0.58
   0   7  -4    0.36    1.55
   0  -7   4    1.03    2.48
   0  -7   4   -0.09    0.59
   0  -7   4   -0.77    0.62
   0  -7   4   -0.05    0.47
   0   7   4   -1.12    1.11
   1   7  -4   -0.61    1.33
   1   7  -4    1.32    0.78
   1   7  -4    0.96    1.35
  -1  -7  -4    0.84    0.61
  -1  -7   4    0.72    2.67
  -1  -7   4    0.09    0.59
   1   7   4    1.04    0.97
  -1  -7   4    0.40    0.61
  -1  -7   4    1.36    0.41
  -2  -7  -4    0.04    0.63
   2   7  -4   -3.06    1.12
  -2  -7   4   -7.27    3.13
  -2  -7   4   -0.31    0.53
   2   7   4    0.55    1.01
   3   7  -4    1.80    1.03
  -3  -7  -4    0.88    0.73
   3   7  -4    0.93    0.43
  -3  -7  -4    0.41    2.88
  -3  -7   4    0.87    0.46
  -3  -7   4    0.62    0.60
  -3  -7   4   -1.10    3.20
  -3  -7   4    1.82    0.56
   3   7   4    0.98    1.21
   4   7  -4   -3.11    1.58
   4   7  -4    1.30    0.51
  -4  -7   4    1.05    0.68
  -4  -7   4    0.83    0.52
  -4  -7   4   -0.90    0.86
   5   7  -4    2.57    0.89
  -5  -7   4    2.70    0.99
  -5  -7   4   -2.43    3.64
  -5  -7   4    3.55    0.92
  -6  -7   4    0.32    3.29
  -6  -7   4    3.84    1.13
   5  -8  -4    2.19    4.16
   5  -8  -4    2.55    1.26
  -5   8   4    2.93    1.55
   4  -8  -4    2.85    4.00
   4  -8  -4    3.16    1.23
  -4   8   4    2.46    1.50
   3  -8  -4   -1.82    3.44
   3  -8  -4   -0.53    0.86
  -3   8   4    0.11    1.07
   3  -8   4   -0.59    0.89
   2  -8  -4   12.84    4.21
  -2   8   4    2.20    2.65
  -1   8  -4   -1.31    1.11
   1  -8  -4   -1.42    0.81
  -1   8   4   -0.05    0.99
   1  -8   4   -0.03    0.57
  -1   8   4    1.27    1.78
   1  -8   4   -1.10    0.89
   0   8  -4   -1.88    2.51
   0  -8  -4    2.92    1.04
   0   8  -4    2.16    1.28
   0   8   4    3.55    1.54
   0  -8   4    2.91    1.08
   0  -8   4    3.62    1.10
   1   8  -4   -2.22    1.12
  -1  -8  -4   -0.27    0.30
  -1  -8  -4   -0.57    0.74
   1   8   4    0.09    1.20
  -1  -8   4   -2.44    0.83
  -2  -8  -4    2.96    1.14
   2   8  -4    4.26    0.94
  -2  -8   4    4.13    1.17
   2   8   4    3.85    1.45
  -2  -8   4    0.61    0.97
   3   8  -4   -0.03    0.42
  -3  -8  -4    1.10    3.68
  -3  -8  -4    0.88    0.81
   3   8  -4   -0.62    1.13
   3   8  -4   -0.50    1.47
  -3  -8   4   -0.25    0.62
  -3  -8   4   -0.07    0.61
  -3  -8   4    0.66    0.41
   3   8   4   -0.37    1.32
   4   8  -4    3.42    1.45
   4   8  -4    2.65    0.93
  -4  -8   4    9.22    4.31
  -4  -8   4    3.66    1.08
  -4  -8   4    2.98    1.05
  -4  -8   4    2.25    0.94
   5   8  -4    3.77    0.88
   5   8  -4    3.20    1.54
  -5  -8   4    2.39    1.09
  -5  -8   4    2.03    1.05
  -5  -8   4    2.76    4.15
  -5  -8   4    2.05    0.91
  -6  -8   4    1.43    0.85
  -6  -8   4    3.56    3.97
   6  -9  -4   14.70    4.16
   5  -9  -4    5.41    4.54
   5  -9  -4    2.61    1.28
  -5   9   4    1.62    1.67
   4  -9  -4   22.65    4.77
   4  -9  -4    9.98    6.75
  -4   9   4   15.52    5.03
   3  -9  -4    1.58    1.12
  -3   9  -4    3.68    1.45
   3  -9  -4    0.44    3.87
   3  -9   4    1.63    1.26
  -3   9   4    2.60    1.46
   2  -9  -4   10.00    4.08
  -2   9  -4    2.46    1.66
   2  -9  -4    6.38    1.37
  -2   9   4    3.52    1.58
   2  -9   4   -2.36    3.99
   2  -9   4    1.97    1.45
  -2   9   4    2.99    2.45
   1  -9  -4    0.73    0.81
   1  -9  -4   -1.05    4.14
  -1   9  -4    0.23    1.15
  -1   9   4   -0.37    1.10
   1  -9   4    1.07    0.95
   1  -9   4    0.70    3.59
  -1   9   4   -0.82    1.89
   0   9  -4   -0.23    2.20
   0   9  -4   -0.05    1.04
   0  -9  -4   -1.40    0.75
   0   9   4    0.82    1.50
   0  -9   4   -0.75    3.49
   0  -9   4   -0.09    0.85
  -1  -9  -4   -0.99    0.80
   1   9  -4   -0.27    0.96
   1   9  -4   -0.51    1.74
   1   9  -4    0.13    0.37
  -1  -9   4   -0.37    0.76
  -1  -9   4   -0.18    0.40
   1   9   4    0.37    1.30
  -1  -9   4   -2.30    3.53
   2   9  -4    4.33    1.80
  -2  -9  -4    2.55    1.31
   2   9  -4    5.96    2.03
   2   9  -4    4.32    1.08
  -2  -9   4    4.10    1.25
  -2  -9   4    3.83    1.30
   2   9   4    5.16    1.68
  -2  -9   4    4.35    4.14
  -2  -9   4    2.25    1.06
  -3  -9  -4    4.91    4.71
  -3  -9  -4    1.59    1.16
   3   9  -4    3.83    1.49
   3   9  -4    1.76    1.88
   3   9  -4    2.42    0.87
  -3  -9   4    3.42    0.88
  -3  -9   4    1.92    1.06
  -3  -9   4    3.89    1.07
  -3  -9   4   -3.05    4.43
   3   9   4    3.69    1.62
   4   9  -4   19.94    5.07
  -4  -9  -4   17.04    7.23
   4   9  -4   16.13    4.79
   4   9   4   10.60    5.33
  -4  -9   4   21.59    4.81
  -4  -9   4    9.57    7.59
  -4  -9   4   16.93    5.00
  -4  -9   4   19.77    4.79
   5   9  -4    2.34    0.71
   5   9  -4    2.34    1.57
  -5  -9   4    1.07    0.91
  -5  -9   4    1.17    0.74
  -5  -9   4    0.90    4.91
  -5  -9   4    1.62    0.99
  -6  -9   4   10.41    6.54
  -6  -9   4   13.29    3.68
   6 -10  -4   -6.51    1.42
  -6  10   4   -0.94    1.90
   5 -10  -4    4.93    5.18
   5 -10  -4    4.79    2.06
  -5  10   4    7.17    2.55
   4 -10  -4    0.06    1.17
   4 -10  -4    7.94    4.82
  -4  10   4    0.08    1.53
  -3  10  -4    0.93    1.43
   3 -10  -4    0.83    1.10
   3 -10  -4    0.37    4.47
  -3  10   4    1.32    1.50
   3 -10   4    1.26    1.30
   3 -10   4    0.91    4.36
  -2  10  -4    0.90    1.49
   2 -10  -4    0.12    4.39
   2 -10  -4    2.30    1.08
  -2  10   4    1.81    2.63
  -2  10   4    2.61    1.45
   2 -10   4    0.50    1.21
   2 -10   4    5.40    4.21
   1 -10  -4   -0.07    4.73
   1 -10  -4    0.10    0.93
  -1  10  -4    0.98    1.29
   1 -10   4    0.28    1.05
  -1  10   4    0.06    1.30
   1 -10   4   -0.47    4.20
  -1  10   4    0.63    2.02
   0  10  -4   16.68    4.50
   0  10  -4   15.78    3.77
   0 -10  -4   10.87    3.54
   0 -10   4   11.45    3.59
   0 -10   4   10.47    3.41
   0 -10   4    4.62    5.39
   0  10   4   19.65    4.04
   1  10  -4    2.33    2.02
   1  10  -4    0.15    2.11
  -1 -10  -4    0.24    0.89
   1  10  -4    0.49    0.40
   1  10  -4    1.17    1.15
  -1 -10   4    0.29    0.44
  -1 -10   4   -1.45    4.35
  -1 -10   4    0.89    0.90
  -1 -10   4    0.34    0.88
   1  10   4    0.36    1.54
  -2 -10  -4    7.65    5.85
   2  10  -4    2.56    1.28
  -2 -10  -4    1.60    1.07
   2  10  -4    2.91    0.70
   2  10  -4    0.73    1.81
   2  10  -4    0.44    2.04
  -2 -10   4    1.48    0.69
  -2 -10   4    1.98    1.05
  -2 -10   4    1.68    0.97
   2  10   4    1.63    1.56
   3  10  -4    4.25    1.55
  -3 -10  -4    1.14    1.09
   3  10  -4    2.37    2.04
  -3 -10  -4    0.08    5.69
   3  10  -4    2.72    0.71
  -3 -10   4    1.59    0.95
  -3 -10   4    1.48    0.72
  -3 -10   4    2.11    5.14
   3  10   4    1.72    1.60
  -3 -10   4    0.93    0.99
   4  10  -4    1.23    0.62
   4  10  -4    1.73    1.47
   4  10  -4    3.30    2.04
  -4 -10  -4    6.32    5.55
  -4 -10  -4    0.91    1.08
  -4 -10   4    1.56    5.48
  -4 -10   4    1.62    0.94
   4  10   4    0.66    1.81
  -4 -10   4    0.66    0.66
  -4 -10   4    0.91    0.90
   5  10  -4    6.95    2.80
   5  10  -4    9.73    2.32
  -5 -10   4    7.60    2.39
  -5 -10   4    7.02    6.33
  -5 -10   4    7.78    2.45
  -6 -10   4   -3.15    6.09
  -6 -10   4   -0.55    0.96
  -7 -10   4    3.84    1.47
  -7 -10   4    4.49    5.87
   6 -11  -4    1.74    1.44
  -6  11   4    0.90    2.10
   5 -11  -4   -1.18    1.31
  -5  11   4   -0.60    1.89
   4 -11  -4    4.64    1.80
  -4  11   4    3.24    2.26
   3 -11  -4    1.77    4.83
   3 -11  -4    1.65    1.33
  -3  11  -4   -0.46    1.69
  -3  11   4    5.11    3.26
   3 -11   4    0.60    1.46
  -3  11   4    2.10    1.76
   3 -11   4    9.69    4.97
  -2  11  -4    2.47    1.72
   2 -11  -4    1.72    1.26
   2 -11  -4    0.07    4.97
   2 -11   4   -2.32    4.81
   2 -11   4    2.57    1.39
  -2  11   4    3.56    1.66
  -2  11   4    2.66    3.07
   1 -11  -4   10.23    3.17
  -1  11  -4   14.27    3.46
   1 -11  -4    0.44    6.39
  -1  11   4   14.35    3.44
   1 -11   4    8.53    3.24
   1 -11   4    6.05    5.60
  -1  11   4   16.52    4.07
   0 -11  -4    0.88    1.05
   0  11  -4    2.21    2.83
   0  11  -4   -0.26    1.44
   0 -11   4    0.39    1.09
   0 -11   4   -0.88    4.22
   0  11   4    1.53    2.11
   1  11  -4   11.97    3.89
  -1 -11  -4    8.11    3.03
   1  11  -4   11.77    3.31
   1  11   4   13.32    3.49
  -1 -11   4    8.29    5.73
  -1 -11   4    8.86    3.03
  -2 -11  -4    2.20    1.28
  -2 -11  -4   -9.65    6.93
   2  11  -4    2.75    2.10
   2  11  -4    2.84    1.56
   2  11   4    2.62    1.85
  -2 -11   4    3.25    1.26
  -2 -11   4   11.25    5.23
   3  11  -4    1.11    0.65
  -3 -11  -4    2.12    6.79
   3  11  -4    1.53    2.19
  -3 -11  -4    0.38    1.15
   3  11  -4    2.17    1.77
  -3 -11   4    2.26    1.10
   3  11   4    1.73    1.88
  -3 -11   4   -0.92    5.72
  -4 -11  -4    6.45    1.87
   4  11  -4    6.63    2.77
   4  11  -4    4.59    2.22
   4  11  -4    5.97    1.61
  -4 -11  -4    1.15    7.05
  -4 -11   4   -7.07    6.84
   4  11   4    5.00    2.45
  -4 -11   4    5.30    1.78
   5  11  -4    1.03    1.74
   5  11  -4   -0.39    0.63
  -5 -11   4    0.68    1.07
  -5 -11   4    0.17    0.96
  -5 -11   4    3.20    6.82
   6  11  -4    2.06    1.97
  -6 -11   4    0.51    6.94
  -6 -11   4    1.18    1.05
  -7 -11   4    3.75    6.67
  -7 -11   4    1.91    1.20
   4 -12  -4   -2.21    5.97
   4 -12  -4    0.07    1.44
   4 -12   4    1.15    1.65
  -4  12   4   -0.10    2.07
   3 -12  -4    0.33    1.37
  -3  12  -4    3.00    1.90
   3 -12   4   -2.71    5.18
  -3  12   4    3.52    3.69
  -3  12   4    1.04    1.86
   3 -12   4   -1.04    1.54
   2 -12  -4    1.30    5.84
   2 -12  -4    3.35    1.70
  -2  12  -4    3.79    2.11
  -2  12   4    4.51    2.15
   2 -12   4    3.37    5.43
   2 -12   4    4.15    1.81
  -2  12   4    2.84    3.42
  -1  12  -4   -0.40    1.71
  -1  12  -4   -1.07    3.52
   1 -12   4   -1.38    1.38
  -1  12   4   -3.98    2.11
  -1  12   4   -2.86    3.00
   1 -12   4   -4.43    5.20
   0  12  -4   12.73    4.99
   0  12  -4   13.29    4.03
   0 -12  -4    9.60    3.76
   0 -12   4    1.70    6.45
   0 -12   4   18.66    3.78
   0  12   4   15.57    4.52
  -1 -12  -4    0.25    1.19
   1  12  -4    0.45    2.60
   1  12  -4   -0.21    1.59
   1  12   4   -2.90    2.16
  -1 -12   4   -2.55    5.26
  -1 -12   4   -0.73    1.18
  -2 -12  -4    7.56    8.06
  -2 -12  -4    5.36    1.75
   2  12  -4    3.74    2.60
   2  12  -4    6.67    2.13
  -2 -12   4    4.14    6.04
  -2 -12   4    3.63    1.74
   2  12   4    4.08    2.29
   3  12  -4    0.07    2.01
  -3 -12  -4    2.72    8.09
  -3 -12  -4    0.14    1.35
  -3 -12   4    1.68    6.69
  -3 -12   4    2.58    1.22
   3  12   4    2.96    1.98
  -4 -12  -4    5.70    8.10
  -4 -12  -4   -0.59    1.31
   4  12  -4    0.21    1.85
  -4 -12   4    1.52    1.20
   4  12   4    0.75    2.19
  -4 -12   4    6.21    7.01
   5  12  -4   -1.16    1.95
  -5 -12  -4   10.03    7.22
  -5 -12   4    0.07    1.22
   5  12   4   -1.90    2.23
  -5 -12   4   -4.10    7.98
   6  12  -4    1.29    2.09
  -6 -12   4    0.96    7.99
  -6 -12   4    1.80    1.37
  -7 -12   4    0.48    7.93
   6 -13  -4    1.39    1.75
  -6  13   4    1.04    2.33
   5 -13  -4    3.96    6.58
   5 -13  -4   11.16    2.36
  -5  13   4    0.71    2.95
   1 -13  -4    1.69    1.59
  -1  13  -4    0.27    2.07
  -1  13  -4    5.62    4.08
   1 -13   4    3.07    5.81
   1 -13   4    6.30    1.78
  -1  13   4    3.92    3.27
   0  13  -4    0.59    3.47
   0  13  -4   -0.58    1.82
   0 -13  -4   -0.49    1.48
   0 -13   4   -8.09    5.76
   0 -13   4   -0.50    1.46
   0  13   4    4.03    2.77
   1  13  -4    2.84    1.99
   1  13  -4    1.01    3.25
  -1 -13  -4    2.53    1.59
  -1 -13   4    4.48    1.62
   1  13   4    2.04    2.55
  -1 -13   4    4.76    5.96
   2  13  -4   -0.76    1.89
   2  13  -4   -0.18    2.56
  -2 -13   4    0.59    1.41
  -2 -13   4    4.46    6.50
   3  13  -4    0.47    2.16
   3  13  -4    2.50    1.90
  -3 -13   4    0.26    1.29
  -3 -13   4   -0.09    7.39
   4  13  -4    0.08    2.04
  -4 -13   4    0.74    1.29
  -4 -13   4   -4.95    8.06
   5  13  -4   -1.35    2.19
  -5 -13  -4    4.42    9.14
  -5 -13   4    0.58    1.33
  -5 -13   4    4.41    8.63
  -6 -13   4   39.84   13.18
   6 -14  -4    3.81    7.04
   6 -14  -4   -1.68    1.81
  -6  14   4    0.14    2.60
   5 -14  -4    1.15    1.95
   5 -14  -4    4.84    7.19
  -5  14   4    5.21    2.75
  -4  14  -4    7.05    2.76
   4 -14  -4    0.08    2.05
   4 -14   4    8.12    2.33
  -4  14   4    0.60    2.78
  -4  14   4    2.91    5.01
   3 -14  -4   -0.08    1.53
   3 -14  -4   -5.96    7.03
  -3  14  -4    0.47    2.23
   3 -14   4    4.09    6.21
  -3  14   4    0.30    4.25
   3 -14   4   -7.15    1.91
  -3  14   4    1.21    2.45
   2 -14  -4    0.80    1.69
   2 -14  -4    1.04    7.05
  -2  14  -4    0.11    2.28
   2 -14   4   -3.88    6.31
  -2  14   4    3.65    2.47
  -2  14   4    2.61    3.98
   1 -14  -4   -3.46    1.58
  -1  14  -4   -0.10    2.12
  -1  14   4    2.68    3.44
   0 -14  -4   -0.47    1.55
   0  14   4   -2.07    3.04
  -1 -14  -4    0.12    9.44
  -1 -14  -4   -0.47    1.51
   1  14   4   -0.70    2.74
  -2 -14  -4    0.77   10.04
  -2 -14  -4   -0.56    1.50
   2  14   4   -2.01    2.55
  -3 -14  -4   -0.85    1.53
  -3 -14  -4   -0.13   10.29
   3  14   4    0.59    2.47
  -4 -14  -4   30.07   11.11
  -4 -14  -4    3.41    2.01
   4  14   4    1.65    3.17
  -5 -14  -4    4.13   10.30
   5  14   4   -0.73    2.78
  -6 -14   4   -9.59    9.89
  -7 -14   4   10.64   10.33
  -8 -14   4    5.67    9.92
   6 -15  -4    1.82    2.09
   6 -15  -4   10.31    7.88
  -6  15   4   -0.31    2.90
   5 -15  -4    0.12    7.36
   5 -15  -4   -2.50    1.92
  -5  15   4    5.30    2.93
  -5  15   4   -2.58    5.72
   4 -15  -4    0.09    1.81
   4 -15  -4   -9.82    7.83
  -4  15  -4   -1.81    2.55
   4 -15   4    0.65    1.99
  -4  15   4   -9.96    5.44
  -4  15   4    7.95    2.92
   3 -15  -4   -3.07    7.93
   3 -15  -4   -2.15    1.77
  -3  15  -4   -1.55    2.49
   3 -15   4   -0.91    1.98
  -3  15   4   -2.97    4.76
   3 -15   4   -3.47    6.83
  -3  15   4    3.83    2.74
  -2  15  -4   -0.17    5.14
   2 -15  -4    0.18    1.88
  -2  15  -4    0.84    2.47
  -2  15   4    8.61    4.28
  -2  15   4    0.23    2.61
   2 -15   4    0.19    1.87
   2 -15   4   -8.51    6.95
  -1  15  -4    1.67    2.37
  -1  15  -4    1.24    4.80
   1 -15  -4   -0.09    1.82
  -1  15   4   -0.53    3.74
   1 -15   4    9.10    7.40
   1 -15   4   -1.36    1.87
   0  15  -4    0.42    4.15
   0 -15  -4   13.96    9.70
   0 -15  -4    4.03    1.74
   0  15  -4   -3.05    2.44
   0 -15   4    0.09    1.75
   0  15   4   -1.95    3.35
   0  15   4   -6.89    2.78
   0 -15   4   -6.14    7.05
   1  15  -4    3.41    2.41
   1  15  -4    0.12    3.71
  -1 -15  -4   12.49   10.68
  -1 -15  -4    2.28    1.78
   1  15   4   -0.44    2.62
  -1 -15   4    1.79    1.81
  -1 -15   4   -4.25    7.46
   1  15   4   -1.79    3.03
  -2 -15  -4  -13.78   11.42
   2  15  -4    0.69    2.34
  -2 -15  -4    0.72    1.66
   2  15  -4   -0.11    3.13
   2  15   4   -0.33    2.83
  -2 -15   4   -6.60    1.65
  -2 -15   4  -16.45    8.10
  -3 -15  -4    6.04    1.77
   3  15  -4   -0.30    2.81
  -3 -15  -4   13.65   11.72
   3  15  -4    0.10    2.34
  -3 -15   4    0.74    1.68
   3  15   4    3.20    2.85
  -3 -15   4   -8.27    8.85
   4  15  -4   -0.10    2.57
  -4 -15  -4    0.39    1.73
  -4 -15  -4    2.28   11.59
   4  15  -4    0.10    2.30
  -4 -15   4   15.26    9.71
   4  15   4   -3.27    2.85
  -4 -15   4    0.08    1.53
   5  15  -4   -0.10    2.67
  -5 -15  -4   -7.84   12.25
  -5 -15  -4   -0.10    1.78
  -5 -15   4    1.49    1.57
  -5 -15   4    0.98   10.32
   5  15   4    0.26    3.02
   6  15  -4    0.11    2.75
  -6 -15   4   -0.56    1.62
  -6 -15   4    4.43   10.46
  -7 -15   4    3.61   10.84
   6 -16  -4    5.32    2.51
  -6  16   4   11.10    6.43
  -6  16   4    3.19    3.52
   5 -16  -4    0.21    2.07
   5 -16  -4   -3.55    8.62
  -5  16   4   -0.20    5.92
  -5  16   4   -1.10    3.17
   4 -16  -4   -2.32    1.95
  -4  16  -4    2.12    2.79
   4 -16  -4    3.13    8.62
   4 -16   4   -7.80    2.20
  -4  16   4    0.44    3.13
  -4  16   4    0.19    5.45
   3 -16  -4    0.89    1.98
  -3  16  -4   -0.85    2.85
  -3  16  -4   -1.74    6.03
   3 -16  -4  -11.27    8.87
   3 -16   4   -0.11    2.19
  -3  16   4   -0.71    5.10
  -3  16   4   -4.43    3.06
   3 -16   4   11.87    7.54
  -2  16  -4    0.18    5.64
   2 -16  -4    0.20    1.97
  -2  16  -4   -1.20    2.77
  -2  16   4   -0.96    4.60
   2 -16   4    1.34    1.99
   2 -16   4   -4.72    7.49
  -1  16  -4    0.63    2.60
   1 -16  -4    0.10    1.97
  -1  16  -4   -0.34    5.24
   1 -16   4   -1.61    1.99
  -1  16   4   -5.80    4.32
   1 -16   4   -8.02    7.88
   0 -16  -4    1.47    1.85
   0  16  -4   -2.71    2.61
   0  16  -4   -0.15    4.74
   0 -16  -4   13.84   10.53
   0 -16   4   -2.22    7.71
   0  16   4    1.75    3.78
   0 -16   4    0.10    1.89
   0  16   4    0.89    2.95
  -1 -16  -4    0.15   11.14
   1  16  -4    0.11    2.57
  -1 -16  -4    0.29    1.87
   1  16  -4   -0.40    4.15
   1  16   4   -0.13    3.45
  -1 -16   4   -2.58    1.86
  -1 -16   4   12.01    8.06
   1  16   4    3.06    3.02
   2  16  -4    1.44    2.50
  -2 -16  -4    1.49    1.88
   2  16  -4    0.36    3.42
  -2 -16  -4  -11.06   12.58
   2  16   4    1.10    3.14
  -2 -16   4    1.40    8.45
  -2 -16   4    1.69    1.86
   3  16  -4    0.11    3.10
  -3 -16  -4    0.21    1.80
   3  16  -4   -0.77    2.75
  -3 -16  -4   -8.23   12.65
  -3 -16   4    6.53    9.40
  -3 -16   4    0.19    1.81
   3  16   4   -1.74    3.24
  -4 -16  -4    1.51   13.49
   4  16  -4    0.53    2.65
   4  16  -4   -0.43    3.00
  -4 -16  -4   -1.06    1.91
   4  16   4    3.64    3.29
  -4 -16   4    3.34    1.81
  -4 -16   4   13.64   10.29
   5  16  -4    0.32    2.75
   5  16  -4   -0.11    3.24
  -5 -16  -4   -3.39   13.73
  -5 -16  -4   -5.48    2.08
   5  16   4   -5.22    3.40
   6  16  -4   -0.87    3.02
  -6 -16   4   -2.84    1.78
  -7 -16   4   -5.05   11.89
   6 -17  -4   -0.12    2.32
  -6  17   4    1.11    3.60
  -6  17   4    7.03    6.98
   5 -17  -4   -5.87    9.22
   5 -17  -4    0.11    2.25
  -5  17   4   14.72    6.51
  -5  17   4   -4.01    3.67
  -4  17  -4    3.79    3.19
  -4  17  -4   -5.03    7.50
   4 -17  -4    2.22    2.12
   4 -17  -4    5.72    9.79
  -4  17   4   -4.97    6.36
  -4  17   4   -4.61    3.35
   4 -17   4   -6.45    2.50
  -3  17  -4   -8.89    3.16
   3 -17  -4   -2.20    2.21
  -3  17  -4    3.15    6.67
   3 -17   4   -2.37    2.38
  -3  17   4    6.26    5.49
   3 -17   4    2.13    8.30
  -3  17   4   -4.08    3.43
   2 -17  -4   -4.68    2.28
  -2  17  -4    0.15    3.23
  -2  17  -4   -0.20    6.02
  -2  17   4    6.37    5.14
   2 -17   4   -0.11    2.20
   2 -17   4  -22.65    8.81
  -1  17  -4    1.12    3.10
  -1  17  -4   -0.73    5.29
   1 -17  -4   -6.79    2.33
   1 -17   4    0.55    2.21
   1 -17   4  -21.48    9.02
  -1  17   4   10.34    4.70
   0  17  -4    0.66    5.22
   0  17  -4   -8.07    3.15
   0  17   4  -15.67    4.38
   0  17   4   -8.28    3.61
   0 -17   4   -0.33    2.32
   1  17  -4   -1.91    3.09
  -1 -17  -4   -4.43    2.27
   1  17  -4   -0.75    4.33
   1  17   4   -1.53    3.41
  -1 -17   4   -2.15    2.19
   1  17   4    3.68    3.76
   2  17  -4    4.88    3.02
  -2 -17  -4  -23.96   14.04
   2  17  -4    0.40    3.89
  -2 -17  -4    0.67    2.02
   2  17   4    2.35    3.71
  -2 -17   4    0.10    2.02
   2  17   4    5.75    3.33
  -3 -17  -4  -16.82   14.72
  -3 -17  -4    1.28    2.07
   3  17  -4    0.12    3.51
   3  17  -4   -2.21    2.95
  -3 -17   4   -3.21    1.92
  -3 -17   4    9.62   10.28
   3  17   4    1.73    3.68
  -4 -17  -4    0.12    2.06
   4  17  -4    0.48    3.00
  -4 -17  -4   15.90   14.98
   4  17  -4   -0.86    3.38
  -4 -17   4   -1.48    1.94
  -4 -17   4   -5.65   11.23
   4  17   4   -3.46    3.59
   5  17  -4    0.59    2.82
  -5 -17  -4    2.80   15.08
  -5 -17  -4    0.88    2.12
   5  17  -4    1.13    3.21
   5  17   4    2.56    3.56
  -5 -17   4   -3.14    1.96
  -5 -17   4   -3.06   11.99
   6  17  -4   -2.31    3.28
  -6 -17   4   -3.51   12.54
  -6 -17   4   -1.66    1.90
  -7 -17   4    2.30   12.69
  -6  18   4   -8.77    4.36
  -6  18   4  -18.76    8.04
   5 -18  -4  -24.80   10.76
  -5  18   4   13.56    7.22
  -5  18   4   -3.88    4.01
  -4  18  -4    5.06    3.40
   4 -18  -4    0.73    2.47
   4 -18  -4   -9.80   11.08
  -4  18  -4    6.87    7.67
  -4  18   4   -0.19    3.81
   4 -18   4    3.13    2.73
  -4  18   4   -2.65    6.48
  -3  18  -4   -2.07    3.28
   3 -18  -4    0.12    2.43
  -3  18  -4    3.16    7.01
   3 -18   4   -8.15    2.53
   3 -18   4   -1.79    8.96
  -3  18   4   -2.49    6.28
  -3  18   4   -3.52    3.94
   2 -18  -4    0.24    2.34
  -2  18  -4    5.59    3.61
  -2  18  -4   12.25    6.59
   2 -18   4    1.61    9.12
   2 -18   4  -10.06    2.47
  -2  18   4    4.79    5.46
   1 -18  -4  -10.82   11.84
  -1  18  -4   -0.62    3.32
  -1  18  -4    0.20    5.98
   1 -18  -4    0.12    2.27
  -1  18   4  -10.22    5.08
   1 -18   4    0.12    2.39
   1 -18   4   -2.01    9.67
  -1  18   4    0.16    3.54
   0  18  -4    2.85    3.25
   0 -18  -4   -1.35    2.29
   0  18  -4    0.90    5.28
   0 -18   4    1.57    2.44
   0 -18   4   -2.44   10.17
   0  18   4   -2.02    4.54
   0  18   4   -6.11    3.77
  -1 -18  -4    1.10    2.29
   1  18  -4    3.90    3.45
  -1 -18  -4    9.72   14.06
   1  18  -4   -1.30    4.93
   1  18   4    6.34    3.89
  -1 -18   4   -4.51    2.40
   1  18   4    6.84    4.44
  -1 -18   4    3.75    9.64
  -2 -18  -4   -9.16    2.40
   2  18  -4   -0.15    4.45
   2  18  -4    1.68    3.41
  -2 -18  -4    9.42   14.82
   2  18   4   -0.31    4.07
  -2 -18   4   -0.94    2.20
  -2 -18   4   25.87   10.50
   2  18   4    0.91    3.68
   3  18  -4   -1.24    3.87
   3  18  -4    1.66    3.11
  -3 -18  -4   -1.94    2.27
  -3 -18  -4    5.15   15.74
   3  18   4   -0.16    4.00
  -3 -18   4   -0.57    2.15
  -3 -18   4   19.10   11.43
   3  18   4    2.60    3.65
  -4 -18  -4   -3.32    2.23
  -4 -18  -4   14.13   16.46
   4  18  -4   -0.55    3.68
   4  18  -4   -1.36    3.35
  -4 -18   4   -1.17    2.21
   4  18   4    2.03    3.94
  -4 -18   4  -22.42   12.00
  -5 -18  -4    6.25    2.41
   5  18  -4   -2.60    3.37
   5  18  -4    1.12    3.79
  -5 -18  -4  -12.73   17.02
  -5 -18   4  -32.59   13.08
  -5 -18   4   -5.86    2.20
   6  18  -4   -0.45    3.84
   6  18  -4   -6.77    3.46
  -6 -18   4   44.72   14.31
  -6 -18   4   -5.35    2.24
   6 -19  -4    0.14    2.79
  -6  19   4    1.13    4.76
  -6  19   4    4.21    7.72
   5 -19  -4    4.26    2.71
   5 -19  -4   -9.16   11.63
  -5  19   4   -0.22    4.35
  -5  19   4   -8.22    7.43
  -4  19  -4  -13.24    7.93
   4 -19  -4    1.55   12.03
   4 -19  -4    0.14    2.65
   4 -19   4   -0.74    2.86
  -4  19   4   -8.54    4.73
  -4  19   4   -7.76    7.11
   3 -19  -4    6.71    2.76
  -3  19  -4    2.48    3.84
  -3  19  -4   11.46    7.44
   3 -19   4    0.14    2.79
  -3  19   4    2.01    6.85
   3 -19   4  -24.62   10.00
  -2  19  -4  -13.14    3.91
  -2  19  -4   -3.67    6.89
   2 -19  -4    1.22    2.84
  -2  19   4   -7.81    6.21
   2 -19   4   -0.14    2.66
  -1  19  -4   -2.83    4.19
  -1  19  -4    0.21    6.98
  -1  19   4  -15.68    4.76
   0 -19   4   42.71   16.81
   1  19  -4  -11.68    4.25
   1  19  -4   -4.13    6.66
   2  19  -4   -5.20    3.97
  -2 -19  -4   -0.14    2.58
   2  19  -4   -2.29    4.81
  -2 -19   4    0.78    2.57
   2  19   4   -4.13    4.88
   2  19   4   -8.09    4.23
  -3 -19  -4    0.14    2.48
  -3 -19  -4  -29.57   17.76
   3  19  -4   -8.04    3.79
   3  19  -4   -0.16    4.29
  -3 -19   4   -0.39    2.38
   3  19   4   -9.41    4.04
   3  19   4   -4.95    4.69
  -3 -19   4   -5.20   12.36
   4  19  -4   -0.61    4.24
  -4 -19  -4   -0.59    2.54
   4  19  -4   -3.18    3.72
  -4 -19  -4   12.25   18.00
  -4 -19   4   -4.93    2.34
   4  19   4    6.75    4.14
   4  19   4   -3.11    4.58
  -4 -19   4   -0.16   13.21
  -5 -19  -4   -2.61    2.67
   5  19  -4   -0.64    4.23
   5  19  -4    0.44    3.57
  -5 -19  -4   14.50   18.44
  -5 -19   4   -2.25    2.44
   5  19   4   -8.15    4.61
  -5 -19   4   -6.85   14.04
   6  19  -4   -5.25    3.59
   6  19  -4   -0.66    4.03
  -6 -19   4   -6.26   14.34
  -6 -19   4    2.59    2.42
  -3  20  -4   -6.24    7.79
   3 -20   4    0.16    3.03
   2 -20  -4    0.15    2.95
  -2  20  -4   -3.46    4.16
  -2  20  -4   -2.44    7.20
   2 -20   4    2.30    3.03
   2 -20   4   -5.80   11.27
  -2  20   4    3.19    6.56
  -1  20  -4   -2.52    6.98
   1 -20  -4    0.15    2.91
  -1  20  -4    8.50    4.29
  -1  20   4    0.21    3.93
  -1  20   4  -16.70    6.45
   1 -20   4    0.15    2.91
   1 -20   4   -6.12   11.95
   0  20  -4   -4.19    6.38
   0  20  -4    1.14    4.34
   0 -20  -4    0.15    3.07
   0 -20   4   -0.15    3.00
   0  20   4    8.29    5.76
   0  20   4    6.09    4.78
   0 -20   4   26.63   12.69
   1  20  -4   -0.20    5.50
  -1 -20  -4   -2.77    2.90
   1  20  -4    1.66    4.14
   1  20   4    5.59    4.87
  -1 -20   4   -3.86   13.02
  -1 -20   4    7.62    2.86
   1  20   4   -5.68    5.64
   2  20  -4    3.70    4.08
   2  20  -4   -0.36    5.24
  -2 -20  -4  -11.49    3.06
  -2 -20   4   -2.06    2.82
  -2 -20   4   11.02   12.86
   2  20   4   -0.20    3.62
   2  20   4   -2.64    5.35
  -3 -20  -4    0.16    2.88
   3  20  -4   -0.35    4.80
   3  20  -4   -3.27    4.23
  -3 -20   4    4.36   13.44
   3  20   4    2.28    5.09
  -3 -20   4   -0.29    2.68
   4  20  -4   -0.34    4.09
   4  20  -4    0.17    4.59
  -4 -20   4   10.76   14.31
  -4 -20   4    1.03    2.62
   5  20  -4    1.44    4.58
   5  20  -4    1.32    4.09
  -5 -20   4   -6.09   14.89
  -5 -20   4   -0.15    2.53
   6  20  -4    0.63    3.77
   0   0  -5   -0.34    0.52
   0   0   5   -0.02    0.22
   0   0   5   -0.04    0.20
   1   0  -5    2.85    1.15
   0   1  -5    3.72    1.25
  -1   0   5    3.25    0.98
  -1   0   5    4.13    1.00
   0  -1   5    3.51    1.02
   1  -1  -5    0.04    0.59
   1   1  -5   -0.10    0.48
   1  -1  -5    0.03    0.41
   1  -1  -5   -0.01    0.12
  -1   1   5    0.11    0.20
  -1  -1   5    0.27    0.20
  -1   1   5    0.01    0.20
  -1   1   5   -0.02    0.14
   2   1  -5    3.75    1.32
   1  -2  -5    5.55    1.38
   1  -2  -5    3.79    1.80
   1  -2  -5    4.82    1.58
  -1   2   5    5.55    1.34
  -2  -1   5    4.62    1.33
  -2  -1   5    5.23    1.38
  -1   2   5    5.47    1.46
   0   2  -5    0.02    0.68
   0  -2  -5   -0.06    0.18
   2   0  -5   -0.06    0.10
   0  -2  -5   -0.09    0.75
   0   2   5   -0.15    0.32
   0  -2   5    0.13    0.27
  -2   0   5   -0.05    0.12
   0  -2   5   -0.16    0.26
  -2   0   5   -0.07    0.17
   2  -1  -5    4.89    1.42
   2  -1  -5    4.70    1.36
   1   2  -5    3.43    1.65
   1   2  -5    3.21    1.47
   2  -1  -5    5.17    1.81
  -2   1   5    5.98    1.42
  -1  -2   5    5.80    1.42
  -2   1   5    5.53    1.47
  -1  -2   5    4.23    1.85
  -1  -2   5    5.27    1.43
  -1  -2   5    5.98    1.40
  -2   1   5    5.54    1.38
   2  -2  -5    0.09    0.21
   2   2  -5   -0.02    0.24
   2  -2  -5    0.24    1.01
   2  -2  -5   -0.03    0.10
  -2  -2   5   -0.10    0.15
  -2   2   5    0.02    0.26
  -2   2   5    0.14    0.16
  -2  -2   5   -0.04    0.12
  -2   2   5    0.11    0.11
  -2  -2   5   -0.13    0.62
  -2  -2   5    0.12    0.22
   2  -3  -5    1.11    0.37
   2  -3  -5    0.72    0.26
   2  -3  -5    0.53    1.37
  -2   3   5    0.88    0.29
  -2   3   5    1.00    0.26
  -3  -2   5    0.71    0.35
  -2   3   5    0.95    0.42
   1  -3  -5    5.92    2.38
   1  -3  -5    4.48    2.02
   3   1  -5    5.95    1.69
   1  -3  -5    7.23    1.75
  -1   3   5    5.59    1.71
  -3  -1   5    7.14    1.78
  -3  -1   5    7.19    1.72
  -1   3   5    5.71    1.87
   3   0  -5   -0.02    0.13
   0  -3  -5    0.09    0.23
   0   3  -5    0.07    0.29
   0   3  -5    0.22    0.82
   0  -3  -5    0.27    1.12
  -3   0   5    0.04    0.15
   0  -3   5    0.02    0.33
  -3   0   5    0.04    0.22
   0  -3   5   -0.06    0.33
   0   3   5    0.19    0.39
   1   3  -5    5.19    2.08
   3  -1  -5    6.81    1.75
  -1  -3  -5    5.23    2.32
   1   3  -5    6.54    1.87
  -3   1   5    7.60    1.84
  -1  -3   5    6.78    1.82
  -3   1   5    7.71    1.80
   1   3   5    3.87    2.14
  -1  -3   5    7.00    1.77
  -1  -3   5    4.60    2.35
  -1  -3   5    7.63    1.79
   2   3  -5    0.55    0.41
   3  -2  -5    0.64    0.23
   2   3  -5    0.97    0.72
  -3   2   5    1.02    0.41
  -2  -3   5    0.45    0.27
  -3   2   5    0.82    0.29
  -2  -3   5    0.14    1.00
  -2  -3   5    1.13    0.27
  -3   2   5    0.46    0.25
  -2  -3   5    0.40    0.33
   3  -3  -5    0.59    1.76
   3   3  -5    0.19    0.18
   3  -3  -5    0.11    0.38
  -3  -3   5    0.29    0.32
  -3  -3   5    0.05    0.21
  -3  -3   5    0.26    1.10
  -3   3   5   -0.03    0.51
   3  -4  -5   22.77    5.84
   3  -4  -5   13.59    6.99
  -3   4   5   26.44    6.00
   2  -4  -5    6.63    3.29
   2  -4  -5   10.01    2.54
  -4  -2   5    9.14    2.56
  -2   4   5    8.99    2.54
  -2   4   5    9.70    2.58
   1  -4  -5   30.42    8.15
   4   1  -5   32.28    8.00
   1  -4  -5   22.74    9.41
  -1   4   5   28.90    8.54
  -4  -1   5   36.08    8.23
   0  -4  -5    0.05    1.67
   0  -4  -5    0.08    0.30
   4   0  -5   -0.08    0.17
   0   4  -5   -0.39    1.05
   0   4  -5   -0.03    0.43
   0  -4   5   -0.10    0.39
   0  -4   5   -0.17    0.40
   0   4   5    0.30    0.50
   0  -4   5   -0.41    1.55
  -4   0   5    0.02    0.21
   0  -4   5    0.09    0.35
   1   4  -5   29.74    8.24
  -1  -4  -5   28.95    9.65
   1   4  -5   23.06    8.90
  -1  -4  -5   33.74    8.14
   1   4   5   34.41    8.96
  -1  -4   5   24.17    9.50
  -1  -4   5   29.71    7.96
  -1  -4   5   30.26    8.05
  -1  -4   5   26.31    7.81
   2   4  -5   10.61    2.93
   2   4  -5    8.43    2.67
  -2  -4   5    6.36    3.23
  -2  -4   5    9.14    2.54
  -2  -4   5    8.58    2.57
  -2  -4   5   10.88    2.48
   3   4  -5   24.45    6.99
  -3  -4   5   28.15    6.56
  -3  -4   5   19.14    7.81
  -3  -4   5   22.87    6.59
   4   4  -5    0.26    0.28
   4  -4  -5   -0.15    0.53
  -4  -4   5    0.16    1.67
  -4   4   5    0.68    0.65
  -4  -4   5   -0.24    0.34
   4  -5  -5    0.71    2.73
   5   4  -5    0.69    0.37
  -5  -4   5    0.54    0.42
  -4   5   5    1.09    0.91
  -5  -4   5    0.49    0.49
   5   3  -5    4.77    1.19
  -5  -3   5    3.61    1.24
  -1   5  -5    4.25    1.14
   1  -5   5    2.26    1.08
   0   5  -5    1.91    1.51
   0   5  -5    3.19    0.85
   0  -5   5    1.29    0.81
   0  -5   5    2.67    2.24
   0  -5   5    1.80    0.78
   0  -5   5    2.29    0.78
   1   5  -5    2.70    1.00
   1   5  -5    2.00    1.46
  -1  -5   5    2.01    2.15
  -1  -5   5    3.58    0.89
  -1  -5   5    2.57    0.93
  -1  -5   5    3.39    0.96
  -2  -5  -5    1.16    1.96
   2   5  -5    0.87    0.83
   2   5  -5    0.90    1.15
  -2  -5   5    0.66    2.00
  -2  -5   5    1.49    0.48
  -2  -5   5    0.82    0.53
   3   5  -5    3.35    1.29
  -3  -5   5    4.61    1.13
  -3  -5   5    1.62    2.43
   4   5  -5    0.64    0.35
   4   5  -5    0.26    0.82
  -4  -5   5    0.40    2.17
  -4  -5   5    0.87    0.51
  -4  -5   5    1.04    0.43
   5   5  -5   -0.27    0.38
  -5  -5   5   -0.09    0.44
  -5  -5   5    0.14    0.49
   5  -6  -5    0.22    0.79
  -6  -5   5    0.45    0.55
  -5   6   5   -0.07    1.15
   4  -6  -5    1.23    3.32
   4  -6  -5    3.55    1.09
  -4   6   5    2.94    1.29
   3  -6  -5   31.81    9.81
   3  -6  -5   35.34   11.16
  -3   6   5   37.90   10.00
   2  -6  -5    0.65    0.58
   2  -6  -5   -0.47    2.65
  -2   6   5    0.90    1.33
  -2   6   5    0.91    0.75
   1  -6  -5    3.31    3.22
  -1   6  -5    5.62    1.62
   1  -6  -5    4.28    1.44
   1  -6   5    4.54    3.21
  -1   6   5    3.67    1.79
   1  -6   5    6.45    1.55
   0   6  -5    0.44    1.46
   0  -6  -5    0.08    0.48
   0  -6  -5    0.08    2.95
   0   6   5   -0.14    0.90
   0  -6   5    0.18    0.52
   0  -6   5    0.57    0.62
   1   6  -5    3.00    2.06
  -1  -6  -5    6.83    3.24
  -1  -6  -5    4.94    1.57
   1   6   5    5.47    1.74
  -1  -6   5    6.42    1.58
  -2  -6  -5    1.16    0.59
  -2  -6  -5   -1.20    2.44
   2   6  -5    0.10    0.93
  -2  -6   5    0.23    0.44
   2   6   5   -0.60    1.02
   3   6  -5   35.68    9.44
  -3  -6   5   34.58    9.49
  -3  -6   5   34.45    9.87
   4   6  -5    1.18    0.64
  -4  -6   5    2.73    0.67
  -4  -6   5    1.69    0.77
   5   6  -5   -0.29    0.46
  -5  -6   5   -0.38    0.55
  -5  -6   5    0.03    0.61
   6   6  -5   -0.22    0.45
  -6  -6   5   -0.13    0.59
   5  -7  -5    0.83    0.93
   5  -7  -5    2.69    3.79
  -5   7   5   -0.65    1.21
   3  -7  -5   -3.63    3.21
   3  -7  -5   -0.27    0.73
  -3   7   5    0.05    0.90
  -2   7  -5    1.18    1.05
   2  -7  -5    4.14    3.09
   2  -7  -5    2.23    0.81
  -2   7   5    0.58    0.96
   2  -7   5    1.53    0.92
  -2   7   5    1.53    1.65
  -1   7  -5    1.00    0.90
   1  -7  -5   -0.38    0.58
   1  -7  -5   -0.45    3.36
  -1   7   5   -0.68    1.23
   1  -7   5   -0.22    0.78
   1  -7   5   -3.91    3.07
   0  -7  -5   -0.58    0.61
   0   7  -5   -0.32    1.74
   0  -7  -5   -2.97    3.61
   0   7  -5    0.24    0.83
   0  -7   5   -2.78    2.74
   0   7   5   -0.34    1.14
   0  -7   5   -0.22    0.66
   1   7  -5   -0.87    1.40
  -1  -7  -5   -0.94    3.30
  -1  -7  -5    0.84    0.63
   1   7  -5   -0.21    0.73
  -1  -7   5   -0.21    0.60
   1   7   5   -0.50    0.97
  -1  -7   5   -6.11    2.68
  -2  -7  -5    2.04    0.80
   2   7  -5    1.87    1.28
   2   7  -5    1.03    0.52
  -2  -7   5    1.54    0.69
  -2  -7   5    1.01    0.56
  -2  -7   5    9.12    3.15
   2   7   5    1.57    1.12
   3   7  -5   -1.68    1.50
   3   7  -5   -0.31    0.38
   3   7  -5   -1.23    1.08
  -3  -7   5   -0.33    0.59
  -3  -7   5   -0.63    0.58
  -3  -7   5   -0.17    0.38
   3   7   5   -1.72    1.33
  -4  -7   5   16.40    5.55
   5   7  -5    0.58    0.48
   5   7  -5    1.30    1.14
  -5  -7   5    0.54    3.48
  -5  -7   5    1.12    0.68
  -5  -7   5    0.39    0.54
   6   7  -5    0.74    0.53
  -6  -7   5    0.28    0.69
  -6  -7   5    0.05    3.20
   6  -8  -5    4.69    1.67
   5  -8  -5    0.37    0.97
   5  -8  -5    0.46    4.10
  -5   8   5   -0.77    1.42
   4  -8  -5    0.82    3.89
   4  -8  -5    0.71    0.87
  -4   8   5   -0.06    1.22
   3  -8  -5   -0.78    0.86
   3  -8  -5    6.42    3.48
  -3   8   5    0.22    1.11
   2  -8  -5   -6.14    3.90
  -2   8  -5    1.30    1.12
   2  -8  -5    1.60    0.76
   2  -8   5    0.77    0.99
  -2   8   5    1.92    1.87
  -2   8   5    0.82    1.07
   1  -8  -5   -0.75    0.82
  -1   8  -5    0.22    1.10
   1  -8   5   -1.91    1.00
  -1   8   5   -1.43    1.63
   0   8   5    2.97    1.72
  -1  -8  -5   12.45    4.66
  -1  -8  -5    0.19    0.72
   1   8  -5   -0.97    2.22
   1   8  -5    0.60    1.07
   1   8   5   -0.28    1.18
  -1  -8   5   -0.70    0.61
  -2  -8  -5    1.01    0.76
   2   8  -5    1.42    0.46
   2   8  -5    0.26    0.97
   2   8  -5   -3.33    1.43
   2   8  -5   -1.59    1.94
  -2  -8   5    0.10    0.72
  -2  -8   5    1.73    0.73
  -2  -8   5    1.28    0.50
   2   8   5    2.10    1.26
   3   8  -5    0.39    0.40
  -3  -8  -5    0.26    0.80
   3   8  -5    2.24    1.69
   3   8  -5    1.27    1.16
   3   8   5    0.07    1.35
  -3  -8   5    0.37    0.43
  -3  -8   5    3.92    3.79
  -3  -8   5    1.40    0.66
  -3  -8   5   -0.47    0.68
   4   8  -5    0.11    0.43
   4   8  -5    0.50    1.13
  -4  -8   5   -4.02    3.89
  -4  -8   5    0.74    0.66
  -4  -8   5    0.47    0.48
  -4  -8   5    0.99    0.69
   5   8  -5   -0.34    0.49
   5   8  -5    1.34    1.30
  -5  -8   5   -0.48    4.13
  -5  -8   5    0.66    0.75
  -5  -8   5   -0.07    0.71
  -5  -8   5    0.49    0.55
   6   8  -5    4.34    1.62
  -6  -8   5    6.00    1.73
  -6  -8   5   10.56    4.80
  -7  -8   5    3.56    1.27
   6  -9  -5   -0.90    1.28
  -6   9   5    3.09    1.68
   5  -9  -5   12.45    2.56
   5  -9  -5    1.63    5.06
  -5   9   5    6.27    2.89
   4  -9  -5   -3.13    4.27
   4  -9  -5    0.32    1.02
  -4   9   5    0.36    1.39
   3  -9  -5    4.97    3.93
   3  -9  -5    1.70    1.09
  -3   9   5    1.83    1.42
   3  -9   5    2.21    1.30
   2  -9  -5    1.12    0.86
  -2   9  -5    0.21    1.24
   2  -9  -5   -2.01    4.12
   2  -9   5    0.91    3.77
  -2   9   5    0.77    1.19
   2  -9   5    0.06    1.11
  -2   9   5    1.09    2.20
   2  -9   5    0.22    1.00
   1  -9  -5    1.53    4.42
  -1   9  -5   -0.06    1.24
   1  -9  -5    0.69    0.80
   1  -9   5    0.65    0.74
  -1   9   5    1.24    1.70
   1  -9   5   -3.04    3.82
   1  -9   5   -0.21    0.95
   0  -9  -5    0.04    0.90
   0   9  -5    0.88    1.16
   0  -9  -5   -6.63    4.81
   0  -9   5    1.33    0.72
   0  -9   5    2.50    0.98
   0  -9   5    3.53    3.46
   0  -9   5    3.89    0.94
   0   9   5    0.80    1.55
   1   9  -5   -0.09    1.05
  -1  -9  -5    0.93    0.83
   1   9  -5   -0.32    1.94
   1   9  -5    5.27    1.96
  -1  -9   5    1.06    0.50
  -1  -9   5    0.65    0.84
  -1  -9   5   -0.04    0.79
   1   9   5    2.49    1.34
  -1  -9   5    2.60    3.48
   2   9  -5    0.54    1.56
   2   9  -5    0.22    1.81
   2   9  -5    0.41    0.42
   2   9  -5    0.39    0.97
  -2  -9  -5    0.10    0.84
  -2  -9   5    0.43    0.44
  -2  -9   5    0.18    0.79
  -2  -9   5    5.21    3.72
   2   9   5    0.06    1.29
  -2  -9   5    0.27    0.76
   3   9  -5    2.82    0.67
   3   9  -5   -0.47    1.94
  -3  -9  -5    0.39    1.01
   3   9  -5    1.32    1.33
  -3  -9   5    1.68    0.93
  -3  -9   5    1.85    0.88
  -3  -9   5   -0.82    4.24
   3   9   5    3.19    1.51
  -3  -9   5    1.60    0.64
   4   9  -5   -0.10    1.25
   4   9  -5    0.43    0.53
  -4  -9  -5    2.08    4.22
  -4  -9   5   -0.62    4.50
  -4  -9   5    0.48    0.53
  -4  -9   5    1.03    0.79
  -4  -9   5    1.34    0.73
   4   9   5   -0.17    1.60
   5   9  -5    9.61    2.56
   5   9  -5    8.09    2.10
  -5  -9   5    6.11    2.13
  -5  -9   5    1.83    5.39
  -5  -9   5    7.58    2.26
  -5  -9   5    7.15    2.22
   6   9  -5    4.52    1.16
  -6  -9   5    1.20    4.95
  -6  -9   5    2.77    1.31
  -7  -9   5    5.36    1.66
  -7  -9   5    2.62    4.97
  -6  10   5    7.54    3.05
   5 -10  -5    5.07    5.04
   5 -10  -5    0.56    1.25
  -5  10   5    0.99    1.81
   4 -10  -5   20.68    4.64
   4 -10  -5   10.13    6.86
  -4  10   5   15.53    4.89
  -3  10  -5    2.35    1.48
   3 -10  -5   -0.27    1.05
   3 -10  -5   -3.97    4.30
   3 -10   5    0.37    1.26
  -3  10   5   -0.07    1.46
  -3  10   5    1.80    2.91
   2 -10  -5    0.75    4.56
   2 -10  -5    2.49    1.19
  -2  10  -5    3.56    1.59
  -2  10   5    3.72    1.54
  -2  10   5    1.93    2.46
   2 -10   5    4.05    1.25
   2 -10   5    1.10    1.40
   2 -10   5   -2.56    4.26
   1 -10  -5    6.39    2.27
   1 -10  -5    0.75    5.60
  -1  10  -5    8.25    2.53
   1 -10   5    7.10    4.76
   1 -10   5    6.53    2.37
   1 -10   5    8.00    2.19
  -1  10   5   13.13    3.06
  -1  10   5    7.41    2.51
   0  10  -5   -0.91    2.27
   0 -10  -5    0.07    5.38
   0  10  -5    1.39    2.54
   0 -10  -5   -1.03    0.95
   0  10  -5   -0.29    1.23
   0 -10   5    0.05    0.95
   0 -10   5   -2.07    3.84
   0 -10   5    0.63    0.96
   0 -10   5    0.03    0.57
   0  10   5    0.20    1.82
  -1 -10  -5   10.85    2.14
   1  10  -5    5.11    2.97
   1  10  -5    7.11    3.12
   1  10  -5    2.74    2.34
   1  10   5   12.39    2.56
  -1 -10   5    6.48    2.12
  -1 -10   5    5.88    1.94
  -1 -10   5    7.97    2.23
  -1 -10   5   -0.41    4.47
   2  10  -5    2.45    1.86
  -2 -10  -5    1.21    1.05
   2  10  -5    0.44    2.14
   2  10  -5    2.58    1.25
   2  10  -5    2.23    0.65
   2  10   5    1.92    1.57
  -2 -10   5    1.16    0.96
  -2 -10   5    2.06    4.28
  -2 -10   5    1.78    1.06
  -2 -10   5    1.22    0.65
  -3 -10  -5    0.59    5.60
   3  10  -5    1.37    2.06
   3  10  -5    0.07    0.50
   3  10  -5    1.35    1.53
  -3 -10  -5    0.06    1.02
  -3 -10   5   -0.25    0.51
  -3 -10   5    0.94    4.87
  -3 -10   5    0.16    0.91
   3  10   5    0.74    1.62
  -3 -10   5   -0.27    0.83
   4  10  -5   18.15    4.87
  -4 -10  -5   22.41    7.77
   4  10  -5   16.40    5.61
   4  10  -5   16.93    4.58
  -4 -10   5   13.62    7.58
   4  10   5    9.24    5.13
  -4 -10   5   14.10    4.88
  -4 -10   5   18.22    4.54
  -4 -10   5   18.21    4.60
   5  10  -5    0.20    1.57
   5  10  -5    0.40    0.61
  -5 -10   5    0.27    0.65
  -5 -10   5    1.64    0.95
  -5 -10   5    1.59    5.77
  -5 -10   5    0.28    0.94
   6  10  -5    8.54    3.20
  -6 -10   5    7.75    2.71
  -6 -10   5   11.62    6.84
  -7 -10   5    2.32    5.87
  -7 -10   5    3.99    1.46
   6 -11  -5    1.24    1.43
  -6  11   5    0.78    2.00
   5 -11  -5    3.26    1.56
   5 -11  -5    2.20    5.48
  -5  11   5    1.28    2.00
   4 -11  -5    1.90    1.68
  -4  11   5    6.86    2.36
   3 -11  -5    3.53    1.90
   3 -11  -5    4.78    5.32
  -3  11  -5    6.32    2.28
  -3  11   5    5.47    3.57
  -3  11   5    6.54    2.28
   3 -11   5    6.59    2.08
  -2  11  -5   14.11    4.37
   2 -11  -5   19.17    4.04
   2 -11  -5    8.49    6.85
  -2  11   5   13.93    4.30
   2 -11   5    9.00    4.12
   2 -11   5    8.22    6.38
  -2  11   5   25.23    5.08
   1 -11  -5    1.34    1.18
  -1  11  -5    1.42    1.58
   1 -11  -5    0.08    5.77
   1 -11   5   -0.68    4.69
  -1  11   5    2.48    2.45
  -1  11   5    1.93    1.58
   1 -11   5    1.96    1.33
   0 -11  -5   31.86    8.52
   0  11  -5   29.49    8.99
   0 -11  -5   15.68   12.27
   0  11  -5   33.03    9.80
   0 -11   5   41.24    8.61
   0  11   5   41.13    9.13
   0 -11   5   16.59   10.60
   1  11  -5    0.67    2.49
   1  11  -5    1.90    1.39
  -1 -11  -5    1.01    1.11
   1  11   5    1.43    1.93
  -1 -11   5    1.50    1.14
  -1 -11   5   -0.92    4.56
  -2 -11  -5    8.19    3.62
   2  11  -5   11.17    4.73
   2  11  -5   15.68    3.90
   2  11  -5   12.52    4.25
   2  11  -5   13.49    3.54
  -2 -11   5    4.82    6.49
   2  11   5   16.96    4.02
  -2 -11   5   14.09    3.65
  -3 -11  -5    4.94    1.79
   3  11  -5    4.44    1.49
   3  11  -5    3.49    2.21
   3  11  -5    1.37    2.71
  -3 -11  -5    4.65    7.16
  -3 -11   5    7.31    1.73
  -3 -11   5    5.58    1.79
   3  11   5    5.27    2.29
  -3 -11   5   -2.69    5.75
  -3 -11   5    5.74    1.46
   4  11  -5    3.70    2.64
   4  11  -5    1.45    1.09
   4  11  -5    5.88    1.91
  -4 -11  -5    7.70    1.59
  -4 -11   5    2.49    1.09
  -4 -11   5    2.21    1.36
  -4 -11   5    2.50    1.42
   4  11   5    2.64    2.26
   5  11  -5    1.52    2.60
   5  11  -5    4.01    1.94
   5  11  -5    3.38    1.02
  -5 -11   5    2.16    1.29
  -5 -11   5    2.09    1.05
  -5 -11   5    3.56    1.33
  -5 -11   5    6.40    6.94
   6  11  -5   -1.08    1.88
  -6 -11   5    0.41    6.73
  -6 -11   5   -0.43    1.08
  -7 -11   5    1.40    6.59
  -7 -11   5    0.35    1.06
   5 -12  -5    0.22    1.45
  -5  12   5   -0.11    1.76
   4 -12  -5    0.84    1.49
   4 -12  -5   -1.35    6.21
  -4  12   5   -0.29    1.96
  -4  12   5    2.95    3.81
   3 -12  -5    4.48    1.67
  -3  12  -5    3.47    2.13
  -3  12   5    6.75    3.79
   3 -12   5    1.73    1.83
  -3  12   5    2.79    2.12
   2 -12  -5   -2.11    1.35
  -2  12  -5    0.46    1.82
   2 -12  -5   -1.66    6.16
   2 -12   5    1.29    1.49
   2 -12   5   -2.54    5.22
  -2  12   5   -3.17    3.13
  -2  12   5    0.50    1.88
   1 -12  -5    9.73    3.10
   1 -12  -5   -0.86    7.46
  -1  12  -5   10.10    3.45
   1 -12   5   12.15    3.18
  -1  12   5   10.00    4.00
   1 -12   5    4.62    6.06
  -1  12   5   15.26    3.49
   0 -12  -5    0.06    1.25
   0  12  -5    1.50    3.20
   0  12  -5   -1.03    1.65
   0 -12   5   -0.32    1.24
   0  12   5   -1.68    2.46
   0 -12   5    1.18    4.75
  -1 -12  -5    7.48    3.05
   1  12  -5    8.62    4.07
   1  12  -5   13.31    3.37
   1  12   5   12.15    3.58
  -1 -12   5    7.31    6.08
  -1 -12   5   10.59    3.08
   2  12  -5    0.20    1.59
   2  12  -5    1.66    2.35
  -2 -12  -5   -8.49    8.06
  -2 -12  -5    1.11    1.19
  -2 -12   5   -3.88    5.65
  -2 -12   5    0.12    1.14
   2  12   5   -0.85    1.95
   3  12  -5    3.89    2.15
  -3 -12  -5    2.30    8.23
   3  12  -5    0.91    1.80
  -3 -12  -5    2.17    1.51
  -3 -12   5    2.98    1.42
  -3 -12   5    7.22    6.46
   3  12   5    4.83    2.25
  -4 -12  -5    0.46    1.28
   4  12  -5    0.74    1.81
  -4 -12   5    0.48    1.17
   4  12   5   -0.87    2.21
  -4 -12   5  -14.07    6.97
   5  12  -5    0.83    1.88
  -5 -12   5   -0.13    1.10
  -5 -12   5   -4.62    7.60
   6  12  -5   -1.61    2.10
  -6 -12   5    3.99    7.73
  -6 -12   5    1.47    1.30
  -7 -12   5   -5.11    7.84
  -8 -12   5   30.72   13.02
   7 -13  -5    0.09    1.82
   6 -13  -5    1.02    1.64
  -6  13   5   -1.16    2.46
   5 -13  -5    7.21    6.86
   5 -13  -5    9.77    2.38
  -5  13   5    1.65    2.97
  -1  13  -5   -1.47    1.92
  -1  13  -5   -0.27    4.13
   1 -13   5   -0.08    1.46
   1 -13   5    2.12    5.82
   0  13  -5   10.86    4.63
   0  13  -5    9.30    3.12
   0 -13   5    6.21    6.02
   0 -13   5    8.56    2.84
   1  13  -5   -0.51    3.13
   1  13  -5    0.94    1.83
  -1 -13   5    8.60    5.65
  -1 -13   5   -3.21    1.36
   2  13  -5    1.52    2.53
   2  13  -5   12.42    3.26
  -2 -13   5   -0.83    6.46
  -2 -13   5    5.92    2.07
   3  13  -5    0.80    1.79
   3  13  -5    2.82    2.21
  -3 -13   5   -1.47    6.81
  -3 -13   5    0.06    1.25
   4  13  -5    2.55    2.16
  -4 -13  -5   -4.34    8.96
  -4 -13   5    3.34    7.59
  -4 -13   5    1.80    1.32
  -5 -13  -5   -6.69    8.70
   5  13  -5    1.15    2.25
  -5 -13   5    1.71    8.01
  -5 -13   5    0.72    1.46
   5  13   5    7.06    2.41
   6  13  -5   -0.76    2.45
  -6 -13   5   -5.28    8.67
  -6 -13   5   -0.23    1.35
  -7 -13   5   42.26   13.45
   7 -14  -5   -1.58    1.89
   6 -14  -5   -7.00    7.15
   6 -14  -5    3.32    2.03
  -6  14   5    5.76    2.79
   5 -14  -5   -1.31    1.72
   5 -14  -5   -1.58    7.32
  -5  14   5   -2.72    5.29
  -5  14   5   -2.20    2.70
   4 -14  -5    1.57    1.68
  -4  14   5   -2.37    2.50
  -4  14   5   -0.95    4.89
   3 -14  -5   -4.54    1.75
  -3  14  -5    0.12    2.31
  -3  14   5   -2.68    4.30
  -3  14   5   -3.18    2.60
   3 -14   5   -2.60    1.98
   2 -14  -5    0.24    1.66
   2 -14  -5   -0.29    7.42
  -2  14  -5    2.64    2.21
   2 -14   5   -0.09    1.54
   2 -14   5    3.51    6.07
  -2  14   5    2.96    2.41
  -2  14   5   -1.99    3.79
   1 -14  -5    3.88    1.73
   1 -14  -5    8.47    8.16
  -1  14   5   -0.21    2.50
  -1  14   5   -3.79    3.43
   0 -14  -5   -1.11    1.61
   0  14   5    1.62    2.89
  -1 -14  -5    2.75    1.53
   1  14   5   -0.40    2.71
  -2 -14  -5   -1.13    1.55
  -2 -14  -5  -11.16   10.10
   2  14   5   -0.58    2.58
  -3 -14  -5   -1.37    1.65
  -3 -14  -5  -26.51   10.59
   3  14   5    1.45    2.56
  -4 -14  -5   -4.72   10.40
  -4 -14  -5    0.99    1.55
   4  14   5    0.80    2.75
  -5 -14  -5   14.88   10.65
  -7 -14   5   -9.70    9.61
   7 -15  -5    0.21    2.14
   6 -15  -5    0.12    8.06
   6 -15  -5    0.10    2.02
  -6  15   5    2.61    2.77
  -6  15   5    4.43    5.93
   5 -15  -5    4.72    2.08
   5 -15  -5   -8.66    7.94
  -5  15   5    5.35    5.62
  -5  15   5    4.85    3.08
   4 -15  -5    2.65    1.86
   4 -15  -5   -2.42    8.13
  -4  15   5    2.90    2.92
   4 -15   5    0.11    2.19
  -4  15   5   -5.19    5.30
   3 -15  -5    6.02    7.77
   3 -15  -5    0.09    1.81
  -3  15  -5    1.04    2.38
   3 -15   5   -3.09    6.72
   3 -15   5   -0.10    2.05
  -3  15   5   -4.23    2.66
  -3  15   5   -2.41    4.74
  -2  15  -5    1.95    2.56
   2 -15  -5   -0.09    1.91
  -2  15  -5   -0.17    5.27
   2 -15  -5    4.68    8.30
  -2  15   5    1.66    2.80
  -2  15   5   -8.82    4.23
   2 -15   5   17.76    6.98
   2 -15   5    3.90    2.11
  -1  15  -5    0.16    5.00
   1 -15  -5    0.09    1.75
  -1  15  -5   -1.58    2.47
  -1  15   5   -2.78    2.77
  -1  15   5   -5.03    3.86
   1 -15   5  -17.32    7.01
   1 -15   5   -0.64    1.84
   0  15  -5    0.42    4.23
   0  15  -5   -0.10    2.28
   0 -15  -5   -0.09    1.76
   0  15   5    2.38    3.21
   0 -15   5   -1.14    1.75
   0 -15   5   15.02    7.23
   1  15  -5    0.25    3.74
   1  15  -5    0.30    2.18
  -1 -15  -5    0.14   10.82
  -1 -15  -5    1.26    1.72
  -1 -15   5   -3.16    1.75
  -1 -15   5   -5.95    6.95
   1  15   5   -5.48    3.06
   2  15  -5   -3.60    2.43
   2  15  -5   -0.22    3.16
  -2 -15  -5    0.09    1.66
  -2 -15  -5   13.74   11.57
  -2 -15   5   -0.56    7.45
   2  15   5    2.63    2.76
  -2 -15   5   -1.00    1.60
   3  15  -5   -1.15    2.36
  -3 -15  -5   -1.33    1.69
   3  15  -5   -0.29    2.81
  -3 -15  -5    3.30   11.75
  -3 -15   5    2.54    1.62
  -3 -15   5   10.45    8.27
   3  15   5    0.81    2.86
   4  15  -5    3.25    2.28
  -4 -15  -5    1.98    1.72
   4  15  -5   -0.19    2.62
  -4 -15  -5    4.61   11.83
  -4 -15   5   -0.75    9.06
   4  15   5    0.63    2.80
  -4 -15   5   -1.24    1.52
  -5 -15  -5   -5.25   11.85
   5  15  -5    1.10    2.62
  -5 -15   5    9.46    9.84
   5  15   5    1.21    2.83
  -5 -15   5   -0.35    1.56
   6  15  -5    0.55    2.70
  -6 -15   5   -3.12   10.35
  -6 -15   5   -1.73    1.58
   7 -16  -5    3.77    2.44
   6 -16  -5   -2.80    2.13
   6 -16  -5  -10.42    8.62
  -6  16   5   -0.21    6.48
  -6  16   5    5.89    3.31
   5 -16  -5    2.88    3.49
   5 -16  -5   13.63    9.73
  -5  16   5    3.31    4.75
  -5  16   5    7.35    7.25
   4 -16  -5    1.67    9.03
   4 -16  -5    3.22    1.98
   4 -16   5    1.07    2.39
  -4  16   5   -8.33    5.57
  -4  16   5    0.15    3.10
   3 -16  -5   -4.85    9.20
  -3  16  -5    4.28    2.78
   3 -16  -5    1.69    2.00
  -3  16  -5    0.58    6.05
   3 -16   5    3.04    2.35
   3 -16   5   -5.53    7.31
  -3  16   5   -0.98    3.14
  -3  16   5    2.24    5.13
  -2  16  -5   -0.19    5.65
   2 -16  -5   -0.79    1.95
  -2  16  -5    0.13    2.78
   2 -16  -5    2.19    9.20
  -2  16   5   -3.35    4.68
   2 -16   5    0.53    2.14
  -2  16   5    6.92    3.06
   2 -16   5   11.40    7.38
   1 -16  -5    0.69    1.95
  -1  16  -5    2.23    5.08
  -1  16  -5    0.13    2.75
   1 -16   5    9.54    7.60
   1 -16   5   -1.83    2.16
  -1  16   5    3.03    4.21
   0  16  -5   -0.91    4.80
   0  16  -5   -0.83    2.62
   0 -16  -5    0.10    1.83
   0  16   5    2.28    3.80
   0 -16   5   -2.59    7.74
   0 -16   5    3.25    1.99
   1  16  -5    1.90    2.59
   1  16  -5   -0.27    4.09
  -1 -16  -5   -8.57   12.00
  -1 -16  -5   -0.99    1.90
  -1 -16   5    0.76    2.01
   1  16   5    1.00    3.08
  -1 -16   5    7.79    7.54
   1  16   5    2.01    3.39
   2  16  -5    0.48    3.52
   2  16  -5   -0.11    2.55
  -2 -16  -5    1.13    1.91
  -2 -16  -5   -7.49   12.86
   2  16   5    0.62    3.22
  -2 -16   5   -1.24    8.24
  -2 -16   5    0.09    1.81
  -3 -16  -5    0.11    1.86
   3  16  -5    0.54    2.62
   3  16  -5    0.55    3.20
  -3 -16  -5    3.83   13.22
  -3 -16   5   -0.18    1.81
  -3 -16   5   16.15    8.77
   3  16   5    1.69    3.23
  -4 -16  -5   -1.09    1.88
   4  16  -5    0.42    2.88
   4  16  -5    0.10    2.53
  -4 -16  -5   12.20   13.34
  -4 -16   5  -12.79    9.92
  -4 -16   5    1.01    1.83
   4  16   5   -2.24    3.37
   6  16  -5    1.09    2.96
  -6 -16   5  -25.91   11.54
  -6 -16   5   -0.20    1.74
   7  16  -5    1.42    2.84
   7 -17  -5    1.61    2.64
  -7  17   5   15.75    7.43
   6 -17  -5    0.12    2.18
   6 -17  -5   10.01    9.55
  -6  17   5    0.45    6.47
  -6  17   5    0.19    3.58
   5 -17  -5    3.95    9.54
   5 -17  -5   -1.69    2.24
  -5  17   5    6.23    6.17
  -5  17   5    6.68    3.70
   4 -17  -5    0.14    9.93
   4 -17  -5    0.55    2.15
  -4  17   5   -5.46    5.89
  -4  17   5    1.49    3.47
  -3  17  -5    2.34    2.98
   3 -17  -5    0.11    2.12
  -3  17  -5    0.84    6.71
   3 -17  -5    3.35   10.21
  -3  17   5    0.16    3.45
   3 -17   5   -1.94    2.56
  -3  17   5    2.64    5.63
  -2  17  -5    0.15    3.05
   2 -17  -5    0.88    2.21
  -2  17  -5   -0.80    6.33
   2 -17  -5  -13.45   10.62
   2 -17   5    7.08    7.99
   2 -17   5   -7.39    2.33
  -2  17   5   -3.29    4.90
  -2  17   5    5.12    3.48
  -1  17  -5   -7.06    3.10
  -1  17  -5   -0.73    5.97
   1 -17   5  -14.22    8.64
   1 -17   5    1.67    2.21
  -1  17   5    0.64    4.53
   0  17  -5   -0.33    5.20
   0  17  -5    2.39    3.05
   0 -17  -5   -8.05    2.18
   0 -17   5  -16.69    9.31
   0 -17   5   -2.95    2.10
   0  17   5   10.67    4.20
  -1 -17  -5  -15.16   13.37
   1  17  -5    1.04    4.54
  -1 -17  -5   -0.11    2.08
   1  17  -5    0.13    2.81
  -1 -17   5    0.32    2.07
   1  17   5   -4.35    3.59
  -1 -17   5  -20.69    8.93
   1  17   5   -0.14    3.89
   2  17  -5    0.13    3.77
  -2 -17  -5   13.63   14.15
   2  17  -5   -1.35    2.93
  -2 -17  -5   -3.33    2.08
   2  17   5    4.60    3.55
   2  17   5   -0.14    3.36
  -2 -17   5   -5.44    9.18
  -2 -17   5    0.10    2.01
  -3 -17  -5   -2.68    2.03
   3  17  -5    3.39    3.00
   3  17  -5    0.12    3.43
  -3 -17  -5    9.63   15.01
   3  17   5   -5.26    3.67
  -3 -17   5    0.71   10.04
  -3 -17   5    0.10    1.94
  -4 -17  -5    9.53   15.01
  -4 -17  -5    3.75    2.15
   4  17  -5    0.48    2.87
   4  17  -5   -0.35    3.23
   4  17   5    0.63    3.59
  -4 -17   5    3.06   10.41
  -4 -17   5    0.61    1.86
  -5 -17  -5    3.57   15.54
   5  17  -5    0.12    3.14
   5  17  -5   -1.26    2.85
  -5 -17   5   -0.27   11.25
  -5 -17   5    0.21    1.93
   5  17   5    9.13    3.80
   6  17  -5   -2.54    2.87
   6  17  -5    0.66    3.27
  -6 -17   5    5.40   11.78
  -6 -17   5    0.11    1.89
   6 -18  -5   -9.83    2.69
  -6  18   5  -14.16    7.72
  -6  18   5  -13.32    4.51
   5 -18  -5   -8.69    2.79
  -5  18   5  -28.37    7.38
   4 -18  -5  -16.29   11.30
   4 -18  -5   -6.74    2.40
  -4  18   5    0.22    6.41
  -4  18   5    0.19    4.08
   3 -18  -5    1.93   11.86
   3 -18  -5    0.12    2.36
  -3  18  -5   -0.69    3.32
  -3  18  -5   -8.17    7.19
  -3  18   5    5.89    6.02
  -3  18   5    1.42    3.81
   3 -18   5    0.13    2.58
  -2  18  -5    0.82    3.26
   2 -18  -5    0.24    2.38
  -2  18  -5    1.30    6.54
  -2  18   5    1.18    3.93
   2 -18   5   -2.77    9.02
  -2  18   5    5.93    5.52
   2 -18   5   -2.67    2.56
  -1  18  -5    1.57    5.97
   1 -18  -5   -5.25    2.37
  -1  18  -5   -2.35    3.37
   1 -18   5    1.62    2.47
   1 -18   5   10.27    9.34
  -1  18   5    1.41    4.82
   0  18  -5    1.78    3.25
   0  18  -5    0.18    5.30
   0 -18  -5    0.24    2.34
   0 -18  -5    6.60   13.25
   0  18   5   -1.96    3.93
   0 -18   5   -3.26    2.32
   0  18   5    1.83    4.45
   0 -18   5   -2.78    9.85
  -1 -18  -5   -2.75    2.30
   1  18  -5   -3.71    3.29
   1  18  -5    0.48    4.79
  -1 -18  -5   22.73   14.18
  -1 -18   5   -2.02    2.24
   1  18   5    4.79    4.20
   1  18   5   -5.51    3.96
  -1 -18   5    9.04    9.96
   2  18  -5    0.14    3.41
   2  18  -5   -0.74    4.33
  -2 -18  -5  -16.69   14.92
  -2 -18  -5    5.49    2.49
  -2 -18   5    1.50    2.36
   2  18   5    4.01    4.30
  -2 -18   5   15.12    9.97
   2  18   5    8.62    4.00
  -3 -18  -5   -1.29    2.31
   3  18  -5   -0.41    3.79
  -3 -18  -5  -16.21   16.20
   3  18  -5   -1.22    3.21
  -3 -18   5   11.57   10.91
  -3 -18   5    0.46    2.16
   3  18   5   -3.29    4.09
  -4 -18  -5   -7.65   16.53
  -4 -18  -5   -3.76    2.34
   4  18  -5   -0.67    3.79
   4  18  -5    0.80    3.27
  -4 -18   5    0.81    2.18
  -4 -18   5  -17.63   11.56
   4  18   5   -3.69    4.21
   5  18  -5    0.77    3.32
   5  18  -5   -0.68    3.77
  -5 -18   5   -2.19    2.36
   6  18  -5    0.88    3.26
   6  18  -5   -0.29    3.81
   6 -19  -5    1.55    2.78
  -6  19   5   11.06    7.94
  -6  19   5   -1.14    4.40
   5 -19  -5  -10.50   12.16
   5 -19  -5   -4.26    2.71
  -5  19   5    2.74    7.55
  -5  19   5    6.75    4.55
   4 -19  -5   -0.14    2.64
   4 -19  -5    8.67   12.77
  -4  19   5    0.21    4.34
  -4  19   5   -8.23    7.39
  -3  19  -5    1.52    3.67
   3 -19  -5   11.59   13.34
   3 -19  -5    0.13    2.75
  -3  19  -5   -4.16    7.47
  -3  19   5    6.40    4.51
  -3  19   5   12.50    6.75
   3 -19   5   -0.14    2.73
   2 -19  -5   -4.99    2.63
  -2  19  -5    0.23    6.86
  -2  19  -5    4.53    3.75
   2 -19   5  -22.47   10.33
  -2  19   5    2.89    6.07
   2 -19   5   -0.14    2.81
   1 -19  -5   -2.29    2.76
  -1  19  -5   -6.46    3.76
  -1  19  -5   -2.35    6.49
  -1  19   5    2.35    5.67
   1 -19   5    0.14    2.75
   0  19  -5    0.19    6.05
   0  19  -5   -0.50    3.83
   0 -19  -5  -12.06    2.91
   0 -19   5    0.81    2.70
   0  19   5    0.18    4.44
  -1 -19  -5    0.14    2.68
   1  19  -5   -4.53    3.84
   1  19  -5   -2.50    5.41
  -1 -19   5   -0.26    2.62
   1  19   5   -7.43    5.14
   1  19   5   -3.95    4.43
   2  19  -5    1.30    4.80
  -2 -19  -5   -7.09    2.59
  -2 -19  -5  -32.86   17.35
   2  19  -5    0.46    3.56
   2  19   5    5.21    4.44
  -2 -19   5   -1.82    2.56
   2  19   5   -6.71    4.86
   3  19  -5    3.02    3.57
  -3 -19  -5  -39.18   18.30
   3  19  -5    0.15    4.28
  -3 -19  -5    2.06    2.70
   3  19   5    0.74    4.68
  -3 -19   5    1.13    2.33
  -3 -19   5    6.34   11.62
   3  19   5   -0.85    4.17
   4  19  -5   -3.71    3.64
  -4 -19  -5    0.15    2.45
   4  19  -5    0.30    4.17
  -4 -19  -5   13.95   18.37
   4  19   5   -4.74    4.72
  -4 -19   5   -0.13    2.31
  -4 -19   5   19.61   12.94
  -5 -19  -5    0.68   18.70
   5  19  -5    0.16    4.28
   5  19  -5   11.79    3.73
  -5 -19   5    1.09   13.01
  -5 -19   5    0.13    2.44
   5  19   5    3.44    4.57
  -3  20  -5   13.34    8.32
   3 -20   5   -5.89    3.13
  -2  20  -5    3.85    4.09
  -2  20  -5   -5.89    7.33
   2 -20   5   -8.27   10.93
   2 -20   5   -4.51    3.11
  -1  20  -5   -2.99    6.84
   1 -20  -5   -2.73    2.94
  -1  20  -5    2.55    4.23
  -1  20   5    0.64    6.22
   1 -20   5    1.29   11.20
   1 -20   5    2.88    2.98
   0  20  -5   -1.31    4.14
   0 -20  -5    0.21   11.90
   0 -20  -5   -4.12    3.00
   0  20  -5   -0.64    6.43
   0 -20   5   -3.26   11.76
   0 -20   5    0.60    2.96
   0  20   5    0.42    5.78
  -1 -20  -5   -2.32    2.88
   1  20  -5   -1.94    5.77
   1  20  -5    2.72    4.05
  -1 -20   5   -6.96   12.82
   1  20   5   -6.34    5.60
  -1 -20   5   -0.15    2.81
   2  20  -5   -1.08    5.09
  -2 -20  -5    1.13    2.90
   2  20  -5   -1.40    4.10
   2  20   5    3.69    5.32
  -2 -20   5    2.29    2.77
  -2 -20   5   13.03   12.67
   3  20  -5    1.02    4.03
   3  20  -5    0.86    4.79
  -3 -20   5   14.59   13.02
  -3 -20   5    1.71    2.76
   4  20  -5   -0.34    4.68
   4  20  -5    2.65    3.81
  -4 -20   5    2.96   13.38
  -4 -20   5   -0.43    2.60
   5  20  -5    0.16    3.97
   0   0  -6   -0.36    0.64
   0   0   6    0.36    0.26
   0   0   6   -0.05    0.26
   1   0  -6   -0.13    0.56
   0   1  -6    0.03    0.70
   0  -1   6   -0.10    0.28
   0   1   6    0.05    0.26
  -1   0   6    0.07    0.24
  -1   0   6   -0.09    0.21
   1  -1  -6    6.45    1.53
   1  -1  -6    4.32    1.74
   1  -1  -6    5.92    1.82
   1   1  -6    4.69    1.76
  -1  -1   6    5.93    1.50
  -1   1   6    3.69    1.49
  -1  -1   6    4.69    1.52
  -1   1   6    7.96    1.74
   2   1  -6    1.36    0.69
   1  -2  -6    0.54    1.08
   1  -2  -6    1.34    0.70
   1  -2  -6    1.25    0.39
  -2  -1   6    0.72    0.40
  -1   2   6    0.98    0.47
  -1   2   6    1.21    0.43
  -2  -1   6    1.31    0.36
  -1   2   6    1.24    0.38
   2   0  -6   13.86    4.15
   0   2  -6    9.86    4.33
   0  -2  -6   14.77    4.50
   0   2   6   10.75    4.44
   0  -2   6   15.16    3.84
  -2   0   6   12.09    3.83
  -2   0   6   14.86    3.74
   0  -2   6   17.73    3.89
   2  -1  -6    1.09    0.60
   2  -1  -6    1.33    0.34
   1   2  -6    1.02    0.81
   2  -1  -6    0.77    0.88
  -2   1   6    0.82    0.44
  -2   1   6    1.00    0.33
  -1  -2   6    1.27    0.41
  -2   1   6    0.95    0.38
  -1  -2   6    1.78    0.45
  -2   1   6    0.97    0.38
   2   2  -6   50.48   18.10
   2  -2  -6   65.18   16.51
   2  -2  -6   57.77   18.03
   2  -2  -6   34.15   18.77
   2  -2  -6   65.63   16.01
  -2   2   6   69.89   16.68
  -2   2   6   77.40   16.71
  -2  -2   6   70.23   16.58
  -2   2   6   51.46   16.22
  -2   2   6   58.45   17.48
   2  -3  -6    9.16    3.06
   2  -3  -6   11.68    3.44
   2  -3  -6    9.39    3.13
   2  -3  -6    8.08    3.81
  -3  -2   6   11.28    3.91
  -2   3   6   12.53    3.10
  -2   3   6   12.51    3.18
  -2   3   6   13.28    3.38
  -2   3   6   12.04    3.18
  -3  -2   6   12.24    3.17
   1  -3  -6    4.96    1.45
   1  -3  -6    3.13    1.74
   3   1  -6    5.88    1.38
   1  -3  -6    4.30    2.17
  -1   3   6    4.75    1.48
  -1   3   6    5.27    1.41
  -3  -1   6    5.10    1.46
  -3  -1   6    5.54    1.40
  -1   3   6    5.73    1.55
   0   3  -6    0.03    1.00
   0  -3  -6   -0.16    0.30
   0  -3  -6   -0.15    1.24
   3   0  -6    0.19    0.15
   0  -3   6    0.39    0.41
  -3   0   6    0.03    0.26
  -3   0   6   -0.14    0.17
   0  -3   6    0.14    0.39
   0   3   6    0.21    0.46
   1   3  -6    3.27    1.76
   1   3  -6    4.27    1.50
   3  -1  -6    4.86    1.37
  -1  -3   6    6.68    1.46
  -1  -3   6    3.86    2.08
  -3   1   6    6.05    1.39
  -1  -3   6    4.94    1.43
  -1  -3   6    6.39    1.42
  -3   1   6    3.67    1.45
   2   3  -6   13.23    3.32
   3  -2  -6   13.11    3.32
   3  -2  -6   11.73    3.19
   2   3  -6   10.42    3.63
   3  -2  -6    7.72    3.98
   2   3  -6   13.05    3.38
  -2  -3   6   12.08    3.28
  -3   2   6   13.99    3.34
  -2  -3   6   12.19    3.25
  -3   2   6   13.43    3.41
  -2  -3   6    9.51    3.91
  -3   2   6   11.74    3.25
  -2  -3   6   11.43    3.18
   3  -3  -6   -0.06    0.39
   3  -3  -6    0.13    1.87
   3   3  -6    0.13    0.42
   3  -3  -6    0.01    0.16
  -3   3   6   -0.16    0.54
  -3   3   6   -0.03    0.20
  -3  -3   6    0.26    1.14
  -3  -3   6    0.24    0.36
  -3   3   6    0.17    0.27
   4   3  -6    8.73    2.46
   3  -4  -6   10.53    3.50
   3  -4  -6    6.38    2.58
  -4  -3   6    7.34    3.38
  -4  -3   6    9.90    2.49
  -3   4   6   10.21    2.66
  -3   4   6   10.49    2.63
   2  -4  -6   28.17    6.85
   2  -4  -6   18.20    7.99
   2  -4  -6   24.97    6.91
   2  -4  -6   21.98    7.54
  -2   4   6   30.73    6.96
  -2   4   6   28.49    7.05
  -2   4   6   22.55    7.40
  -2   4   6   27.01    7.00
   1  -4  -6    7.69    2.43
   1  -4  -6    7.57    3.34
  -1   4   6    9.65    2.57
  -4  -1   6    9.64    2.47
  -1   4   6    9.04    2.38
   0  -4  -6    1.03    0.41
   0   4  -6    0.93    1.24
   4   0  -6    0.73    0.31
   0  -4  -6    0.87    1.88
   0   4  -6    0.69    0.51
  -4   0   6    0.76    0.34
   0   4   6    0.89    0.61
   0  -4   6    0.45    0.52
  -4   0   6    0.96    0.40
   0  -4   6    1.23    0.55
   1   4  -6    9.15    2.37
  -1  -4  -6    5.97    2.31
   1   4  -6    6.91    2.69
  -1  -4  -6    7.83    3.08
  -4   1   6    8.90    2.31
  -1  -4   6    9.31    2.26
  -1  -4   6    8.37    2.30
  -4   1   6    6.62    2.27
  -1  -4   6    8.33    3.09
   1   4   6   10.54    2.69
  -1  -4   6    6.91    2.22
   2   4  -6   25.17    6.40
   2   4  -6   18.68    6.30
   2   4  -6   23.42    6.94
  -2  -4   6   25.25    6.09
  -2  -4   6   14.11    7.49
   3   4  -6   11.54    2.77
  -3  -4   6    6.64    3.36
  -3  -4   6    9.35    2.60
   4  -4  -6    3.78    1.23
   4   4  -6    3.96    1.08
  -4  -4   6    3.69    1.10
  -4   4   6    5.50    1.35
  -4  -4   6    3.01    2.13
  -4  -4   6    3.24    1.19
   4  -5  -6   15.13    4.48
   5   4  -6    8.04    3.12
  -5  -4   6   11.91    3.24
  -5  -4   6   13.55    4.10
  -5  -4   6   12.10    3.18
  -4   5   6   11.13    3.40
   5   3  -6   30.78    8.12
  -5  -3   6   27.63    8.30
  -3   5   6   32.38    8.72
   2  -5  -6    9.87    3.84
  -2   5   6   13.67    3.55
  -5  -2   6   13.69    3.51
  -5  -1   6   13.36    3.65
   0   5  -6   -0.56    1.49
   0   5  -6   -0.27    0.64
   0  -5   6    1.00    0.51
   0  -5   6   -0.26    0.62
   0  -5   6    0.35    2.25
   0  -5   6    0.03    0.52
   1   5  -6   12.61    3.76
   1   5  -6   13.29    3.34
  -1  -5   6   10.21    3.21
  -1  -5   6    9.98    4.24
  -2  -5  -6   21.54    4.87
   2   5  -6   12.05    4.07
   2   5  -6   13.04    3.99
  -2  -5   6   10.13    4.80
  -2  -5   6   15.27    3.89
   3   5  -6   35.12    8.93
  -3  -5   6   29.53    8.65
  -3  -5   6   33.46    8.38
  -3  -5   6   29.37   10.02
  -3  -5   6   28.52    8.67
   4   5  -6    6.17    3.19
   4   5  -6   12.05    2.77
  -4  -5   6    9.24    2.92
  -4  -5   6    8.06    2.92
  -4  -5   6   14.42    4.04
  -4  -5   6   10.75    2.79
   5  -5  -6   -0.04    0.69
   5   5  -6    0.56    0.38
  -5  -5   6    4.46    2.20
  -5  -5   6    0.33    0.56
  -5  -5   6    0.49    0.45
   5  -6  -6   -0.51    0.82
   6   5  -6    0.04    0.42
  -6  -5   6    0.45    0.59
  -6  -5   6    0.43    0.54
  -5   6   6    0.13    1.23
   4  -6  -6    7.78    4.84
   6   4  -6   13.34    3.21
   4  -6  -6   14.18    3.35
  -4   6   6    7.66    3.51
  -6  -4   6   11.27    3.30
  -6  -4   6   13.10    3.32
   3  -6  -6    3.25    3.06
   6   3  -6    3.88    1.21
   3  -6  -6    5.04    1.33
  -3   6   6    2.35    1.44
  -3   6   6    5.13    1.25
   2  -6  -6   25.65    8.21
  -2   6   6   22.17    7.47
  -2   6   6   26.01    7.01
   1  -6  -6   -1.62    3.00
   1  -6  -6   -0.08    0.50
  -1   6  -6    0.84    0.79
  -1   6   6    0.04    1.01
   0  -6  -6    1.81    0.69
   0  -6  -6    0.73    3.02
   0   6   6    1.71    0.98
  -1  -6  -6    1.94    2.81
  -1  -6  -6   -0.41    0.55
   1   6   6   -0.16    0.91
  -2  -6  -6   31.06    8.37
   2   6  -6   20.77    7.04
  -2  -6   6   25.57    6.62
  -2  -6   6   23.74    6.74
   2   6   6   18.37    7.61
   3   6  -6    3.55    1.84
   3   6  -6    2.60    1.14
   3   6  -6    3.23    1.41
  -3  -6   6    4.72    1.28
  -3  -6   6    4.33    1.15
  -3  -6   6    5.61    1.23
  -4  -6   6   12.79    3.61
  -4  -6   6   12.56    3.44
   5   6  -6    1.07    0.67
  -5  -6   6    1.55    0.88
  -5  -6   6    2.51    0.75
   6   6  -6    0.90    0.50
   6  -6  -6    0.47    0.86
  -6  -6   6    0.44    0.63
  -6  -6   6    0.48    2.62
  -6  -6   6    0.22    0.56
   6  -7  -6   -0.05    0.94
  -7  -6   6    0.26    0.63
   5  -7  -6    0.85    0.92
   5  -7  -6    2.29    3.84
  -5   7   6    0.84    1.26
   4  -7  -6    3.62    1.03
   4  -7  -6   -1.31    3.81
  -4   7   6    1.60    1.29
   3  -7  -6    9.81    2.21
   3  -7  -6    3.30    4.08
  -3   7   6    6.80    2.33
   2  -7  -6    7.65    3.64
   2  -7  -6    3.68    1.44
  -2   7   6    5.00    1.60
  -2   7   6    4.64    2.09
   1  -7  -6    1.58    0.65
  -1   7  -6    0.63    0.94
   1  -7  -6    1.31    3.53
  -1   7   6    0.65    1.25
   1  -7   6    0.32    0.81
   1  -7   6   -0.72    3.02
   0  -7  -6   -0.27    0.59
   0   7  -6    0.17    0.82
   0  -7  -6    0.15    3.63
   0   7   6   -0.08    1.00
   0  -7   6   -0.15    0.70
   0  -7   6    7.83    2.99
   0  -7   6   -0.03    0.63
   1   7  -6    0.72    0.82
  -1  -7  -6    1.70    3.59
   1   7  -6    0.15    1.51
  -1  -7  -6    1.14    0.66
  -1  -7   6   -0.03    0.72
  -1  -7   6   -0.03    2.63
  -1  -7   6    1.17    0.56
  -1  -7   6    1.69    0.67
   1   7   6    1.96    1.10
   2   7  -6    9.17    1.83
   2   7  -6    4.41    2.24
   2   7  -6    4.33    1.58
  -2  -7  -6    5.45    1.54
  -2  -7  -6    8.00    3.67
  -2  -7   6    0.14    3.26
  -2  -7   6    4.12    1.38
   2   7   6    3.52    1.87
  -2  -7   6    5.06    1.55
  -2  -7   6    4.74    1.46
   3   7  -6    1.52    2.97
   3   7  -6    5.43    1.84
  -3  -7   6    6.36    2.02
  -3  -7   6    8.53    1.85
  -3  -7   6    7.26    1.95
   4   7  -6    1.21    1.13
   4   7  -6    1.11    0.57
  -4  -7   6    1.30    0.56
  -4  -7   6    1.87    0.71
  -4  -7   6    1.00    0.75
   5   7  -6    2.37    1.24
   5   7  -6    1.15    0.58
  -5  -7   6    1.36    0.62
  -5  -7   6    1.04    0.75
  -5  -7   6    3.11    3.47
   6   7  -6   -0.14    0.54
  -6  -7   6   -3.50    3.38
  -6  -7   6    1.11    0.72
  -6  -7   6    0.12    0.57
  -7  -7   6    3.92    1.36
   6  -8  -6    0.57    1.15
  -6   8   6    0.36    1.51
   5  -8  -6   -6.13    4.25
   5  -8  -6    1.95    1.00
  -5   8   6    2.43    1.45
   4  -8  -6    0.05    0.94
   4  -8  -6    7.42    3.94
  -4   8   6    0.38    1.26
   3  -8  -6   -3.69    3.73
   3  -8  -6    0.64    0.80
  -3   8   6    0.38    1.11
  -3   8   6   -1.22    2.16
   2  -8  -6   13.33    4.23
   2  -8  -6    3.50    1.45
  -2   8  -6    4.02    1.68
  -2   8   6    3.31    2.24
  -2   8   6    4.67    1.64
   2  -8   6    4.21    1.58
   1  -8  -6  -10.44    4.53
   1  -8  -6    0.07    0.74
  -1   8  -6   -0.64    1.08
  -1   8   6   -0.55    1.47
   1  -8   6    0.51    0.85
   1  -8   6   -7.75    3.68
   1  -8   6    0.81    0.87
   0   8  -6    4.41    1.53
   0  -8  -6    3.22    1.33
   0   8  -6    5.12    2.42
   0  -8   6    4.51    1.39
   0  -8   6    2.92    1.27
   0  -8   6    4.46    1.43
   0   8   6    4.80    1.68
  -1  -8  -6    2.75    4.31
  -1  -8  -6    0.36    0.68
   1   8  -6   -0.75    1.77
   1   8  -6   -0.42    0.94
   1   8  -6   -2.23    1.97
  -1  -8   6   -0.04    0.80
   1   8   6   -0.19    1.21
  -1  -8   6   -0.38    0.54
  -1  -8   6    0.04    0.73
   2   8  -6    5.05    1.19
   2   8  -6    3.82    2.17
  -2  -8  -6    5.80    4.24
   2   8  -6    3.13    1.46
   2   8  -6    4.88    1.86
  -2  -8  -6    2.23    1.37
  -2  -8   6   10.00    3.47
   2   8   6    4.24    1.78
  -2  -8   6    6.07    1.31
  -2  -8   6    2.62    1.39
  -2  -8   6    2.93    1.21
  -3  -8  -6    1.09    0.86
   3   8  -6    1.63    1.17
   3   8  -6    0.41    0.45
   3   8  -6    1.25    1.78
  -3  -8   6   -0.24    0.75
  -3  -8   6    0.98    0.43
  -3  -8   6   -2.63    3.42
   3   8   6   -0.22    1.40
  -3  -8   6    0.17    0.65
   4   8  -6    0.66    0.45
   4   8  -6    0.85    1.13
  -4  -8   6   -0.03    0.50
  -4  -8   6   -0.22    0.68
  -4  -8   6    1.18    3.67
  -4  -8   6    0.27    0.72
   5   8  -6    1.39    1.39
   5   8  -6    1.82    0.68
  -5  -8   6    1.37    0.74
  -5  -8   6    0.05    4.06
  -5  -8   6    2.14    0.91
  -5  -8   6    1.66    0.85
   6   8  -6    2.91    0.83
  -6  -8   6    1.27    0.88
  -6  -8   6    4.99    4.25
  -6  -8   6    2.37    1.04
  -7  -8   6   -0.88    4.10
  -7  -8   6    2.60    1.02
   6  -9  -6    4.90    1.96
  -6   9   6    6.74    2.39
   5  -9  -6    1.43    1.09
   5  -9  -6   -6.08    4.74
  -5   9   6    1.89    1.56
   4  -9  -6    0.51    1.04
   4  -9  -6    3.07    4.42
  -4   9   6   -0.97    1.40
   3  -9  -6   -0.05    0.97
   3  -9  -6   -0.61    4.07
  -3   9   6    0.98    1.23
  -3   9   6   -1.30    2.44
  -2   9  -6    2.64    1.35
   2  -9  -6    0.11    4.27
   2  -9  -6    1.96    1.00
  -2   9   6    2.25    2.15
   2  -9   6    2.52    1.18
  -2   9   6    1.84    1.32
   2  -9   6    0.06    1.20
  -1   9  -6   -0.19    1.26
   1  -9  -6    3.27    4.69
   1  -9  -6   -0.43    0.79
  -1   9   6   -0.75    1.66
   1  -9   6   -0.14    0.87
   1  -9   6   -1.54    3.82
   1  -9   6   -1.30    1.04
   0  -9  -6   -0.87    0.82
   0   9  -6   -0.21    2.21
   0   9  -6    0.71    1.10
   0  -9  -6    0.20    4.81
   0  -9   6    4.07    3.59
   0  -9   6    0.80    0.88
   0   9   6   -1.51    1.43
   0  -9   6    0.05    0.93
   0  -9   6   -0.27    0.65
   1   9  -6    1.40    1.90
   1   9  -6    1.39    2.04
  -1  -9  -6   -0.14    0.84
  -1  -9  -6    1.80    5.06
   1   9  -6    0.95    1.05
  -1  -9   6    0.29    0.88
   1   9   6    0.81    1.30
  -1  -9   6    0.25    0.80
  -1  -9   6    0.14    0.53
  -1  -9   6    0.14    3.44
  -2  -9  -6    2.72    1.04
   2   9  -6    2.22    1.64
  -2  -9  -6    4.70    4.98
   2   9  -6    1.34    1.16
   2   9  -6    2.48    0.73
   2   9  -6    2.41    2.11
  -2  -9   6   -0.09    3.58
  -2  -9   6    1.43    0.75
  -2  -9   6    1.17    1.02
   2   9   6    3.94    1.52
  -2  -9   6    2.74    0.95
   3   9  -6    0.47    0.48
  -3  -9  -6    0.74    0.93
   3   9  -6   -0.63    1.95
   3   9  -6    0.24    1.33
  -3  -9   6    1.42    0.74
  -3  -9   6    0.46    0.49
   3   9   6    0.07    1.55
  -3  -9   6   -0.39    4.03
  -3  -9   6    0.46    0.88
   4   9  -6    0.43    1.24
   4   9  -6    1.10    0.51
   4   9  -6   -1.45    2.04
  -4  -9   6   -0.23    0.87
  -4  -9   6    1.14    0.54
  -4  -9   6    0.25    0.78
  -4  -9   6   -3.02    4.46
   5   9  -6    1.28    0.74
   5   9  -6    1.00    1.44
  -5  -9   6    2.23    4.79
  -5  -9   6    2.63    0.98
  -5  -9   6    1.79    0.99
  -5  -9   6    1.55    0.75
   6   9  -6    7.13    1.78
  -6  -9   6    6.22    1.93
  -6  -9   6    4.73    1.79
  -6  -9   6    6.64    5.33
  -7  -9   6    6.75    5.62
  -7  -9   6    8.04    2.40
   7 -10  -6    1.62    1.46
   6 -10  -6    1.71    1.45
  -6  10   6    1.93    2.00
   5 -10  -6   11.10    6.34
   5 -10  -6   16.94    3.72
  -5  10   6    8.14    4.02
   4 -10  -6    5.14    4.83
   4 -10  -6   -1.42    1.15
  -4  10   6    0.08    1.53
   3 -10  -6   19.51    6.34
   3 -10  -6   14.59    4.00
  -3  10   6   19.08    5.12
   3 -10   6   10.60    4.09
  -3  10   6   11.31    4.20
  -2  10  -6    4.80    1.61
   2 -10  -6    2.91    4.99
   2 -10  -6    0.66    1.11
   2 -10   6    0.07    4.37
   2 -10   6    0.87    1.33
  -2  10   6    0.50    2.48
   2 -10   6    3.03    1.27
  -2  10   6    2.04    1.50
  -1  10  -6    2.98    1.49
   1 -10  -6    1.63    1.09
   1 -10  -6   -1.51    5.45
   1 -10   6    2.36    0.97
  -1  10   6   -0.72    1.97
   1 -10   6    1.90    1.23
   1 -10   6    1.55    4.31
   0 -10  -6   -2.81    6.03
   0  10  -6    4.81    3.45
   0  10  -6    7.98    2.48
   0 -10  -6    7.37    2.22
   0 -10   6    7.31    2.33
   0 -10   6    3.28    4.57
   0  10   6   11.79    2.67
   0 -10   6    7.36    2.10
   0 -10   6    7.95    2.29
  -1 -10  -6    0.56    1.06
   1  10  -6    0.65    2.35
  -1 -10  -6    0.08    5.88
   1  10  -6    0.92    1.26
   1  10  -6    5.28    2.31
  -1 -10   6    1.94    0.68
  -1 -10   6    0.73    1.04
  -1 -10   6   -0.71    3.85
  -1 -10   6    0.76    1.02
   1  10   6    4.53    1.67
   2  10  -6   -0.09    2.26
   2  10  -6    2.60    1.25
   2  10  -6    4.00    1.96
   2  10  -6    1.69    0.69
  -2 -10  -6    1.99    1.07
  -2 -10   6    2.40    0.97
  -2 -10   6    0.75    0.70
   2  10   6    5.40    1.64
  -2 -10   6    1.18    1.11
  -2 -10   6    1.59    4.09
  -3 -10  -6    7.82    3.74
   3  10  -6   11.00    3.96
   3  10  -6   20.73    4.03
   3  10  -6   14.21    4.70
   3  10  -6   15.73    3.63
  -3 -10   6    8.27    6.27
  -3 -10   6   10.69    3.59
   3  10   6   12.87    4.15
  -3 -10   6   14.76    3.71
  -3 -10   6   14.01    3.93
   4  10  -6    1.26    1.43
  -4 -10  -6   -1.14    5.25
   4  10  -6    0.44    0.60
   4  10  -6    0.31    2.27
   4  10   6   -1.46    1.76
  -4 -10   6    1.04    0.99
  -4 -10   6   10.25    5.29
  -4 -10   6    0.41    0.59
  -4 -10   6    1.04    0.87
   5  10  -6   15.78    3.92
   5  10  -6   14.51    3.52
  -5 -10   6   13.10    3.76
  -5 -10   6    8.17    3.51
  -5 -10   6   16.02    3.61
  -5 -10   6    2.45    6.96
   6  10  -6    3.75    1.17
   6  10  -6    6.27    1.98
  -6 -10   6    1.98    1.35
  -6 -10   6    3.24    1.18
  -6 -10   6    0.96    5.69
  -7 -10   6   -0.05    1.05
  -7 -10   6    1.19    6.00
  -8 -10   6    6.90    2.23
   7 -11  -6    0.08    1.43
   6 -11  -6    0.09    5.66
   6 -11  -6    0.57    1.43
  -6  11   6    1.86    2.05
   5 -11  -6    0.08    5.63
   5 -11  -6    0.13    1.31
  -5  11   6    1.85    1.93
   4 -11  -6    0.50    1.45
  -4  11   6    8.05    3.80
  -4  11   6    3.16    1.95
   3 -11  -6    2.30    1.54
  -3  11   6    6.07    3.59
  -3  11   6    0.85    2.11
   3 -11   6    2.77    1.68
   2 -11  -6   -3.52    5.75
  -2  11  -6    1.66    1.64
   2 -11  -6   -2.67    1.14
   2 -11   6   -0.07    1.37
  -2  11   6    2.57    2.68
   2 -11   6   -2.07    4.75
  -2  11   6   -0.88    1.67
   1 -11  -6    8.24   10.68
   1 -11  -6   29.39    7.54
  -1  11  -6   38.35    8.04
   1 -11   6   20.58    7.64
  -1  11   6   27.99    7.92
  -1  11   6   41.39    8.28
   1 -11   6   20.43    9.78
   0  11  -6    1.63    1.45
   0  11  -6   -0.10    3.05
   0 -11  -6   -2.02    1.12
   0 -11  -6    0.09    6.61
   0 -11   6   -0.24    1.20
   0 -11   6   -2.49    4.52
   0  11   6    0.15    1.97
   1  11  -6   29.27    7.78
   1  11  -6   27.74    8.22
  -1 -11  -6   29.57    7.36
  -1 -11  -6   27.75   11.56
   1  11  -6   19.59    9.31
   1  11   6   37.82    7.78
  -1 -11   6   10.15    9.43
  -1 -11   6   26.09    7.42
   2  11  -6    1.40    1.30
   2  11  -6    0.63    0.55
  -2 -11  -6    1.28    1.08
   2  11  -6    1.01    2.47
   2  11  -6    0.14    2.10
  -2 -11   6    0.16    0.55
  -2 -11   6    1.32    0.99
  -2 -11   6   -5.84    4.76
  -2 -11   6    2.51    1.07
   2  11   6    2.30    1.78
   3  11  -6    4.82    1.11
   3  11  -6    5.86    2.06
  -3 -11  -6    2.85    1.52
   3  11  -6    2.10    2.64
   3  11  -6    4.67    1.66
  -3 -11   6    4.14    1.37
   3  11   6   -0.33    2.20
  -3 -11   6  -11.54    5.50
  -3 -11   6    2.94    1.08
  -3 -11   6    4.41    1.52
   4  11  -6    6.63    1.31
  -4 -11  -6  -10.59    6.68
   4  11  -6    4.35    1.99
   4  11  -6    2.55    2.83
  -4 -11   6    6.54    1.67
  -4 -11   6    0.67    5.86
   4  11   6    3.73    2.36
  -4 -11   6    3.68    1.47
  -4 -11   6    2.76    1.29
   5  11  -6    1.67    1.67
   5  11  -6    0.88    2.68
   5  11  -6    1.14    0.71
  -5 -11   6   -0.88    1.16
  -5 -11   6    0.65    0.74
  -5 -11   6    2.81    5.99
  -5 -11   6    1.57    1.09
   6  11  -6    1.65    0.91
   6  11  -6    0.97    1.95
  -6 -11   6    6.17    6.55
  -6 -11   6    2.03    1.21
  -6 -11   6    1.55    0.92
  -6 -11   6    1.87    1.25
  -7 -11   6    4.37    6.66
  -7 -11   6    1.41    1.23
  -8 -11   6   -1.02    1.21
   5 -12  -6    0.07    1.44
   4 -12  -6    0.83    6.07
   4 -12  -6    1.10    1.56
  -4  12   6    6.09    4.17
  -4  12   6    3.41    2.13
  -3  12  -6   -0.73    1.78
   3 -12  -6    4.65    5.94
   3 -12  -6   -0.39    1.37
   3 -12   6    0.77    1.60
  -3  12   6   -0.12    3.47
  -3  12   6    2.53    2.05
   2 -12  -6   14.42    4.64
   2 -12  -6    6.79    8.33
  -2  12  -6   19.14    5.01
  -2  12   6   16.30    4.97
  -2  12   6   26.31    5.74
   2 -12   6    7.89    7.34
   2 -12   6   18.86    4.74
  -1  12  -6    1.44    1.73
   1 -12  -6   -1.45    1.26
  -1  12   6   -0.47    2.67
  -1  12   6   -0.08    1.82
   1 -12   6   -1.57    1.45
   1 -12   6    0.23    5.16
   0  12  -6   13.82    6.53
   0 -12  -6   18.08   10.02
   0 -12  -6   18.38    5.28
   0  12  -6   19.89    5.64
   0 -12   6    6.86    7.73
   0  12   6   28.86    5.86
   0 -12   6   19.43    5.35
   1  12  -6    0.37    2.83
   1  12  -6    0.90    1.58
  -1 -12  -6   -3.22    1.27
  -1 -12   6    0.73    1.18
  -1 -12   6   -0.82    5.00
   1  12   6   -0.85    2.12
   2  12  -6   13.90    4.72
   2  12  -6   13.27    4.36
  -2 -12  -6   11.06    4.04
  -2 -12   6    6.76    7.03
  -2 -12   6   15.05    4.07
   2  12   6   19.64    4.53
  -3 -12  -6    1.52    1.32
   3  12  -6   -0.62    2.02
   3  12  -6    0.95    1.49
  -3 -12   6    4.79    5.72
  -3 -12   6   -0.11    1.12
   3  12   6    0.89    2.18
   4  12  -6    4.47    2.18
  -4 -12  -6    3.66    1.80
   4  12   6    3.56    2.51
  -4 -12   6    5.43    1.63
  -4 -12   6    6.31    6.53
   5  12  -6   -3.07    1.96
  -5 -12   6    0.32    1.12
  -5 -12   6    1.04    6.85
   6  12  -6   -0.60    1.96
   6  12  -6    0.68    0.85
  -6 -12   6    2.56    7.31
  -6 -12   6    0.07    1.20
  -7 -12   6    0.35    7.60
  -8 -12   6    1.90    1.37
   7 -13  -6    2.14    1.78
  -7  13   6   -0.42    2.58
   6 -13  -6   10.24    3.01
  -6  13   6    4.98    3.52
   5 -13  -6   -0.97    7.02
   5 -13  -6    6.69    1.90
  -5  13   6    0.12    2.61
   4 -13  -6    3.30    6.64
  -4  13   6   -0.53    2.26
  -1  13  -6   12.60    3.47
  -1  13  -6   10.98    5.00
   1 -13   6    9.75    3.16
   1 -13   6    3.34    6.54
   0  13  -6    0.12    3.73
   0  13  -6   -0.77    1.78
   0 -13   6    2.27    5.56
   0 -13   6   -1.08    1.46
   1  13  -6    4.97    3.30
   1  13  -6   12.54    4.18
  -1 -13   6   13.98    2.97
  -1 -13   6    1.61    6.18
   2  13  -6   -1.06    1.89
   2  13  -6    1.34    2.76
  -2 -13   6    2.42    1.43
  -2 -13   6    3.28    5.94
   3  13  -6    1.23    2.03
  -3 -13  -6   -0.12    9.17
   3  13  -6    4.34    2.38
  -3 -13   6    3.64    1.52
  -3 -13   6    1.82    6.34
  -4 -13  -6   -0.09    1.28
   4  13  -6   -0.07    2.06
  -4 -13  -6  -14.84    8.90
   4  13  -6   -0.58    1.80
  -4 -13   6    3.01    7.17
  -4 -13   6    0.77    1.22
   5  13  -6    3.13    2.27
  -5 -13   6    1.13    1.44
  -5 -13   6   -2.59    7.90
  -6 -13   6   46.59    9.57
  -6 -13   6    8.22    3.73
   7 -14  -6    1.43    2.07
  -7  14   6    5.46    2.83
   6 -14  -6   -0.22    7.19
   6 -14  -6    1.08    1.80
  -6  14   6    0.42    2.74
   5 -14  -6    3.51    2.32
   5 -14  -6    7.13    7.62
  -5  14   6    8.96    5.43
  -5  14   6    7.78    3.15
   4 -14  -6   -0.08    1.69
   4 -14  -6  -13.44    8.09
  -4  14   6    0.32    4.58
  -4  14   6   -1.90    2.58
  -3  14   6   11.27    5.35
  -2  14  -6   -2.13    2.36
   2 -14  -6   -5.67    1.77
  -2  14   6    0.11    2.63
   2 -14   6   -0.09    1.65
  -2  14   6    0.39    3.89
   1 -14  -6   -4.67    8.32
   1 -14  -6    0.08    1.74
  -1  14   6   -2.22    3.33
  -1  14   6   -1.13    2.70
   0 -14  -6   -9.48    9.76
   0 -14  -6    3.78    1.82
   0  14   6    6.10    3.02
   0  14   6   -1.12    2.70
  -1 -14  -6   -4.65    1.63
   1  14   6   -1.48    2.66
  -2 -14  -6   -1.42    1.63
   2  14   6   -3.93    2.60
  -3 -14  -6   -4.13   10.78
  -3 -14  -6    0.09    1.90
   3  14  -6   -0.52    2.90
   3  14   6    5.30    2.92
  -4 -14  -6   -8.91   10.45
  -4 -14  -6    0.92    1.52
   4  14   6   -3.77    2.63
  -5 -14  -6    7.29   10.36
   7 -15  -6    4.54    2.28
  -7  15   6    0.33    3.13
   6 -15  -6    5.10    2.04
   6 -15  -6   -5.65    7.91
  -6  15   6    2.32    5.94
  -6  15   6   -7.83    3.06
   5 -15  -6    2.04    2.01
   5 -15  -6   -0.58    8.10
  -5  15   6    6.74    5.54
  -5  15   6    4.73    3.06
   4 -15  -6    2.67    8.55
   4 -15  -6    2.37    1.93
  -4  15   6   15.19    5.19
  -4  15   6   -1.59    2.89
   3 -15  -6    2.88    1.89
  -3  15  -6    0.13    2.40
   3 -15  -6   -3.92    8.05
  -3  15   6    1.24    2.82
   3 -15   6   -2.75    2.10
  -3  15   6   -0.94    4.56
  -2  15  -6   -0.86    5.16
  -2  15  -6   -3.68    2.42
   2 -15  -6   -1.69    1.82
   2 -15  -6    7.88    8.68
  -2  15   6   -3.86    4.24
   2 -15   6   -2.10    2.06
   2 -15   6   -5.75    6.63
  -2  15   6    3.97    2.85
   1 -15  -6    0.12    9.40
   1 -15  -6    0.09    1.85
  -1  15  -6    0.80    2.36
  -1  15  -6   -1.75    4.85
  -1  15   6    1.03    3.68
   1 -15   6   -9.89    6.95
  -1  15   6    1.06    2.91
   1 -15   6   -4.36    1.91
   0 -15  -6   -5.26    1.86
   0  15  -6    2.85    4.62
   0  15  -6   -0.11    2.31
   0  15   6    2.25    3.20
   0 -15   6   -0.80    1.77
   0 -15   6  -12.28    7.15
   0  15   6  -12.19    2.97
  -1 -15  -6    0.62    1.72
   1  15  -6    0.50    3.79
   1  15  -6    0.10    2.27
  -1 -15   6    0.09    1.71
  -1 -15   6   -5.94    6.77
   1  15   6    0.11    2.87
  -2 -15  -6    1.02    1.70
  -2 -15  -6   11.68   11.70
   2  15  -6    1.82    2.30
   2  15  -6    0.11    3.32
  -2 -15   6    0.08    1.65
   2  15   6   -0.79    2.84
  -2 -15   6   -2.37    6.93
   3  15  -6    0.68    2.77
   3  15  -6   -3.01    2.33
  -3 -15  -6   -2.13   11.72
  -3 -15  -6   -3.69    1.71
   3  15   6   -0.82    2.77
  -3 -15   6    1.95    7.73
  -3 -15   6    1.05    1.57
   4  15  -6   -0.46    2.55
  -4 -15  -6    3.03    1.76
  -4 -15  -6   24.25   12.00
   4  15  -6    3.29    2.33
   4  15   6    1.68    2.97
  -4 -15   6   -1.14    1.57
  -4 -15   6   -2.22    8.36
  -5 -15  -6   -2.77   11.71
   5  15  -6    1.01    2.21
   5  15  -6   -0.10    2.53
   5  15   6    0.28    2.85
  -5 -15   6  -12.61    9.23
  -5 -15   6    0.26    1.57
   6  15  -6    0.86    2.58
  -6 -15   6    4.66    9.66
  -6 -15   6    0.18    1.60
   7 -16  -6    2.48    2.37
  -7  16   6   12.40    6.54
  -7  16   6    1.79    3.41
   6 -16  -6    0.32    2.08
   6 -16  -6   10.13    8.73
  -6  16   6    3.04    3.32
  -6  16   6   -5.44    6.21
   5 -16  -6    2.66    2.07
   5 -16  -6    2.95    9.00
  -5  16   6  -14.39    5.97
  -5  16   6   -1.27    3.34
   4 -16  -6    0.20    2.09
  -4  16   6    5.48    3.25
  -4  16   6    7.58    5.64
   3 -16  -6    2.97    2.02
   3 -16  -6    0.49    8.96
  -3  16  -6    0.72    2.74
  -3  16   6    6.00    5.08
   3 -16   6    1.38    2.37
  -3  16   6    0.56    3.23
   2 -16  -6    2.77    2.00
   2 -16  -6    3.12    9.59
  -2  16  -6    1.08    2.81
  -2  16  -6   -0.37    5.67
   2 -16   6    1.53    7.15
   2 -16   6   -2.80    2.27
  -2  16   6   -0.16    4.38
  -2  16   6   10.37    3.33
   1 -16  -6   -2.17    1.99
   1 -16  -6   13.31   10.31
  -1  16  -6    5.72    2.76
  -1  16  -6    0.17    5.28
   1 -16   6    1.44    2.04
  -1  16   6   -1.98    3.21
  -1  16   6    2.15    4.02
   1 -16   6    0.11    7.35
   0 -16  -6    0.10    1.97
   0  16  -6   -0.63    4.68
   0  16  -6   -1.66    2.58
   0  16   6   -2.82    3.17
   0 -16   6   -3.04    7.73
   0 -16   6    1.77    1.97
   0  16   6    2.51    3.59
   1  16  -6    2.14    2.61
  -1 -16  -6   -2.37    1.81
   1  16  -6   -1.10    4.01
  -1 -16   6   -3.42    1.82
   1  16   6   -3.78    3.39
  -1 -16   6   12.16    7.52
   2  16  -6   -0.12    3.55
  -2 -16  -6    7.25   13.04
  -2 -16  -6   -6.62    1.94
   2  16  -6   -1.83    2.48
   2  16   6   -4.95    3.36
  -2 -16   6    4.49    7.93
  -2 -16   6    0.74    1.78
  -3 -16  -6    7.73   13.41
   3  16  -6    0.63    2.50
  -3 -16  -6   -4.52    1.98
   3  16  -6   -0.32    3.05
  -3 -16   6    0.99    1.73
   3  16   6    8.18    3.33
  -3 -16   6   -1.42    8.24
   4  16  -6   -1.96    3.37
  -4 -16  -6   -8.01   13.62
  -4 -16  -6    1.11    1.84
   4  16   6   -3.86    3.41
   5  16  -6   -4.52    2.74
   5  16   6   -4.99    3.49
   6  16  -6   -0.12    2.93
   6  16  -6   -1.93    2.62
   7 -17  -6   -8.81    2.57
  -7  17   6    0.20    3.71
  -7  17   6  -14.13    7.26
   6 -17  -6    5.52    9.53
   6 -17  -6    0.46    2.19
  -6  17   6   -3.37    7.04
  -6  17   6   -0.74    3.79
   5 -17  -6    0.34    2.19
   5 -17  -6    8.69   10.13
  -5  17   6    2.64    3.66
  -5  17   6   -0.65    6.42
   4 -17  -6    4.93   10.24
   4 -17  -6    2.78    2.23
  -4  17   6   -9.87    5.93
  -4  17   6   -6.01    3.65
  -3  17  -6   -1.88    2.95
   3 -17  -6    9.79   10.41
   3 -17  -6    2.96    2.27
  -3  17  -6   -0.85    6.92
   3 -17   6    1.49    2.62
  -3  17   6   -0.56    5.14
  -3  17   6   -2.05    3.50
   2 -17  -6    0.11    2.15
   2 -17  -6    8.21   10.50
  -2  17  -6    1.34    3.11
  -2  17  -6   -1.41    6.13
   2 -17   6    6.32    8.01
  -2  17   6    1.98    3.45
  -2  17   6   -2.76    5.02
   2 -17   6    0.82    2.47
  -1  17  -6   -7.87    3.03
   1 -17  -6    1.03   11.39
  -1  17  -6   -0.94    5.88
   1 -17  -6    0.44    2.16
   1 -17   6    1.69    2.22
  -1  17   6    0.15    3.42
  -1  17   6    4.41    4.46
   1 -17   6    1.27    8.21
   0  17  -6   -0.50    5.12
   0  17  -6    1.20    2.84
   0 -17   6    1.09    2.17
   0  17   6    3.70    4.00
   0 -17   6   -7.45    8.49
  -1 -17  -6   -2.25    2.14
   1  17  -6   -0.15    4.43
   1  17  -6    0.63    2.95
  -1 -17   6    1.17    2.19
  -1 -17   6   13.70    8.55
   1  17   6    9.53    3.89
   2  17  -6    1.47    3.86
  -2 -17  -6   -6.10    2.13
   2  17  -6    0.49    2.78
  -2 -17  -6    2.94   14.15
  -2 -17   6  -20.32    8.72
   2  17   6    3.69    3.61
   2  17   6    5.30    3.79
  -2 -17   6    0.62    1.91
   3  17  -6   -3.09    2.95
  -3 -17  -6    5.50    2.20
   3  17  -6   -0.12    3.50
  -3 -17  -6   10.07   14.46
   3  17   6   -1.33    3.69
  -3 -17   6    8.79    8.97
  -3 -17   6    0.10    1.97
   4  17  -6   -0.12    3.15
  -4 -17  -6   -6.19   14.66
   4  17  -6   -0.93    2.81
  -4 -17  -6    0.25    2.08
   4  17   6    1.91    3.74
  -4 -17   6   -0.20    1.93
  -4 -17   6    8.51    9.76
   5  17  -6    0.23    2.86
  -5 -17  -6   -0.94   15.74
   5  17  -6   -0.72    3.16
  -5 -17   6    2.06    1.88
  -5 -17   6   13.94   10.28
   5  17   6   -0.67    3.74
   7 -18  -6   -3.41    2.46
  -7  18   6   -6.82    7.31
  -7  18   6    5.84    4.14
   6 -18  -6   -0.38    2.61
  -6  18   6    1.70    7.19
  -6  18   6   -2.27    3.95
  -5  18   6   26.32   11.65
  -5  18   6   26.23    9.59
   4 -18  -6    0.12    2.42
   4 -18  -6    1.44   11.55
  -4  18   6   -5.23    4.12
  -4  18   6   10.78    6.38
   3 -18  -6    3.51   11.86
  -3  18  -6    0.23    7.08
  -3  18  -6   -0.17    3.21
   3 -18  -6    6.34    2.49
  -3  18   6   -7.09    5.86
   3 -18   6    0.13    2.67
  -3  18   6   -1.62    3.89
  -2  18  -6   -2.13    3.34
  -2  18  -6    0.22    6.48
   2 -18  -6  -12.24   11.86
   2 -18  -6    0.12    2.40
   2 -18   6    2.70    2.59
   2 -18   6  -12.41    8.84
  -2  18   6    3.74    5.30
  -2  18   6    1.71    3.93
  -1  18  -6    0.20    6.14
  -1  18  -6    4.66    3.35
   1 -18  -6    0.49    2.37
   1 -18   6    2.68    8.84
   1 -18   6    1.49    2.51
  -1  18   6    3.34    4.78
  -1  18   6    1.84    3.94
   0  18  -6   -0.74    3.28
   0  18  -6    0.36    5.32
   0 -18  -6    0.50    2.27
   0  18   6   -8.97    4.65
   0 -18   6    0.73    2.44
   0 -18   6   -8.93    9.48
   1  18  -6   -2.14    3.20
  -1 -18  -6    0.37    2.35
  -1 -18  -6   -4.41   14.31
   1  18  -6    0.16    4.95
   1  18   6   -2.26    4.38
  -1 -18   6    7.13    9.68
  -1 -18   6   -4.12    2.33
  -2 -18  -6    2.94    2.47
   2  18  -6   -0.29    4.37
  -2 -18  -6    5.16   15.81
   2  18  -6    6.37    3.37
  -2 -18   6    1.72    2.36
   2  18   6    2.75    4.22
   2  18   6    9.50    4.01
  -2 -18   6    4.01    9.00
   3  18  -6   -0.40    3.20
  -3 -18  -6    3.46    2.33
  -3 -18  -6   12.20   16.24
   3  18  -6   -1.07    3.68
  -3 -18   6   -0.23    2.16
   3  18   6   -3.60    4.12
  -3 -18   6   -0.37    9.74
   4  18  -6    1.03    3.58
  -4 -18  -6    0.95    2.35
  -4 -18  -6    3.94   16.88
   4  18  -6   -1.04    3.12
  -4 -18   6   -2.57   10.39
  -4 -18   6    0.11    2.17
   4  18   6   -0.71    4.20
   5  18  -6    2.94    9.25
  -5 -18  -6   65.85   21.05
   5  18  -6    1.46    8.80
   5  18   6   65.67    9.66
   6 -19  -6   -2.51    2.85
  -6  19   6   -8.51    7.62
   5 -19  -6  -18.60   12.49
   5 -19  -6    0.14    2.81
  -5  19   6   -2.42    4.75
  -5  19   6   -8.05    7.24
   4 -19  -6  -14.59   13.36
   4 -19  -6   -9.05    2.81
  -4  19   6    0.21    4.67
  -4  19   6   -8.55    7.13
  -3  19  -6    3.22    3.54
   3 -19  -6    2.83    2.68
  -3  19  -6   -0.25    7.63
   3 -19  -6   -3.86   13.67
  -3  19   6  -10.73    6.39
  -3  19   6   -3.03    4.58
   3 -19   6    3.51    2.80
   2 -19  -6    4.59   13.09
   2 -19  -6    0.13    2.63
  -2  19  -6   -2.17    3.64
  -2  19  -6    0.23    6.96
   2 -19   6    3.11    2.83
   2 -19   6    6.64    9.86
  -2  19   6    3.31    6.08
  -2  19   6    2.72    4.45
   1 -19  -6   -6.16    2.72
  -1  19  -6    2.95    3.76
  -1  19  -6   -0.86    6.63
  -1  19   6   -0.19    4.28
  -1  19   6  -16.04    5.67
   1 -19   6    0.69    2.74
   1 -19   6  -23.76   10.06
   0 -19  -6   -8.11    2.78
   0  19  -6   -1.38    5.72
   0  19  -6    3.19    3.69
   0 -19   6   -2.69   10.50
   0  19   6   -0.37    5.14
   0 -19   6   -4.86    2.71
   1  19  -6   -0.35    5.30
   1  19  -6    5.10    3.61
  -1 -19  -6    3.48    2.77
  -1 -19  -6  -32.17   16.83
  -1 -19   6   -1.05    2.61
  -1 -19   6  -29.20   11.16
   1  19   6   -3.83    4.82
   1  19   6   -3.98    4.40
  -2 -19  -6   -3.94    2.71
   2  19  -6   -0.15    3.53
  -2 -19  -6  -19.56   17.35
   2  19  -6    0.32    4.60
   2  19   6   -2.59    4.17
  -2 -19   6    4.00    2.55
  -2 -19   6   -5.88   11.03
   2  19   6   -2.20    4.69
  -3 -19  -6    0.44    2.69
   3  19  -6    1.05    4.42
  -3 -19  -6   -0.22   17.87
   3  19  -6   -0.30    3.53
   3  19   6    7.98    4.38
   3  19   6    6.22    4.90
  -3 -19   6   34.34   11.14
  -3 -19   6   -2.50    2.40
  -4 -19  -6  -15.85   18.78
   4  19  -6    0.44    4.18
   4  19  -6   -0.44    3.48
   4  19   6   -7.43    4.85
  -4 -19   6   -0.25    2.32
  -5 -19  -6   -6.40   18.46
   5  19   6    1.65    4.58
  -3  20  -6   23.87    8.57
   3 -20   6    4.52    3.74
  -2  20  -6    0.20    4.15
  -2  20  -6   -5.27    7.53
   2 -20   6  -13.27   10.94
   2 -20   6   12.41    3.25
  -1  20  -6   -0.19    4.13
  -1  20  -6    0.23    6.74
   1 -20   6   12.37   10.95
   1 -20   6    2.90    3.04
   0  20  -6    0.85    6.47
   0 -20  -6   -1.67    2.93
   0  20  -6    3.18    4.03
   0 -20   6    8.42   11.27
   0 -20   6    0.15    2.93
   0  20   6   11.91    5.74
   1  20  -6    2.69    4.04
   1  20  -6   -0.20    5.67
  -1 -20   6   -8.48   12.20
  -1 -20   6    0.15    2.87
   2  20  -6    6.94    3.94
   2  20  -6   -1.07    5.33
  -2 -20   6   -5.79   12.00
  -2 -20   6   -0.86    2.69
   3  20  -6   -3.15    3.92
   3  20  -6    0.84    4.63
  -3 -20   6   -1.37   12.07
  -3 -20   6   -1.84    2.61
   4  20  -6    4.51    4.06
   0   0  -7    0.21    0.77
   0   0   7   -0.09    0.33
   0   0   7    0.08    0.32
   1   0  -7    2.50    1.25
   0   1  -7    2.74    1.33
  -1   0   7    4.51    0.99
  -1   0   7    4.09    0.95
   0   1   7    1.53    0.97
   0  -1   7    2.29    0.98
   0  -1   7    4.49    1.00
   1   1  -7   -0.19    0.75
   1  -1  -7    0.06    0.74
   1  -1  -7    0.11    0.72
  -1  -1   7   -0.19    0.29
  -1  -1   7    0.19    0.32
  -1   1   7    0.42    0.26
  -1   1   7    0.02    0.34
   1  -2  -7    2.89    1.36
   1  -2  -7    2.96    1.62
   2   1  -7    3.26    1.32
   1  -2  -7    4.95    1.06
  -2  -1   7    2.73    1.01
  -2  -1   7    2.91    1.06
  -1   2   7    4.10    1.08
  -1   2   7    5.44    1.18
  -1   2   7    3.82    1.04
   2   0  -7   -0.02    0.67
   0   2  -7   -0.17    0.98
   0  -2  -7    0.17    0.91
   0  -2   7   -0.18    0.37
   0   2   7    0.41    0.31
  -2   0   7   -0.03    0.23
  -2   0   7   -0.14    0.28
   2  -1  -7    2.02    1.35
   2  -1  -7    3.52    0.91
   2  -1  -7    3.21    1.18
   1   2  -7    2.94    1.34
  -2   1   7    3.63    0.94
  -1  -2   7    4.51    0.98
  -2   1   7    1.71    0.89
  -2   1   7    3.73    0.99
   2   2  -7   -0.60    0.86
   2  -2  -7    0.03    0.22
   2  -2  -7   -0.32    0.65
   2  -2  -7    0.49    1.30
  -2   2   7   -0.19    0.41
  -2  -2   7    0.02    0.34
  -2   2   7   -0.19    0.29
  -2   2   7   -0.13    0.18
   2  -3  -7   56.17   14.57
   2  -3  -7   46.38   16.45
   2  -3  -7   58.74   14.19
   2  -3  -7   53.57   15.98
  -2   3   7   47.62   15.33
  -2   3   7   50.56   14.86
  -3  -2   7   52.99   14.62
  -2   3   7   53.17   14.35
   1  -3  -7    4.90    1.61
   3   1  -7    5.57    1.51
   1  -3  -7    4.08    1.96
   1  -3  -7    4.34    2.45
  -1   3   7    7.35    1.72
  -3  -1   7    5.78    1.59
  -3  -1   7    4.78    1.53
  -1   3   7    7.32    1.65
  -1   3   7    5.49    1.57
   0   3  -7   25.43    8.32
   0  -3  -7   25.51    8.61
   0  -3  -7   28.91    7.53
   0   3   7   23.63    8.40
   0  -3   7   31.01    7.48
   0  -3   7   25.63    7.37
  -3   0   7   30.66    7.43
  -3   0   7   23.37    7.22
   1   3  -7    3.24    2.07
   3  -1  -7    5.78    1.66
   3  -1  -7    5.22    1.58
  -1  -3   7    6.29    1.65
  -1  -3   7    6.62    1.70
  -1  -3   7    7.73    1.66
  -3   1   7    6.11    1.60
  -3   1   7    5.01    1.66
   2   3  -7   48.42   15.32
   3  -2  -7   44.65   17.19
   3  -2  -7   54.83   14.48
   3  -2  -7   57.49   14.98
   2   3  -7   59.23   15.44
   2   3  -7   44.13   16.23
  -2  -3   7   54.89   14.76
  -3   2   7   57.93   15.09
  -3   2   7   63.04   14.66
  -3   2   7   63.32   15.45
  -2  -3   7   44.76   18.10
   3  -3  -7    0.83    1.85
   3   3  -7    0.38    0.46
   3  -3  -7    0.05    0.39
   3  -3  -7   -0.03    0.19
  -3   3   7   -0.01    0.22
  -3  -3   7    0.22    1.21
  -3  -3   7    0.09    0.24
  -3   3   7   -0.08    0.56
  -3   3   7   -0.12    0.32
   3  -4  -7   32.39    7.85
   3  -4  -7   23.20    6.87
   4   3  -7   20.82    6.60
   3  -4  -7   25.60    6.78
  -4  -3   7   20.06    8.30
  -3   4   7   27.35    6.93
  -3   4   7   25.70    6.98
  -4  -3   7   23.70    6.91
  -4  -3   7   23.69    6.67
  -3   4   7   25.22    6.97
   2  -4  -7    0.23    0.43
   2  -4  -7    0.78    0.82
   2  -4  -7   -0.22    2.26
   2  -4  -7    0.55    0.23
  -2   4   7    1.10    0.41
  -2   4   7    1.05    0.83
  -2   4   7    0.65    0.25
   1  -4  -7    2.34    2.46
   1  -4  -7    3.57    1.12
  -1   4   7    3.82    1.07
  -1   4   7    4.41    1.27
   0   4  -7   -0.62    1.44
   0  -4  -7    1.02    1.96
   0  -4  -7   -0.20    0.41
   0  -4   7   -0.34    0.58
  -4   0   7    0.33    0.36
   0   4   7   -0.09    0.67
   4  -1  -7    4.96    1.01
   1   4  -7    3.89    1.18
   1   4  -7    3.07    1.70
   1   4   7    1.81    1.43
  -4   1   7    3.22    1.11
  -1  -4   7   -0.03    1.17
  -4   1   7    4.81    1.04
  -1  -4   7    3.48    2.19
  -1  -4   7    4.24    1.09
   4  -2  -7    0.41    0.28
   2   4  -7    0.85    0.69
   2   4  -7    0.44    0.46
  -4   2   7    0.25    0.31
  -4   2   7    0.60    0.41
  -2  -4   7    0.67    0.34
  -2  -4   7    0.52    1.61
   3   4  -7   27.93    7.34
   4  -3  -7   21.10    6.56
   3   4  -7   26.59    6.37
   4  -3  -7   20.53    6.73
   3   4  -7   23.12    6.98
  -3  -4   7   24.79    6.70
  -3  -4   7   28.54    6.65
  -4   3   7   25.90    6.86
  -3  -4   7   15.81    7.68
  -4   3   7   28.08    6.94
  -3  -4   7   22.54    6.42
   4  -4  -7   -0.16    0.55
   4   4  -7   -0.35    0.32
  -4  -4   7    0.23    1.69
  -4  -4   7   -0.27    0.36
  -4  -4   7    0.24    0.52
  -4   4   7    0.03    0.36
  -4   4   7    1.92    0.79
   4  -5  -7   13.60    6.67
  -4   5   7   22.20    5.63
  -5  -4   7   19.26    5.29
  -5  -4   7   23.64    6.78
  -3   5   7   18.23    4.74
  -5  -3   7   16.32    4.61
   2  -5  -7   29.29   10.96
   5   2  -7   40.72    9.76
   2  -5  -7   40.01    9.98
  -2   5   7   37.68   10.08
   5   1  -7    0.84    0.34
  -5  -1   7    1.17    0.49
  -5  -1   7    0.71    0.43
  -1   5   7    0.51    0.25
   5   0  -7   84.18   22.00
   0   5  -7   86.57   23.41
   0  -5   7   75.17   22.62
   1   5  -7    0.99    0.66
  -1  -5  -7    1.26    2.26
  -1  -5   7    0.99    0.53
  -1  -5   7    0.73    2.22
   2   5  -7   37.71    9.83
   2   5  -7   30.31    9.81
  -2  -5   7   31.11   11.15
  -2  -5   7   35.03    9.33
  -2  -5   7   38.91    9.46
   3   5  -7   16.59    4.96
   3   5  -7   17.80    4.24
   3   5  -7   16.32    4.55
  -3  -5   7   16.72    4.27
  -3  -5   7   12.79    4.44
  -3  -5   7   14.23    4.41
  -3  -5   7   16.34    5.30
   4   5  -7   17.34    5.56
  -4  -5   7   18.51    4.90
  -4  -5   7   17.57    6.38
  -4  -5   7   17.20    5.12
  -4  -5   7   19.04    5.15
   5   5  -7    0.31    0.40
   5  -5  -7   -0.33    0.70
  -5  -5   7   -1.09    2.27
  -5  -5   7   -0.10    0.60
  -5  -5   7   -0.23    0.45
  -5   5   7    1.17    1.00
   5  -6  -7   -7.28    3.65
   5  -6  -7    1.76    0.88
   6   5  -7    1.81    0.65
  -6  -5   7    2.44    0.81
  -5   6   7    2.67    1.27
  -6  -5   7    1.29    0.71
   4  -6  -7   -1.76    4.99
   4  -6  -7    8.30    3.01
   6   4  -7   13.27    2.87
  -6  -4   7   11.79    2.98
  -4   6   7   11.27    3.17
  -4   6   7   12.96    3.13
  -6  -4   7   10.82    2.93
   3  -6  -7   22.51    5.66
   3  -6  -7   15.52    6.00
   3  -6  -7   26.74    6.75
  -3   6   7   22.05    5.74
  -3   6   7   17.40    5.74
   6   2  -7   19.13    5.01
   2  -6  -7   15.14    6.45
   2  -6  -7   17.39    5.11
  -6  -2   7   20.99    5.13
  -2   6   7   17.28    5.24
  -6  -2   7   17.67    5.15
  -2   6   7   21.29    5.54
   1  -6  -7    5.29    3.45
   6   1  -7    4.86    1.36
   1  -6  -7    4.07    1.42
   1  -6   7    4.28    1.57
  -1   6   7    5.46    1.70
   0  -6  -7   -1.25    3.22
   0  -6  -7   -0.43    0.52
   0   6   7    0.44    0.86
   0  -6   7   -0.24    0.68
  -1  -6  -7    4.69    1.66
  -1  -6  -7    7.49    3.37
   1   6  -7    8.22    2.27
  -1  -6   7    5.12    1.60
  -1  -6   7    5.86    1.63
  -1  -6   7    5.55    1.73
   1   6   7    4.68    1.91
   2   6  -7   16.34    5.43
   2   6  -7   19.05    5.91
  -2  -6  -7   24.93    6.54
   2   6   7    9.04    5.90
  -2  -6   7   19.33    5.07
  -2  -6   7   19.74    5.15
   3   6  -7   20.92    5.28
   3   6  -7   22.24    4.94
   3   6  -7   16.85    5.82
  -3  -6   7   12.92    5.20
  -3  -6   7   16.26    5.12
  -3  -6   7   19.73    4.97
   4   6  -7   11.81    3.12
   4   6  -7   10.25    2.71
  -4  -6   7    7.98    2.89
  -4  -6   7   11.64    2.88
  -4  -6   7    8.55    2.73
   5   6  -7    1.40    0.67
  -5  -6   7    2.47    0.86
  -5  -6   7    2.08    0.72
   6   6  -7   -0.26    0.44
   6  -6  -7   -0.86    0.85
  -6  -6   7    0.37    0.53
  -6  -6   7    0.07    0.66
   7   6  -7    2.64    0.85
   6  -7  -7    1.17    1.14
  -7  -6   7    2.79    0.98
   5  -7  -7    0.04    0.85
   7   5  -7   -0.10    0.46
   5  -7  -7    0.06    3.81
  -7  -5   7    0.25    0.64
  -5   7   7    0.07    1.27
   7   4  -7    9.98    3.04
   4  -7  -7    8.88    3.15
   4  -7  -7   16.66    4.91
  -7  -4   7   11.58    3.11
  -4   7   7   11.99    3.24
  -4   7   7   11.21    3.29
   3  -7  -7   10.21    2.79
  -3   7   7   11.29    3.39
  -3   7   7    9.45    2.91
   2  -7  -7   20.83    5.99
  -2   7   7   19.21    6.47
  -2   7   7   25.34    6.13
   1  -7  -7    0.19    3.79
   1  -7  -7    0.23    0.63
  -1   7  -7   -0.05    0.90
   1  -7   7    0.24    0.83
  -1   7   7    0.76    1.15
   1  -7   7   -0.27    0.85
   0  -7  -7    7.07    3.80
   0  -7  -7   -0.24    0.65
   0   7  -7    0.78    1.95
   0   7  -7    0.75    0.89
   0   7   7    0.41    1.04
   0  -7   7    0.44    0.70
   0  -7   7    0.47    0.79
   0  -7   7   -2.14    3.13
   0  -7   7    0.75    0.76
  -1  -7  -7    0.05    3.57
   1   7  -7   -0.26    0.86
   1   7  -7   -0.36    1.78
  -1  -7  -7   -0.59    0.71
  -1  -7   7   -0.46    0.81
   1   7   7   -0.28    1.03
  -1  -7   7    1.33    0.58
  -1  -7   7   -0.13    0.65
  -2  -7  -7   33.07    7.43
   2   7  -7   10.42    6.64
   2   7  -7   17.86    5.94
  -2  -7   7   21.56    5.63
   2   7   7   19.80    6.34
  -2  -7   7   22.19    5.88
   3   7  -7   -0.46    3.46
   3   7  -7   11.49    2.37
  -3  -7   7   10.37    2.38
  -3  -7   7    7.24    2.54
   4   7  -7   13.15    2.95
   4   7  -7    9.39    2.63
  -4  -7   7    6.71    2.63
  -4  -7   7   10.65    2.82
  -4  -7   7    9.33    4.43
   5   7  -7    1.33    1.12
   5   7  -7    0.20    0.44
  -5  -7   7   -1.76    3.36
  -5  -7   7    0.18    0.74
  -5  -7   7    0.16    0.55
   6   7  -7    2.43    0.84
  -6  -7   7    2.69    0.90
  -6  -7   7    2.49    3.54
  -6  -7   7    1.88    1.03
   7   7  -7   -0.27    0.65
  -7  -7   7    0.77    3.21
  -7  -7   7   -0.29    0.79
   7  -8  -7    7.88    2.54
   6  -8  -7   -0.17    1.06
  -6   8   7    0.70    1.47
   5  -8  -7    0.40    0.99
   5  -8  -7    2.01    4.20
  -5   8   7   -0.37    1.39
   4  -8  -7    5.37    4.12
   4  -8  -7    2.97    1.38
  -4   8   7    3.81    1.63
   3  -8  -7    0.40    3.74
   3  -8  -7   -0.33    0.82
  -3   8   7   -0.59    2.08
  -3   8   7    0.21    1.08
   2  -8  -7   11.14    2.46
   2  -8  -7    6.73    4.88
  -2   8   7    8.37    2.59
   2  -8   7    8.89    2.55
  -2   8   7    4.43    2.98
  -1   8  -7    3.04    1.41
   1  -8  -7    3.42    1.16
   1  -8   7    4.35    1.31
  -1   8   7    3.11    1.67
   1  -8   7    2.12    1.30
   1  -8   7    1.58    3.77
   0  -8  -7    0.08    0.73
   0   8  -7    0.37    2.17
   0   8  -7    0.16    1.02
   0  -8  -7    6.92    4.49
   0  -8   7    1.27    3.49
   0   8   7    0.34    1.22
   0  -8   7    0.61    0.82
   0  -8   7    0.08    0.74
   0  -8   7   -0.09    0.91
   1   8  -7    3.36    2.00
  -1  -8  -7    4.07    1.14
   1   8  -7    1.51    1.26
  -1  -8  -7    4.80    4.45
   1   8  -7    1.97    2.28
  -1  -8   7    2.27    0.97
   1   8   7    2.46    1.45
  -1  -8   7    2.66    1.22
  -1  -8   7    3.83    1.10
  -2  -8  -7    5.78    2.13
  -2  -8  -7    6.00    4.78
   2   8  -7    7.42    2.51
   2   8  -7    7.89    2.24
   2   8  -7    5.18    2.95
   2   8   7    7.06    2.52
  -2  -8   7    6.02    1.98
  -2  -8   7    9.36    2.19
  -2  -8   7    0.65    3.81
  -2  -8   7    9.55    2.06
   3   8  -7    1.02    1.90
   3   8  -7    0.47    0.43
  -3  -8  -7    0.12    3.52
   3   8  -7   -0.39    0.88
   3   8  -7   -0.08    1.15
   3   8   7   -0.84    1.44
  -3  -8   7   -0.18    0.44
  -3  -8   7    0.77    3.27
  -3  -8   7    0.16    0.64
  -3  -8   7    0.53    0.77
   4   8  -7    3.69    2.21
   4   8  -7    4.09    1.48
   4   8  -7    4.17    1.02
  -4  -8   7    2.19    1.02
  -4  -8   7    2.06    3.91
  -4  -8   7    3.21    1.26
  -4  -8   7    3.46    1.14
   5   8  -7    0.26    0.51
   5   8  -7    0.05    1.26
  -5  -8   7   -0.43    0.80
  -5  -8   7   -2.92    4.00
  -5  -8   7   -0.30    0.56
  -5  -8   7    0.17    0.73
   6   8  -7    0.34    0.56
  -6  -8   7    0.34    0.87
  -6  -8   7    0.94    4.06
  -6  -8   7    0.40    0.66
   7   8  -7   11.52    2.64
  -7  -8   7    7.23    2.75
  -7  -8   7    9.08    5.06
  -8  -8   7    0.51    0.93
   7  -9  -7    1.38    1.35
   6  -9  -7    1.00    5.11
   6  -9  -7    6.01    1.82
  -6   9   7    5.61    2.30
   5  -9  -7    2.26    4.97
   5  -9  -7    4.02    1.51
  -5   9   7    3.91    1.96
   4  -9  -7   -6.29    4.44
   4  -9  -7   -0.10    1.02
  -4   9   7    0.48    1.38
   3  -9  -7   -4.36    4.37
   3  -9  -7   -0.32    0.91
  -3   9   7    0.75    2.35
  -3   9   7    0.18    1.28
   2  -9  -7    0.35    0.84
   2  -9  -7   -3.10    4.50
  -2   9   7   -0.50    1.22
  -2   9   7   -0.93    1.96
   2  -9   7   -0.52    1.13
  -1   9  -7    1.14    1.24
   1  -9  -7    2.78    5.06
   1  -9  -7    0.17    0.81
   1  -9   7   -3.19    4.05
   1  -9   7    1.07    1.05
  -1   9   7   -0.36    1.62
   1  -9   7    0.51    0.97
   0  -9  -7    0.35    5.01
   0   9  -7   -1.04    2.40
   0  -9  -7   -0.35    0.81
   0   9  -7    0.06    1.18
   0   9   7   -0.11    1.44
   0  -9   7    3.22    3.75
   0  -9   7    0.23    0.72
   0  -9   7    0.49    0.92
   0  -9   7    0.50    0.96
  -1  -9  -7    0.71    0.87
  -1  -9  -7    0.73    5.27
   1   9  -7    1.70    2.22
   1   9  -7    3.59    2.10
   1   9  -7    0.30    1.09
  -1  -9   7   -0.83    3.34
  -1  -9   7    0.96    0.97
   1   9   7    0.78    1.32
  -1  -9   7    1.78    0.89
  -1  -9   7    0.38    0.69
  -2  -9  -7   -5.21    4.92
   2   9  -7    0.31    0.47
  -2  -9  -7   -0.21    0.90
   2   9  -7    0.61    1.58
   2   9  -7   -0.40    1.01
   2   9  -7    1.36    2.08
  -2  -9   7   -0.52    0.95
  -2  -9   7    0.33    0.51
   2   9   7   -0.90    1.48
  -2  -9   7    0.11    0.73
  -2  -9   7   -1.79    3.42
   3   9  -7    0.56    1.32
   3   9  -7   -2.64    2.43
   3   9  -7   -0.12    0.98
  -3  -9  -7    0.29    4.51
  -3  -9  -7    1.09    0.98
   3   9  -7    0.94    0.50
  -3  -9   7    0.52    0.52
  -3  -9   7    0.17    0.93
  -3  -9   7    0.64    3.79
  -3  -9   7    0.27    0.74
   3   9   7    0.32    1.57
   4   9  -7    0.52    0.52
   4   9  -7   -0.73    1.25
   4   9  -7    0.39    2.24
  -4  -9   7    0.30    0.89
  -4  -9   7   -1.31    4.22
  -4  -9   7   -0.03    0.55
  -4  -9   7   -0.04    0.75
   5   9  -7    3.56    1.35
   5   9  -7    5.19    1.89
  -5  -9   7    4.02    4.79
  -5  -9   7    6.17    1.57
  -5  -9   7    5.79    1.51
  -5  -9   7    3.09    1.34
   6   9  -7    7.50    1.55
  -6  -9   7    3.22    1.55
  -6  -9   7    9.00    5.13
  -6  -9   7    3.88    1.70
   7   9  -7    1.73    0.90
  -7  -9   7    0.18    4.94
  -7  -9   7    2.54    1.15
  -8  -9   7   15.45    4.45
   7 -10  -7    4.41    1.88
   6 -10  -7    4.27    1.58
  -6  10   7    1.81    2.15
   5 -10  -7   -0.30    1.19
  -5  10   7    1.13    1.86
   4 -10  -7    3.78    1.58
   4 -10  -7   -0.07    5.02
  -4  10   7    4.96    2.01
  -4  10   7    3.62    3.36
   3 -10  -7   -0.52    1.03
   3 -10  -7    3.47    4.80
  -3  10   7    1.80    2.67
  -3  10   7    0.76    1.53
   2 -10  -7   12.83    5.41
  -2  10  -7    1.57    1.58
   2 -10  -7    1.98    1.27
   2 -10   7    2.04    1.41
   2 -10   7    3.19    1.39
  -2  10   7    3.26    2.41
  -2  10   7    2.51    1.60
   1 -10  -7    6.43    6.32
   1 -10  -7    7.41    2.50
  -1  10  -7    9.10    2.80
   1 -10   7    7.97    2.49
   1 -10   7    9.31    2.60
  -1  10   7   11.41    3.08
   1 -10   7    6.48    4.97
   0  10  -7    0.75    2.51
   0  10  -7    0.06    1.31
   0 -10  -7   -1.04    1.00
   0 -10  -7    0.08    5.99
   0  10   7    1.07    1.61
   0 -10   7   -0.98    1.00
   0 -10   7   -0.64    0.75
   0 -10   7    1.87    4.29
   0 -10   7   -0.43    1.07
  -1 -10  -7    7.60    2.13
   1  10  -7    8.25    2.36
   1  10  -7    6.93    3.13
   1  10  -7    6.54    3.45
  -1 -10  -7    1.00    6.61
  -1 -10   7    5.07    1.99
   1  10   7   13.29    2.55
  -1 -10   7    5.56    2.13
  -1 -10   7    6.06    2.29
  -1 -10   7    3.88    4.45
  -2 -10  -7    2.19    1.15
   2  10  -7    2.57    1.95
   2  10  -7    2.26    1.29
   2  10  -7    1.75    0.74
  -2 -10  -7   -3.51    6.13
   2  10  -7    1.45    2.47
  -2 -10   7    2.43    1.16
  -2 -10   7    2.44    1.00
  -2 -10   7    1.64    0.77
  -2 -10   7   -0.45    3.86
   2  10   7    1.39    1.71
   3  10  -7    2.52    2.37
   3  10  -7    0.24    1.12
  -3 -10  -7   -0.76    1.05
   3  10  -7    0.66    0.52
   3  10  -7   -0.59    1.53
  -3 -10   7   -0.04    0.83
  -3 -10   7   -0.83    4.61
  -3 -10   7    0.88    0.99
   3  10   7   -2.14    1.79
  -3 -10   7    0.34    0.53
   4  10  -7    7.02    2.11
   4  10  -7    6.38    3.00
   4  10  -7    6.02    1.61
  -4 -10   7    2.74    5.21
  -4 -10   7    3.77    1.60
  -4 -10   7    5.99    1.94
  -4 -10   7    6.74    1.75
   5  10  -7    0.98    2.53
   5  10  -7    1.55    1.48
   5  10  -7    1.29    0.64
  -5 -10   7   -3.76    5.26
  -5 -10   7   -0.76    1.04
  -5 -10   7    0.36    0.96
  -5 -10   7    0.04    0.67
   6  10  -7    0.95    1.82
   6  10  -7    4.26    1.07
  -6 -10   7    2.93    1.33
  -6 -10   7   -0.97    5.58
  -6 -10   7    2.61    1.12
   7  10  -7    5.44    1.73
  -7 -10   7    6.29    1.89
  -7 -10   7    1.68    5.99
  -8 -10   7    0.10    1.09
   7 -11  -7    1.42    1.52
   6 -11  -7    0.14    1.42
   6 -11  -7    4.17    5.78
  -6  11   7    1.51    2.03
   5 -11  -7    8.20    2.72
   5 -11  -7   16.26    6.52
  -5  11   7    6.87    3.10
   4 -11  -7   -0.06    1.29
   4 -11  -7   -7.36    5.55
  -4  11   7    0.43    1.79
  -4  11   7   -0.47    3.54
  -3  11   7   -1.16    3.41
  -3  11   7    2.18    1.91
  -2  11  -7   11.46    2.60
   2 -11  -7    6.63    2.31
  -2  11   7   -3.91    4.08
  -2  11   7    3.38    2.96
   2 -11   7    6.68    2.41
  -1  11  -7    1.60    1.54
   1 -11  -7   -3.26    1.26
   1 -11  -7  -16.04    6.62
   1 -11   7   -0.07    1.28
  -1  11   7   -0.22    1.77
   1 -11   7    1.21    4.76
   0 -11  -7   22.82    5.06
   0  11  -7   18.89    5.42
   0  11  -7   13.65    6.63
   0  11  -7   14.79    6.21
   0 -11  -7   10.78    9.11
   0 -11   7   15.50    5.12
   0  11   7   27.61    5.49
   0 -11   7    8.78    7.41
  -1 -11  -7    1.97    7.03
  -1 -11  -7   -1.49    1.13
   1  11  -7    0.36    2.83
   1  11  -7    0.44    1.40
   1  11  -7    0.09    2.65
  -1 -11   7    0.74    4.41
  -1 -11   7   -0.11    1.14
  -1 -11   7   -0.25    0.62
  -1 -11   7   -0.11    1.07
   2  11  -7   10.11    2.44
  -2 -11  -7    9.61    2.69
   2  11  -7   10.00    3.33
   2  11  -7    9.76    2.87
   2  11  -7    5.74    3.79
  -2 -11   7   -0.50    5.29
   2  11   7   12.10    3.13
  -2 -11   7   11.12    2.61
  -2 -11   7    7.50    2.42
  -2 -11   7    6.71    2.78
   3  11  -7    8.05    2.95
  -3 -11  -7    5.28    1.53
   3  11  -7    2.65    1.02
   3  11  -7    3.30    1.97
   3  11  -7    3.47    1.61
  -3 -11   7    2.00    1.03
  -3 -11   7   12.00    5.31
   3  11   7   -0.34    2.23
  -3 -11   7    2.24    1.48
  -3 -11   7    3.47    1.26
   4  11  -7   -0.11    1.56
   4  11  -7    1.22    2.69
   4  11  -7    0.05    0.63
   4  11   7    2.88    2.00
  -4 -11   7   -0.57    1.19
  -4 -11   7    0.21    0.63
  -4 -11   7   -0.10    1.00
  -4 -11   7   -1.91    5.27
   5  11  -7   11.17    2.53
   5  11  -7    6.18    1.94
   5  11  -7    5.79    3.50
  -5 -11   7    6.71    2.30
  -5 -11   7    4.01    1.93
  -5 -11   7    7.85    2.09
  -5 -11   7    6.83    6.69
   6  11  -7   -0.15    1.86
   6  11  -7   10.27    2.98
   6  11  -7    2.21    0.92
  -6 -11   7    0.95    1.34
  -6 -11   7    2.51    6.21
  -6 -11   7    0.91    0.97
  -6 -11   7    4.05    1.30
   7  11  -7    1.42    0.96
  -7 -11   7    1.47    1.24
  -8 -11   7    2.91    1.47
   5 -12  -7    1.66    1.55
  -5  12   7    5.08    4.41
   4 -12  -7   23.39    6.09
   4 -12  -7    2.63    1.92
  -4  12   7    8.29    4.03
  -4  12   7    1.71    2.44
   3 -12  -7   -7.17    7.13
   3 -12  -7   13.06    3.58
  -3  12   7   14.00    3.96
   3 -12   7   14.26    3.70
  -3  12   7   19.75    5.14
   2 -12  -7   -1.22    1.41
  -2  12  -7    1.26    1.77
   2 -12  -7    0.25    6.89
  -2  12   7   -1.03    3.04
   2 -12   7    0.08    1.49
  -2  12   7    0.08    2.01
   2 -12   7    3.05    5.35
   1 -12  -7   37.12    8.99
  -1  12  -7   28.30    9.54
   1 -12  -7   46.15   13.13
  -1  12   7   39.92    9.73
   1 -12   7   32.41    9.07
   1 -12   7   17.17   11.38
  -1  12   7   29.52    9.43
   0  12  -7    1.00    3.54
   0  12  -7   -2.27    1.80
   0 -12  -7    2.21    1.42
   0 -12  -7   17.23    8.58
   0 -12   7    0.87    1.48
   0  12   7    7.24    2.51
   0 -12   7    7.65    5.37
   1  12  -7   28.34    9.61
  -1 -12  -7   45.57   13.57
   1  12  -7   31.65    9.11
  -1 -12   7   26.24    8.67
   1  12   7   48.24    9.09
  -1 -12   7   11.93   10.85
   2  12  -7   -0.27    1.56
  -2 -12  -7    2.13    1.26
   2  12  -7   -1.75    2.29
  -2 -12   7    0.87    5.07
   2  12   7    1.22    2.12
  -2 -12   7   -0.29    1.15
  -3 -12  -7    9.17    2.92
   3  12  -7   10.04    3.42
   3  12  -7   10.46    3.24
  -3 -12   7    8.97    2.84
  -3 -12   7   -0.19    6.44
   3  12   7   11.86    3.49
   4  12  -7   -0.45    1.77
   4  12  -7    0.19    1.55
  -4 -12   7    0.11    1.15
  -4 -12   7   -2.67    5.93
   5  12  -7    3.51    1.92
   5  12  -7    2.15    0.98
   5  12  -7    2.37    3.02
  -5 -12   7    2.46    1.30
  -5 -12   7    0.15    6.55
   6  12  -7   -1.33    2.03
   6  12  -7   -0.80    0.81
   6  12  -7   -0.29    3.15
  -6 -12   7   -0.79    6.84
  -6 -12   7    0.48    1.15
  -6 -12   7   -0.65    1.35
  -7 -12   7    1.05    1.35
  -8 -12   7   -0.30    1.33
   7 -13  -7    3.58    1.82
  -7  13   7   -0.84    2.67
   6 -13  -7   -2.05    1.68
  -6  13   7   -1.65    2.58
   5 -13  -7   -7.48    7.14
   5 -13  -7    5.68    1.93
  -5  13   7   22.22    4.87
  -5  13   7    0.58    2.67
   4 -13  -7   19.07    7.14
  -4  13   7   -0.21    2.55
  -1  13  -7   -1.34    1.95
   1 -13   7   -1.12    1.64
   1 -13   7   -1.89    5.63
   0  13  -7    4.17    3.51
   0  13  -7   17.55    4.94
   0 -13   7   12.50    3.19
   0 -13   7   11.03    6.53
   1  13  -7   -0.48    1.93
   1  13  -7   -1.68    3.24
  -1 -13   7   -1.68    5.52
  -1 -13   7   -0.34    1.34
   2  13  -7    0.08    2.18
   2  13  -7    7.05    2.99
  -2 -13   7    4.29    5.81
  -2 -13   7    6.74    1.87
   3  13  -7   -0.29    1.74
   3  13  -7    3.44    2.30
  -3 -13   7    1.08    1.27
  -3 -13   7   -7.05    6.02
  -4 -13  -7   -0.09    1.51
   4  13  -7    2.58    1.78
   4  13  -7    0.65    2.00
  -4 -13  -7    0.12    8.88
  -4 -13   7    0.62    6.46
   4  13   7    2.59    2.46
  -4 -13   7    0.06    1.21
   5  13  -7   -0.08    2.01
  -5 -13   7   -1.11    1.29
  -5 -13   7  -11.62    7.36
   6  13  -7   -0.09    2.28
  -6 -13   7   -0.82    1.39
   7 -14  -7    0.75    1.93
  -7  14   7    4.53    2.77
   6 -14  -7    8.72    2.43
   6 -14  -7    5.39    7.52
  -6  14   7    0.36    5.66
  -6  14   7    2.09    3.22
   5 -14  -7   -4.06    7.71
   5 -14  -7   -0.51    1.63
  -5  14   7    3.85    2.72
  -5  14   7    6.17    5.01
   4 -14  -7    6.44    2.12
   4 -14  -7    2.36    7.93
  -4  14   7    0.59    3.03
  -4  14   7    8.61    4.67
   3 -14  -7   -0.33    1.83
  -3  14   7   -0.11    2.60
  -3  14   7    5.03    4.13
   3 -14   7   -5.90    2.33
   2 -14   7   65.21   17.93
   1 -14  -7   -9.50    2.25
  -1  14   7    0.57    3.44
   0  14   7    1.46    2.82
   0  14   7   -3.20    3.07
  -1 -14  -7   -2.87    1.75
   1  14   7    0.99    2.63
  -2 -14  -7    2.78    2.01
   2  14  -7    0.30    3.46
   2  14   7    4.56    3.06
  -2 -14   7   -0.07    2.03
   3  14  -7    0.09    2.62
  -3 -14  -7    0.62    1.57
  -3 -14   7   -1.21    1.37
   3  14   7   -6.01    2.83
   4  14  -7   -0.24    2.27
  -4 -14  -7    3.47   10.44
  -4 -14  -7    2.39    1.71
   4  14   7   -5.63    2.75
  -4 -14   7    1.35    1.44
   7 -15  -7   -2.35    2.04
  -7  15   7   10.33    3.29
  -7  15   7    6.23    6.31
   6 -15  -7   -7.46    8.26
   6 -15  -7    5.97    2.36
  -6  15   7   10.98    6.13
  -6  15   7    5.50    3.45
   5 -15  -7   -4.25    8.36
   5 -15  -7    3.06    1.90
  -5  15   7    1.70    3.04
  -5  15   7    8.94    5.46
   4 -15  -7   -1.72    8.40
   4 -15  -7    1.00    1.80
  -4  15   7    4.21    5.06
  -4  15   7    2.80    2.97
   3 -15  -7   12.53    8.52
   3 -15  -7    2.78    1.87
   3 -15   7   -0.11    2.17
  -3  15   7   -3.40    4.52
  -3  15   7    4.51    2.94
  -2  15  -7    1.75    2.36
   2 -15  -7   -6.45    9.11
   2 -15  -7    0.09    1.81
  -2  15   7   -2.23    3.98
  -2  15   7    0.85    2.88
   2 -15   7   -2.66    6.64
   2 -15   7    0.10    1.95
   1 -15  -7    8.72    9.97
  -1  15  -7    0.92    2.42
   1 -15  -7   -1.60    1.89
  -1  15  -7    0.81    5.03
  -1  15   7   -6.91    3.23
   1 -15   7    0.56    1.82
  -1  15   7   -3.06    3.65
   1 -15   7   -4.14    6.59
   0  15  -7    1.51    2.39
   0 -15  -7    0.14   10.81
   0 -15  -7    0.09    1.81
   0  15  -7    0.15    4.39
   0 -15   7   -2.06    1.86
   0  15   7    3.50    3.20
   0 -15   7   -3.63    6.84
   0  15   7   -1.61    2.97
  -1 -15  -7    0.18    1.74
   1  15  -7    0.63    4.02
   1  15  -7    0.60    2.32
   1  15   7   -1.68    2.89
  -1 -15   7   -0.60    1.67
  -1 -15   7    4.45    6.87
  -2 -15  -7    1.31    1.66
   2  15  -7   -0.11    3.22
   2  15  -7    0.86    2.11
  -2 -15   7    3.55    6.76
  -2 -15   7    0.08    1.61
   2  15   7   -2.51    2.88
   3  15  -7   -0.39    2.80
  -3 -15  -7    2.16    1.74
   3  15  -7    0.09    2.22
   3  15   7    1.11    2.89
  -3 -15   7   -8.29    7.21
  -3 -15   7    1.66    1.60
  -4 -15  -7   -0.73    1.83
   4  15  -7    0.54    2.53
   4  15  -7   -1.27    2.16
  -4 -15  -7   -4.96   11.84
  -4 -15   7   -0.63    1.51
   4  15   7    1.06    3.00
  -4 -15   7    2.42    7.65
   5  15  -7    1.11    2.51
   5  15  -7   -0.61    2.17
  -5 -15   7   -0.50    1.47
   7 -16  -7    0.44    2.18
  -7  16   7    0.54    3.29
  -7  16   7    7.60    6.58
   6 -16  -7    1.57    2.17
   6 -16  -7   -1.06    8.95
  -6  16   7    5.89    3.55
  -6  16   7    3.93    6.58
   5 -16  -7  -13.86    9.22
   5 -16  -7   -5.92    2.09
  -5  16   7    1.92    3.25
  -5  16   7   -4.34    5.79
   4 -16  -7    3.41   10.10
   4 -16  -7    0.10    2.65
  -4  16   7   21.35    6.21
  -4  16   7    4.63    3.97
   3 -16  -7    0.62    9.45
   3 -16  -7   -6.17    1.99
  -3  16   7    1.40    3.28
   3 -16   7    1.41    2.36
  -3  16   7    4.52    4.91
   2 -16  -7    9.14   10.05
   2 -16  -7   -1.48    1.93
  -2  16  -7    1.09    2.72
  -2  16  -7   -2.07    5.92
  -2  16   7    0.15    4.34
   2 -16   7   -2.21    7.01
   2 -16   7   -6.84    2.32
  -2  16   7   -0.96    3.24
  -1  16  -7    3.20    2.69
   1 -16  -7    0.27   10.58
  -1  16  -7    0.17    5.35
   1 -16  -7   -4.07    2.00
  -1  16   7   -3.74    3.19
  -1  16   7    0.70    3.92
   1 -16   7    0.10    7.11
   1 -16   7    0.10    2.07
   0  16  -7    0.48    2.68
   0 -16  -7    0.10    1.97
   0  16  -7   -0.16    4.90
   0 -16  -7    7.16   11.78
   0  16   7    8.29    3.28
   0 -16   7    1.88    2.07
   0 -16   7   -1.84    7.68
   0  16   7    7.10    3.62
   1  16  -7    0.14    4.13
   1  16  -7    1.59    2.49
  -1 -16  -7   -1.93    1.98
  -1 -16   7   -0.09    1.84
  -1 -16   7    2.56    7.34
   1  16   7    2.72    3.13
   1  16   7    6.24    3.44
   2  16  -7    2.24    2.50
   2  16  -7   -0.12    3.49
  -2 -16  -7   -1.17    1.89
  -2 -16   7   -0.83    1.80
   2  16   7    3.59    3.29
  -2 -16   7   -4.82    7.38
   3  16  -7   -0.22    3.16
   3  16  -7   -4.57    2.54
  -3 -16  -7    5.74   13.32
  -3 -16  -7   -2.93    1.93
   3  16   7   -2.21    3.46
  -3 -16   7   -0.81    1.78
   4  16  -7   27.08    5.59
  -4 -16  -7    9.59   14.57
   4  16   7    5.55    5.58
  -4 -16   7   19.96    4.98
   5  16  -7    0.30    2.43
   5  16  -7   -1.22    2.96
  -7  17   7   -9.64    4.03
  -7  17   7   -8.62    7.43
   6 -17  -7    0.34    2.27
   6 -17  -7    7.00    9.83
  -6  17   7   -0.22    6.42
  -6  17   7    0.19    3.75
   5 -17  -7   -0.11    2.22
   5 -17  -7   -6.48   10.26
  -5  17   7    7.64    3.86
  -5  17   7   -1.26    6.31
   4 -17  -7   -2.64   10.95
   4 -17  -7    2.43    2.28
  -4  17   7    7.09    5.94
  -4  17   7    2.84    3.64
   3 -17  -7   -0.11    2.22
   3 -17  -7  -12.00   10.20
  -3  17  -7    0.43    6.76
  -3  17   7    6.99    5.56
   3 -17   7   -0.51    2.59
  -3  17   7    7.50    3.64
  -2  17  -7   -3.73    3.53
   2 -17  -7   -5.75    2.22
   2 -17  -7    7.54   10.62
  -2  17  -7    0.20    6.40
  -2  17   7    0.46    3.44
  -2  17   7    7.57    4.80
   2 -17   7   17.92    3.66
   2 -17   7   -3.95    8.31
  -1  17  -7   -0.38    5.80
   1 -17  -7   -0.15   11.53
  -1  17  -7    0.14    2.95
   1 -17  -7   -3.08    2.11
   1 -17   7    1.83    2.49
  -1  17   7   -2.71    3.42
  -1  17   7   -5.97    4.45
   1 -17   7    5.38    8.00
   0 -17  -7   -5.49   12.75
   0  17  -7    0.17    5.01
   0 -17  -7    0.11    2.14
   0  17  -7    1.33    3.01
   0  17   7    4.14    4.10
   0  17   7   -3.78    3.47
   0 -17   7    1.32    2.32
   0 -17   7  -12.75    8.21
   1  17  -7    2.40    2.84
  -1 -17  -7   -3.38    2.13
   1  17  -7    1.81    4.49
  -1 -17   7    9.98    8.86
  -1 -17   7    0.96    2.13
   1  17   7  -11.38    3.93
   2  17  -7    0.13    4.03
   2  17  -7    0.73    2.87
  -2 -17  -7   -2.37    2.17
  -2 -17   7   -2.95    8.00
   2  17   7   -3.04    3.48
  -2 -17   7    0.10    2.05
  -3 -17  -7    8.97   15.01
  -3 -17  -7    0.72    2.12
   3  17  -7    2.55    2.79
   3  17  -7    0.71    3.45
  -3 -17   7    6.05    8.41
   3  17   7   -2.32    3.72
  -3 -17   7    0.10    1.97
   4  17  -7    0.57    2.71
  -4 -17  -7    3.21   15.09
   4  17  -7   -0.11    3.20
  -4 -17  -7    0.38    2.15
  -4 -17   7    0.99    1.83
   4  17   7   -1.46    3.78
   7 -18  -7    3.77    2.68
  -7  18   7    3.69    4.16
  -7  18   7    1.01    7.79
   6 -18  -7   -3.78    2.49
   6 -18  -7   -6.95   11.22
  -6  18   7   10.93    7.28
  -6  18   7    1.87    4.22
  -4  18   7   -9.99    4.47
  -4  18   7   -9.31    6.36
   3 -18  -7    7.94   11.91
   3 -18  -7   -3.05    2.44
  -3  18  -7    0.23    7.19
   3 -18   7   -6.85    2.77
  -3  18   7   -1.20    5.84
  -3  18   7   -3.76    4.11
  -2  18  -7    0.16    3.11
  -2  18  -7    2.86    6.88
   2 -18  -7    0.61    2.29
   2 -18  -7    6.66   11.98
  -2  18   7   -2.77    4.09
   2 -18   7    1.43    2.61
  -2  18   7   -6.35    5.43
  -1  18  -7   -0.62    3.38
  -1  18  -7    1.01    6.25
   1 -18  -7   -2.60    2.28
   1 -18  -7   -6.51   12.76
  -1  18   7    4.56    4.84
   1 -18   7   14.70    8.76
   1 -18   7    1.38    2.49
  -1  18   7    3.37    4.00
   0  18  -7    0.18    5.48
   0 -18  -7    0.12    2.33
   0  18  -7   -6.58    3.36
   0 -18   7    3.73    9.06
   0  18   7    1.99    3.96
   0  18   7   -1.66    4.61
   0 -18   7    0.12    2.46
   1  18  -7   -0.14    3.04
  -1 -18  -7   -2.39    2.36
   1  18  -7    1.31    5.11
  -1 -18   7   -2.74    9.31
  -1 -18   7   -0.12    2.37
   1  18   7    0.98    4.21
   2  18  -7   -0.72    4.27
  -2 -18  -7    5.41   15.87
  -2 -18  -7    0.26    2.42
   2  18  -7    1.22    3.13
   2  18   7   12.16    4.36
  -2 -18   7    0.36    9.28
  -2 -18   7   -1.82    2.26
  -3 -18  -7   -0.27    2.35
   3  18  -7   -0.65    2.96
   3  18  -7    0.40    3.76
  -3 -18  -7   14.52   16.64
   3  18   7    0.17    4.19
  -3 -18   7  -11.00    9.40
  -3 -18   7    0.56    2.16
   4  18  -7   -5.23    3.38
   6 -19  -7   -6.51    2.86
   6 -19  -7   16.44   11.52
  -6  19   7   -5.78    4.46
  -6  19   7   -4.39    7.52
   5 -19  -7  -34.84   13.07
   5 -19  -7   -1.78    2.85
  -5  19   7  -14.64    7.70
  -5  19   7   -6.62    4.98
   4 -19  -7    1.90    2.79
   4 -19  -7    3.29   13.31
  -4  19   7   -3.00    6.84
  -4  19   7    3.60    4.94
   3 -19  -7   -4.19   13.89
   3 -19  -7    3.13    2.69
  -3  19  -7   -2.25    7.72
  -3  19   7   -5.10    4.65
   3 -19   7    2.53    2.98
  -3  19   7   -0.66    6.27
  -2  19  -7    0.36    3.57
  -2  19  -7    0.47    7.13
   2 -19  -7   -5.56    2.62
   2 -19  -7   -5.91   13.50
   2 -19   7   -1.87    2.83
  -2  19   7   -1.94    4.54
  -2  19   7    6.71    5.67
   1 -19  -7    0.18   14.27
   1 -19  -7   -0.14    2.62
  -1  19  -7   -0.86    6.62
  -1  19  -7    1.21    3.59
  -1  19   7   -5.88    4.56
  -1  19   7   15.29    5.60
   1 -19   7  -10.92    9.63
   1 -19   7   -2.23    2.75
   0 -19  -7    6.71    2.70
   0  19  -7    0.33    3.65
   0  19  -7   -0.99    6.06
   0  19   7   -3.17    4.33
   0  19   7    4.11    5.19
   0 -19   7   -5.25    2.66
   0 -19   7    4.77    9.84
   1  19  -7    0.95    3.49
  -1 -19  -7    3.02    2.78
   1  19  -7    0.18    5.35
  -1 -19   7    2.10    2.62
   1  19   7   -2.81    5.17
  -1 -19   7   -0.55   10.26
  -2 -19  -7   -1.30   17.47
  -2 -19  -7   -5.26    2.78
   2  19  -7   -0.46    3.25
   2  19  -7    1.76    4.78
   2  19   7    0.52    4.28
  -2 -19   7   11.32   10.53
  -2 -19   7    1.77    2.42
   2  19   7    0.57    4.92
   3  19  -7    0.73    3.39
   3  19  -7   -1.03    4.35
  -3 -19  -7    3.60   18.29
  -3 -19  -7   -7.52    2.72
  -3 -19   7   -2.97    2.41
   3  19   7    6.67    4.25
   3  19   7   -0.40    4.83
  -4 -19  -7   18.48   18.75
   4  19   7    0.21    4.89
  -3  20  -7    7.54    7.98
   3 -20   7   -4.26    3.18
  -2  20  -7   -0.60    3.84
  -2  20  -7   -0.25    7.70
   2 -20   7   -0.79    3.25
  -1  20  -7   -5.38    4.16
  -1  20  -7   -0.94    7.26
   1 -20   7    6.88   10.51
   1 -20   7    6.14    3.10
   0  20  -7    0.19    3.96
   0  20  -7    1.70    6.55
   0 -20   7    1.80    2.99
   0 -20   7  -13.76   10.91
   1  20  -7    4.78    4.09
   1  20  -7    1.94    5.91
  -1 -20   7   22.23   11.59
  -1 -20   7    0.15    2.95
   2  20  -7    2.90    3.89
   2  20  -7    1.58    5.09
  -2 -20   7    4.11    2.78
  -2 -20   7   -7.99   11.86
   3  20  -7    1.31    3.75
   0   0  -8   16.11    6.14
   0   0   8   23.28    5.48
   1   0  -8   -0.11    0.95
   0   1  -8    0.26    1.01
  -1   0   8    0.20    0.33
  -1   0   8    0.11    0.40
   0   1   8   -0.20    0.38
   0  -1   8   -0.11    0.43
   0  -1   8   -0.06    0.44
   1  -1  -8    6.92    2.18
   1   1  -8    5.32    2.14
   1  -1  -8    4.67    2.14
  -1  -1   8    5.80    1.77
  -1   1   8    6.65    1.77
  -1   1   8    6.97    1.84
  -1  -1   8    6.80    1.83
   1  -2  -8    0.18    0.27
   1  -2  -8    0.26    1.00
   1  -2  -8   -0.25    1.28
   2   1  -8    0.19    0.87
  -1   2   8   -0.04    0.33
  -1   2   8    0.02    0.47
  -1   2   8   -0.15    0.42
  -2  -1   8    0.09    0.39
  -2  -1   8    0.06    0.30
   2   0  -8    0.09    0.83
   0   2  -8   -0.35    1.18
   0  -2   8    0.34    0.50
   0   2   8   -0.24    0.39
  -2   0   8    0.34    0.39
  -2   0   8    0.48    0.30
   2  -1  -8    0.06    0.22
   1   2  -8    0.54    1.04
   2  -1  -8   -0.23    1.04
   2  -1  -8   -0.34    0.83
  -2   1   8   -0.26    0.34
  -2   1   8    0.15    0.26
  -1  -2   8    0.53    0.45
  -2   1   8   -0.26    0.35
   2  -2  -8    0.08    0.85
   2   2  -8   -0.67    1.04
   2  -2  -8   -0.03    1.48
   2  -2  -8    0.19    0.26
  -2   2   8    0.19    0.39
  -2  -2   8    0.20    0.45
  -2   2   8   -0.03    0.25
  -2   2   8    0.26    0.43
   2  -3  -8    0.17    0.34
   2  -3  -8    0.38    1.94
   2  -3  -8   -0.21    0.93
  -2   3   8    0.08    0.24
  -2   3   8    0.25    0.43
  -2   3   8   -0.19    0.62
   1  -3  -8   15.65    4.46
   1  -3  -8   19.44    4.99
   1  -3  -8   11.03    5.28
  -1   3   8   14.95    4.52
  -1   3   8   15.98    4.41
  -1   3   8   20.99    4.73
   3   0  -8    0.35    0.22
   0  -3  -8    0.23    1.48
   0   3  -8   -1.18    1.43
   0   3   8    0.33    0.69
  -3   0   8   -0.04    0.35
   0  -3   8   -0.04    0.53
  -3   0   8    0.05    0.24
   3  -1  -8   16.09    4.30
   3  -1  -8   14.40    4.43
  -3   1   8   16.37    4.46
  -3   1   8   21.91    4.60
  -3   1   8   13.86    4.35
   3  -2  -8    0.50    0.23
   2   3  -8    0.42    0.57
   2   3  -8    0.10    0.38
   3  -2  -8    2.36    1.73
   3  -2  -8    0.24    0.32
  -3   2   8    0.56    0.38
  -3   2   8    0.38    0.50
  -2  -3   8    0.03    1.41
  -2  -3   8    0.52    0.25
  -3   2   8    0.29    0.25
   3  -3  -8   81.66   22.48
   3  -3  -8   73.07   23.01
   3   3  -8   80.68   22.54
   3  -3  -8   84.58   20.26
   3  -3  -8   78.51   20.75
   3   3  -8   77.21   22.24
  -3   3   8   74.03   21.06
  -3  -3   8   62.85   21.04
  -3  -3   8   80.95   20.78
  -3   3   8   73.40   22.08
  -3   3   8   80.38   20.47
  -3  -3   8   43.86   24.00
  -3   3   8   81.20   21.00
  -3  -3   8   81.20   20.09
   3  -4  -8   16.88    4.51
   3  -4  -8   18.76    5.03
   3  -4  -8   16.94    5.52
  -4  -3   8   11.77    5.50
  -3   4   8   19.39    4.56
  -3   4   8   18.77    5.01
  -4  -3   8   13.36    4.61
  -3   4   8   16.60    4.68
  -3   4   8   15.20    4.67
   2  -4  -8   10.62    4.49
   2  -4  -8   13.00    4.01
   2  -4  -8   12.80    3.91
   2  -4  -8   12.70    4.99
   4   2  -8   16.59    3.86
  -4  -2   8   15.82    3.91
  -2   4   8   16.36    3.94
  -4  -2   8   18.35    4.95
  -2   4   8   12.04    4.23
  -4  -2   8   15.14    4.05
   4   1  -8    0.07    0.28
   1  -4  -8    1.37    2.38
   1  -4  -8    0.30    0.43
  -1   4   8    0.31    0.69
  -4  -1   8    0.34    0.32
  -1   4   8    0.36    0.34
   0  -4  -8   78.81   24.50
   0   4   8  102.77   26.28
   1   4  -8    0.38    0.50
  -1  -4   8   -0.03    0.53
  -1  -4   8    0.43    0.44
  -4   1   8    0.48    0.43
   4  -2  -8   11.60    3.92
   2   4  -8   10.53    4.03
   2   4  -8   20.59    4.39
   4  -2  -8   14.52    3.74
   2   4  -8    9.37    3.99
  -2  -4   8   16.82    3.74
  -4   2   8   12.31    3.95
  -2  -4   8   12.75    3.78
  -2  -4   8   10.15    4.99
  -2  -4   8   15.36    3.87
  -4   2   8   14.87    3.81
   4  -3  -8   18.75    4.78
   4  -3  -8   19.02    5.90
   3   4  -8   15.54    5.44
   4  -3  -8   16.73    4.93
   3   4  -8   18.85    4.67
   3   4  -8   18.36    5.07
  -4   3   8   17.86    5.01
  -3  -4   8   19.45    4.89
  -4   3   8   15.18    5.08
  -3  -4   8   18.55    4.71
  -4   3   8   17.57    4.89
  -3  -4   8   19.10    4.91
  -3  -4   8   12.52    5.79
   4   4  -8   14.10    4.22
   4  -4  -8   14.26    4.48
  -4  -4   8   14.04    5.40
  -4  -4   8   14.74    4.45
  -4  -4   8   15.79    4.27
  -4   4   8   18.20    4.65
  -4   4   8   20.84    4.62
   5   4  -8    1.25    0.57
   4  -5  -8   -2.11    3.15
  -5  -4   8    2.72    1.80
  -5  -4   8    1.72    0.59
  -5  -4   8    1.06    0.70
  -4   5   8    2.11    0.99
  -4   5   8    1.46    0.61
   3  -5  -8   29.86    9.12
   3  -5  -8   32.05    8.46
  -5  -3   8   32.67   10.27
  -3   5   8   32.44    8.69
  -3   5   8   28.46    8.61
   2  -5  -8    3.47    0.91
   5   2  -8    4.52    0.94
   2  -5  -8    3.68    1.44
  -2   5   8    1.98    0.91
  -5  -2   8    3.70    1.04
  -5  -2   8    3.12    0.97
  -2   5   8    3.38    1.04
   5   1  -8   37.46    9.36
  -1   5   8   31.33    9.60
  -5  -1   8   36.31    9.50
   0  -5  -8    0.59    2.75
   5   0  -8    0.25    0.31
  -5   0   8    0.07    0.36
   0  -5   8   -0.22    0.68
   0  -5   8    1.75    0.69
  -5   0   8    0.17    0.43
   0  -5   8   -0.03    0.58
   1   5  -8   34.39   10.37
   5  -1  -8   32.71    9.17
  -1  -5  -8   37.22    9.51
   1   5  -8   30.78    9.83
  -1  -5   8   36.10   11.62
  -5   1   8   33.37    9.38
  -1  -5   8   30.68    9.20
  -1  -5   8   34.33    9.38
  -1  -5   8   35.86    9.50
   2   5  -8    4.09    1.79
   2   5  -8    2.94    1.32
   2   5  -8    3.80    1.14
  -2  -5   8    3.64    1.16
  -2  -5   8    3.89    1.03
  -2  -5   8    3.03    1.06
  -2  -5   8    2.96    2.30
   3   5  -8   33.72    9.02
   3   5  -8   22.47    7.87
   5  -3  -8   29.29    8.28
   3   5  -8   27.56    8.35
   3   5  -8   29.56    8.40
  -3  -5   8   31.76    7.93
  -5   3   8   29.49    8.46
  -3  -5   8   31.80    8.24
  -3  -5   8   29.56    9.53
  -3  -5   8   31.31    8.20
   4   5  -8    1.65    0.55
   4   5  -8    1.01    0.88
  -4  -5   8    0.42    2.24
  -5   4   8    2.50    0.63
  -4  -5   8    0.66    0.57
  -4  -5   8    1.73    0.73
  -4  -5   8    1.80    0.62
   5  -5  -8   25.26    5.33
   5  -5  -8   12.40    7.02
  -5   5   8   20.75    5.49
  -5  -5   8   19.34    5.05
  -5   5   8   16.77    5.52
  -5  -5   8   17.12    5.26
   5  -6  -8    5.46    4.03
   5  -6  -8    5.80    2.03
   6   5  -8    6.19    1.88
  -5   6   8    6.73    2.03
  -6  -5   8    6.33    1.99
  -6  -5   8   12.93    3.11
  -5   6   8    8.27    2.29
  -6  -5   8    5.56    1.91
   6   4  -8   10.92    3.16
   4  -6  -8   11.18    3.31
  -6  -4   8   11.87    3.31
  -4   6   8   12.44    3.39
  -6  -4   8   11.08    3.22
  -4   6   8   13.41    3.46
   3  -6  -8   39.69    9.26
   3  -6  -8   22.93   10.77
   3  -6  -8   25.87   10.23
  -3   6   8   36.94    9.60
  -6  -3   8   41.23    9.33
  -3   6   8   33.00   10.26
   2  -6  -8   14.60    4.36
   2  -6  -8   25.95    5.91
   2  -6  -8   16.02    4.94
   2  -6  -8   14.88    4.39
   6   2  -8   16.84    4.29
  -6  -2   8   16.89    4.42
  -2   6   8   14.95    4.67
  -2   6   8   13.40    4.40
  -6  -2   8   14.72    4.37
   6   1  -8    5.14    1.22
   1  -6  -8   -0.04    3.66
   1  -6  -8    4.76    1.31
  -6  -1   8    5.42    1.28
  -1   6   8    3.79    1.54
  -1   6   8    3.89    1.19
  -6  -1   8    3.07    1.30
   1  -6   8    5.18    1.51
   6   0  -8    1.72    0.69
   0   6  -8    2.39    2.04
   0  -6  -8    2.41    0.83
   0  -6  -8    5.95    3.47
  -6   0   8    1.98    0.78
  -6   0   8    1.90    0.74
   0  -6   8    2.45    0.97
   0   6   8    2.55    1.10
   0  -6   8    1.83    0.97
  -1  -6  -8    5.95    3.22
  -1  -6  -8    3.02    1.32
   1   6  -8    3.84    2.17
  -1  -6   8    4.11    1.37
  -6   1   8    3.47    1.26
  -1  -6   8    5.28    1.29
  -1  -6   8    4.72    1.30
   1   6   8    3.51    1.65
   2   6  -8   17.27    5.21
   2   6  -8   16.55    4.76
   2   6  -8   19.15    4.82
  -2  -6  -8   22.13    5.70
  -2  -6   8   13.02    4.58
  -2  -6   8   18.19    4.69
  -2  -6   8   15.73    4.55
   3   6  -8   46.75   10.33
   3   6  -8   36.62   10.93
   3   6  -8   33.85   11.82
   3   6  -8   31.34   10.91
  -3  -6   8   42.11   12.38
  -3  -6   8   38.58   10.82
  -3  -6   8   37.67   10.39
  -3  -6   8   42.79   10.67
   4   6  -8   10.79    3.26
   4   6  -8    7.02    3.73
   4   6  -8   13.06    2.81
  -4  -6   8    9.73    3.00
  -4  -6   8    9.29    2.83
  -4  -6   8   10.24    3.02
   6  -5  -8    5.92    1.79
   5   6  -8    5.66    1.63
  -5  -6   8    4.84    1.63
  -5  -6   8    6.94    1.79
   6  -6  -8   -0.35    0.84
   6   6  -8   -0.04    0.50
  -6  -6   8   -0.04    0.73
  -6  -6   8   -0.04    0.55
   7   6  -8    0.50    0.54
   6  -7  -8    0.83    0.95
  -7  -6   8    0.08    0.81
  -7  -6   8   -0.04    0.66
  -6   7   8    1.29    1.34
  -7  -6   8    1.90    2.67
   5  -7  -8    0.47    0.86
   5  -7  -8    4.79    3.87
   7   5  -8    0.57    0.56
  -7  -5   8    1.46    0.70
  -5   7   8    1.07    1.29
  -7  -5   8    0.49    0.75
   4  -7  -8   15.07    5.27
   7   4  -8   21.25    5.08
   4  -7  -8   15.81    6.60
  -7  -4   8   15.24    5.18
  -7  -4   8   21.12    5.23
  -4   7   8   23.72    5.41
   3  -7  -8    7.98    4.54
   3  -7  -8    8.32    2.50
  -3   7   8    9.23    2.64
  -7  -3   8    7.82    2.49
  -3   7   8   10.38    3.17
   7   2  -8   23.82    6.22
   2  -7  -8   24.50    6.31
  -2   7   8   19.74    6.68
  -7  -2   8   24.61    6.33
   1  -7  -8    0.05    6.29
   1  -7  -8   11.70    3.32
   1  -7   8   14.96    3.48
  -1   7   8   13.27    3.60
   0   7  -8   -2.90    1.25
   0  -7  -8   -0.68    0.76
   0   7  -8   -7.12    2.88
   0  -7   8   -1.17    1.11
   0   7   8   -0.64    0.40
   0  -7   8   -1.17    0.97
   0   7   8   -0.43    1.12
  -1  -7  -8   11.83    3.27
  -1  -7  -8    7.33    5.47
   1   7  -8   12.47    3.57
   1   7   8    9.60    3.61
  -1  -7   8   12.81    3.19
  -2  -7  -8   22.40    6.80
   2   7  -8   12.77    5.99
   2   7  -8   19.25    5.19
  -2  -7   8   19.78    4.78
   2   7   8   11.37    5.66
  -2  -7   8   13.65    5.07
   3   7  -8    8.27    2.39
   3   7  -8    8.59    2.59
   3   7  -8    7.61    3.33
  -3  -7   8    9.43    2.58
  -3  -7   8    8.64    2.40
  -3  -7   8    9.57    4.02
   4   7  -8   15.87    4.80
   4   7  -8   21.09    5.89
  -4  -7   8   15.09    4.83
  -4  -7   8   18.20    5.14
  -4  -7   8   20.20    6.50
   5   7  -8    2.87    1.13
   5   7  -8    0.49    0.56
  -5  -7   8   -1.17    3.26
  -5  -7   8    0.78    0.57
  -5  -7   8    1.69    0.75
  -5  -7   8    0.23    0.82
   6   7  -8    0.41    0.57
  -6  -7   8    0.41    0.84
  -6  -7   8    0.50    0.65
  -6  -7   8    4.16    3.56
   7   7  -8    3.68    1.92
   7  -7  -8    5.10    2.15
  -7  -7   8    8.84    1.98
  -7  -7   8    8.30    2.08
  -7  -7   8    8.18    3.95
   7  -8  -8    0.53    1.18
  -8  -7   8    0.50    0.89
   6  -8  -8    3.99    1.60
  -6   8   8    3.86    1.99
  -8  -6   8    4.98    1.48
   5  -8  -8   -2.43    4.34
   5  -8  -8    0.14    0.96
  -5   8   8    0.07    1.40
   4  -8  -8    0.22    0.91
   4  -8  -8    4.96    3.76
  -4   8   8    0.06    1.24
   3  -8  -8   21.50    7.40
   3  -8  -8   23.78    5.69
  -3   8   8   16.26    6.52
  -3   8   8   16.80    5.85
   2  -8  -8    2.33    4.28
   2  -8  -8    0.58    0.74
  -2   8   8    0.80    1.10
  -2   8   8   -0.12    1.58
   1  -8  -8    5.97    1.95
  -1   8  -8    7.06    2.17
   1  -8  -8    8.55    4.93
   1  -8   8    5.99    2.10
   1  -8   8    6.65    2.03
  -1   8   8    5.82    2.27
   0  -8  -8    5.82    1.60
   0  -8  -8    2.31    4.88
   0   8  -8    4.61    2.86
   0   8  -8    6.85    1.86
   0   8   8    2.79    1.86
   0  -8   8    4.52    1.71
   0  -8   8    2.72    3.77
   0  -8   8    6.83    1.63
   0  -8   8    5.07    1.65
   1   8  -8    9.02    3.03
  -1  -8  -8    4.86    2.04
  -1  -8  -8    6.59    5.01
   1   8  -8    6.51    2.21
  -1  -8   8    5.21    1.97
   1   8   8    6.05    2.32
  -1  -8   8    6.71    2.15
  -1  -8   8    9.79    2.04
  -1  -8   8    9.10    4.02
  -2  -8  -8   -0.62    0.84
  -2  -8  -8    1.74    3.90
   2   8  -8   -1.76    1.49
   2   8  -8    1.26    0.92
   2   8  -8    0.97    2.05
  -2  -8   8    0.65    0.59
  -2  -8   8    0.04    2.99
   2   8   8   -0.82    1.46
  -2  -8   8    0.62    0.66
  -2  -8   8    1.20    0.91
   3   8  -8   21.08    6.06
   3   8  -8   18.15    6.07
   3   8  -8   23.14    6.87
   3   8  -8   22.25    5.69
  -3  -8   8   18.96    5.69
  -3  -8   8   21.56    6.06
  -3  -8   8   23.92    5.83
  -3  -8   8   18.60    7.48
   4   8  -8   -0.38    0.50
   4   8  -8   -0.78    1.07
   4   8  -8    0.39    2.12
  -4  -8   8    0.87    3.50
  -4  -8   8    0.09    0.51
  -4  -8   8    0.41    0.86
  -4  -8   8    0.66    0.66
   5   8  -8    0.95    1.22
   5   8  -8   -0.61    0.58
  -5  -8   8   -2.81    3.77
  -5  -8   8   -0.04    0.85
  -5  -8   8   -0.68    0.75
  -5  -8   8   -0.10    0.56
   6   8  -8    3.79    1.13
  -6  -8   8    6.87    4.23
  -6  -8   8    3.08    1.15
  -6  -8   8    2.60    1.33
   7   8  -8   -0.17    0.62
  -7  -8   8    0.76    0.74
  -7  -8   8    0.46    0.94
  -8  -8   8   11.80    3.46
   7  -9  -8   12.70    3.68
   6  -9  -8   -0.90    4.98
   6  -9  -8    3.14    1.32
  -6   9   8    1.84    1.89
   5  -9  -8    3.44    4.93
   5  -9  -8   -0.05    1.03
  -5   9   8    1.10    1.61
   4  -9  -8    0.79    1.14
   4  -9  -8    7.49    4.41
  -4   9   8    1.01    1.52
  -4   9   8    3.99    2.86
   3  -9  -8    2.03    1.02
   3  -9  -8   -2.69    4.51
  -3   9   8    1.52    2.18
  -3   9   8    1.65    1.42
   2  -9  -8    0.06    4.90
   2  -9  -8   -0.27    0.87
  -2   9   8    2.37    1.85
   2  -9   8   -0.68    1.20
  -2   9   8    0.51    1.24
   1  -9  -8    3.98    5.24
  -1   9  -8   -0.83    1.26
   1  -9  -8    0.44    0.86
   1  -9   8    1.14    1.00
   1  -9   8   -0.06    1.10
  -1   9   8    0.93    1.50
   0  -9  -8    1.07    5.32
   0  -9  -8    0.45    0.84
   0   9  -8   -0.49    1.21
   0   9  -8    0.62    2.53
   0  -9   8   -0.22    1.02
   0   9   8    0.33    1.34
   0  -9   8    3.21    3.82
   0  -9   8   -0.13    0.84
   0  -9   8    0.45    0.98
  -1  -9  -8    0.82    5.18
   1   9  -8   -0.77    2.51
  -1  -9  -8   -0.80    0.87
   1   9  -8   -0.55    2.07
   1   9  -8    0.73    1.13
  -1  -9   8    1.82    0.88
  -1  -9   8    0.70    1.01
  -1  -9   8    1.78    3.59
  -1  -9   8    0.33    0.69
   1   9   8    1.38    1.39
   2   9  -8   -0.77    2.38
   2   9  -8   -0.05    1.05
  -2  -9  -8    2.57    4.88
  -2  -9  -8    0.05    0.89
   2   9  -8   -0.50    1.70
  -2  -9   8   -1.21    3.40
  -2  -9   8   -0.88    0.80
  -2  -9   8   -0.52    0.99
   2   9   8   -0.70    1.55
  -2  -9   8    0.19    0.60
   3   9  -8    1.72    2.52
  -3  -9  -8   -1.64    4.55
   3   9  -8    0.57    0.59
   3   9  -8    0.49    1.06
   3   9  -8    2.02    1.46
  -3  -9   8    1.28    1.05
   3   9   8    1.92    1.73
  -3  -9   8    1.45    0.63
  -3  -9   8    1.37    0.80
  -3  -9   8   -0.04    3.66
   4   9  -8    1.20    1.35
   4   9  -8    2.39    0.74
   4   9  -8    1.41    2.43
  -4  -9   8    1.79    0.91
  -4  -9   8    1.71    4.15
  -4  -9   8    2.33    1.10
  -4  -9   8    1.15    0.73
   5   9  -8    2.40    2.43
   5   9  -8    0.51    0.60
   5   9  -8    0.32    1.35
  -5  -9   8    0.54    0.62
  -5  -9   8    0.05    0.84
  -5  -9   8   -0.68    4.39
  -5  -9   8   -0.05    0.94
   6   9  -8    3.18    0.88
  -6  -9   8    0.70    1.17
  -6  -9   8   -2.70    4.84
  -6  -9   8    2.30    0.93
   7   9  -8    9.62    3.09
  -7  -9   8   11.84    3.12
  -7  -9   8   11.24    3.28
  -8  -9   8    0.41    1.08
   7 -10  -8    4.18    1.76
   6 -10  -8    1.95    1.42
   6 -10  -8    1.36    5.45
  -6  10   8    2.07    2.04
   4 -10  -8    1.53    1.18
   4 -10  -8   -1.68    4.86
  -4  10   8    3.33    3.15
  -4  10   8    0.60    1.63
   3 -10  -8    0.05    0.98
   3 -10  -8    3.37    5.13
  -3  10   8   -1.64    2.65
  -3  10   8    0.21    1.50
   2 -10  -8    1.53    5.63
   2 -10  -8    4.81    1.49
  -2  10   8    2.20    1.78
   2 -10   8    3.89    1.76
  -2  10   8    7.31    2.53
   2 -10   8    2.86    1.71
   1 -10  -8    3.57    5.99
   1 -10  -8   -2.06    1.02
  -1  10  -8    0.76    1.38
   1 -10   8   -0.82    1.18
  -1  10   8    1.47    1.85
   1 -10   8   -0.44    1.03
   1 -10   8    2.32    4.41
   0  10  -8    6.43    2.39
   0 -10  -8    2.41    6.58
   0 -10  -8    8.81    2.10
   0  10  -8    8.37    3.55
   0 -10   8    6.17    4.78
   0  10   8    5.28    2.50
   0 -10   8    2.90    2.22
   0 -10   8    7.21    2.16
   0 -10   8    8.11    2.02
  -1 -10  -8   -1.23    0.99
  -1 -10  -8   -8.82    6.27
   1  10  -8   -3.97    2.39
   1  10  -8   -2.83    2.79
   1  10  -8    0.87    1.30
   1  10   8   -0.06    1.49
  -1 -10   8   -1.07    0.99
  -1 -10   8    0.37    0.73
  -1 -10   8   -2.45    3.99
  -1 -10   8   -0.11    1.11
  -2 -10  -8    1.45    6.04
   2  10  -8    4.32    1.61
   2  10  -8    5.03    1.16
  -2 -10  -8    1.92    1.43
   2  10  -8    6.55    2.25
   2  10  -8    4.81    2.80
  -2 -10   8    3.99    1.39
   2  10   8    3.76    1.95
  -2 -10   8    2.81    1.57
  -2 -10   8    3.25    1.20
  -2 -10   8   -0.10    4.14
  -3 -10  -8    3.23    5.66
   3  10  -8   -1.13    1.56
  -3 -10  -8    1.01    1.14
   3  10  -8   -1.72    2.53
   3  10  -8   -0.17    0.57
   3  10  -8    0.24    1.17
  -3 -10   8    1.71    4.10
  -3 -10   8   -0.45    1.14
  -3 -10   8   -0.34    0.87
   3  10   8   -2.10    1.85
  -3 -10   8   -0.06    0.57
   4  10  -8    0.04    0.62
   4  10  -8    1.73    2.60
   4  10  -8    1.45    1.43
   4  10  -8   -1.17    1.20
  -4 -10   8    0.14    0.88
  -4 -10   8   -2.19    4.52
  -4 -10   8    0.73    0.63
  -4 -10   8   -1.77    1.18
   5  10  -8    7.40    3.29
   5  10  -8    4.56    1.73
   5  10  -8    7.95    2.34
  -5 -10   8    3.71    5.58
  -5 -10   8    5.50    1.75
  -5 -10   8    5.55    2.12
  -5 -10   8    6.06    1.93
   6  10  -8    3.65    1.09
   6  10  -8    2.34    1.88
  -6 -10   8    1.60    1.27
  -6 -10   8    3.10    1.11
  -6 -10   8    2.84    1.38
   7  10  -8    4.91    1.13
  -7 -10   8    1.30    1.14
  -7 -10   8    2.27    1.41
  -8 -10   8    5.35    1.93
   7 -11  -8   -0.80    1.47
  -7  11   8    2.64    2.11
   6 -11  -8    3.40    1.75
   6 -11  -8    3.95    6.04
  -6  11   8    3.20    2.30
   5 -11  -8   -1.63    6.10
   5 -11  -8   -0.78    1.40
  -5  11   8    0.25    3.91
  -5  11   8    1.71    2.03
   4 -11  -8    5.15    1.75
   4 -11  -8    1.23    5.71
  -4  11   8   14.37    3.87
  -4  11   8    1.68    2.21
   3 -11  -8    0.99    1.24
  -3  11   8    5.66    2.94
  -3  11   8    0.71    1.76
  -2  11   8   -1.04    2.08
   2 -11   8   -0.08    1.45
  -1  11  -8   15.47    4.01
   1 -11   8    6.60    3.53
   1 -11   8   15.14    3.72
   1 -11   8   10.75    6.42
   0  11  -8   -1.08    3.01
   0  11  -8   -0.74    1.59
   0 -11  -8   -3.32    1.41
   0 -11   8    0.43    1.25
   0 -11   8   -1.41    4.66
   0 -11   8   -0.76    0.91
   0 -11   8    0.68    1.27
   1  11  -8   12.06    4.87
   1  11  -8   14.21    5.43
   1  11  -8   11.52    4.24
  -1 -11  -8   23.28    3.99
  -1 -11   8    5.44    6.32
  -1 -11   8   16.04    3.94
  -1 -11   8   12.22    4.18
  -1 -11   8   10.26    3.79
   2  11  -8    0.71    2.26
   2  11  -8    1.83    1.45
   2  11  -8   -1.76    2.83
  -2 -11  -8   -2.32    1.42
   2  11  -8    1.80    0.63
   2  11   8   -4.79    2.16
  -2 -11   8    1.70    1.26
  -2 -11   8    1.34    0.68
  -2 -11   8    2.43    4.20
  -2 -11   8    0.25    1.04
   3  11  -8    2.89    2.82
   3  11  -8    2.09    0.69
   3  11  -8    1.23    1.39
  -3 -11  -8   -2.69    1.27
  -3 -11  -8   -8.77    7.00
   3  11  -8    4.19    1.89
  -3 -11   8    1.49    0.68
  -3 -11   8   -2.89    4.66
  -3 -11   8    1.27    1.27
  -3 -11   8    2.45    1.05
   3  11   8   -3.56    2.14
   4  11  -8    2.82    1.73
   4  11  -8    2.22    1.49
   4  11  -8    2.02    2.92
   4  11  -8    2.72    0.92
  -4 -11   8    2.18    1.15
  -4 -11   8   -1.71    5.18
  -4 -11   8    3.17    1.45
  -4 -11   8    1.57    0.91
   5  11  -8   -0.11    0.68
   5  11  -8   -0.45    2.98
   5  11  -8    1.28    1.58
  -5 -11   8    0.06    1.04
  -5 -11   8    1.14    1.24
  -5 -11   8   -4.84    5.57
  -5 -11   8    0.49    0.74
   6  11  -8    0.94    3.21
   6  11  -8    3.36    1.18
   6  11  -8    1.58    2.00
  -6 -11   8    3.82    1.57
  -6 -11   8    3.52    1.19
   7  11  -8    1.55    1.03
  -7 -11   8    0.97    1.35
  -7 -11   8    3.14    1.06
  -8 -11   8   -1.52    1.35
   8 -12  -8   -0.50    1.67
   5 -12  -8   -1.62    1.50
  -5  12   8   -6.57    4.33
  -4  12   8    3.93    3.85
   3 -12  -8    7.78    6.69
   3 -12  -8    0.13    1.34
  -3  12   8    1.95    2.01
  -3  12   8   -4.31    3.42
  -2  12  -8   13.75    4.90
   2 -12  -8   15.49    4.45
   2 -12  -8   -1.30    8.49
   2 -12   8   19.58    4.58
  -2  12   8   19.67    5.46
  -2  12   8   14.35    4.84
  -1  12  -8   -2.08    1.78
   1 -12  -8   -3.43    7.89
   1 -12  -8   -0.70    1.28
  -1  12   8   -0.34    1.96
   1 -12   8    1.81    5.20
   1 -12   8    0.98    1.47
  -1  12   8   -2.88    2.53
   0  12  -8   36.21    9.58
   0 -12  -8   26.80   13.22
   0 -12  -8   35.32    8.22
   0  12  -8   31.04    8.88
   0 -12   8    7.61   10.76
   0 -12   8   30.31    8.34
   0  12   8   36.76    8.77
   1  12  -8    0.87    1.60
  -1 -12  -8  -17.36    8.47
  -1 -12  -8   -1.32    1.32
   1  12  -8    1.16    2.92
  -1 -12   8   -0.55    1.23
  -1 -12   8    2.04    4.88
   1  12   8   -0.40    1.99
   2  12  -8   16.52    4.82
   2  12  -8   16.46    5.17
  -2 -12  -8   15.64    4.46
   2  12   8   19.11    4.95
  -2 -12   8   15.69    4.46
  -2 -12   8    5.72    7.00
   3  12  -8   -0.14    0.63
   3  12  -8    0.21    1.98
  -3 -12  -8    1.07    1.29
   3  12  -8    0.57    1.52
  -3 -12   8    1.04    5.10
  -3 -12   8    0.39    1.09
   3  12   8    1.17    2.12
   4  12  -8    1.01    1.77
   4  12  -8    0.24    1.56
   4  12  -8    0.79    0.78
   4  12  -8   -2.71    3.05
  -4 -12   8    1.87    1.15
  -4 -12   8   -0.39    5.44
   5  12  -8    0.41    0.79
   5  12  -8   -1.41    1.85
   5  12  -8    1.57    3.21
  -5 -12   8    1.43    1.45
  -5 -12   8   -4.67    6.42
  -5 -12   8    0.85    1.11
  -5 -12   8    1.02    0.76
   6  12  -8    1.68    3.36
   6  12  -8    1.19    0.85
  -6 -12   8    0.97    0.87
  -6 -12   8   -0.06    1.53
   7  12  -8   -0.46    0.97
   7  12  -8   -0.45    3.33
  -7 -12   8   -0.19    1.35
  -8 -12   8    0.37    1.41
   8 -13  -8    0.55    1.75
   7 -13  -8    1.19    1.81
  -7  13   8   -1.11    2.61
   6 -13  -8    1.22    1.71
   6 -13  -8   -2.22    7.29
  -6  13   8    9.29    5.06
  -6  13   8    2.03    2.50
   5 -13  -8   -5.32    7.81
   5 -13  -8    5.89    2.12
  -5  13   8   12.59    4.85
  -5  13   8    3.59    2.76
   4 -13  -8   -3.60    6.90
  -4  13   8    1.59    2.26
   3 -13  -8   -7.62    7.42
  -3  13   8   -0.10    2.23
   2 -13   8    2.96    1.85
  -1  13  -8    5.90    3.69
   1 -13   8   13.65    3.46
   1 -13   8   14.62    6.55
   0  13  -8    1.85    3.92
   0  13  -8    2.59    1.93
   0 -13   8   -2.23    1.49
   0 -13   8    2.43    5.78
   1  13  -8    7.38    3.24
  -1 -13  -8   -0.12    9.54
   1  13  -8   10.33    4.22
  -1 -13   8   10.41    2.85
  -1 -13   8    8.62    6.23
   2  13  -8   -0.91    1.67
   2  13  -8    2.32    2.64
  -2 -13  -8    1.84    9.17
  -2 -13   8   -1.93    5.38
  -2 -13   8   -0.26    1.36
   3  13  -8    0.07    1.86
  -3 -13  -8    7.06    1.65
   3  13  -8    0.08    2.36
  -3 -13   8    1.03    5.65
   3  13   8   11.27    2.53
  -3 -13   8    0.31    1.46
   4  13  -8    0.07    1.65
   4  13  -8    2.40    2.02
  -4 -13   8   -9.70    5.98
  -4 -13   8    1.20    1.26
   4  13   8   -0.81    2.47
   5  13  -8    0.66    2.38
   5  13  -8    2.26    1.99
   8 -14  -8   -1.56    1.93
   7 -14  -8    1.20    1.95
  -7  14   8   10.38    6.02
  -7  14   8    3.01    2.82
   6 -14  -8  -12.89    7.79
   6 -14  -8   -1.58    1.68
  -6  14   8    3.54    5.23
  -6  14   8    0.70    2.79
   5 -14  -8    3.95    2.21
   5 -14  -8    8.92    8.02
  -5  14   8    7.95    3.14
  -5  14   8    0.50    5.44
   4 -14  -8   -0.49    1.72
   4 -14  -8    1.35    8.00
  -4  14   8    1.55    2.67
  -4  14   8   -0.76    4.73
   3 -14  -8   -5.53    8.18
   3 -14  -8    2.28    1.68
   3 -14   8   -0.21    2.05
  -3  14   8   -0.69    4.25
  -3  14   8    4.49    2.66
  -2  14  -8   -1.28    2.27
   2 -14  -8   -3.23    1.91
  -2  14   8   -5.67    3.61
  -2  14   8   -2.07    2.77
  -1  14   8    9.57    4.39
   2  14  -8   -1.09    3.10
  -2 -14  -8   -1.74    1.57
  -2 -14   8   -2.39    1.51
   2  14   8   -4.58    2.66
   3  14  -8    1.73    2.59
  -3 -14  -8    0.55    1.64
  -3 -14   8    0.85    1.39
   3  14   8    0.80    2.57
   4  14  -8    0.39    2.32
  -4 -14   8    0.07    1.33
   4  14   8   -1.50    2.72
   8 -15  -8   -3.05    2.10
   7 -15  -8    6.09    2.34
  -7  15   8   10.63    6.48
  -7  15   8   -1.15    3.40
   6 -15  -8    3.50    8.34
   6 -15  -8    0.57    1.82
  -6  15   8    3.05    5.77
  -6  15   8   -1.53    3.04
   5 -15  -8   18.10    8.65
   5 -15  -8   -6.86    1.92
  -5  15   8    2.00    3.07
  -5  15   8   -4.34    5.34
   4 -15  -8    6.95    8.72
   4 -15  -8   -3.29    1.82
  -4  15   8   -4.51    4.89
  -4  15   8   -5.32    3.05
   3 -15  -8   -8.63    8.82
   3 -15  -8    3.43    1.84
   3 -15   8    0.56    2.22
  -3  15   8   -0.75    4.46
  -3  15   8   -8.38    2.97
   2 -15  -8    6.00    9.41
  -2  15  -8   -0.76    2.46
   2 -15  -8    1.99    1.95
  -2  15   8    1.10    3.80
  -2  15   8    0.12    2.98
   2 -15   8   -0.73    2.08
  -1  15  -8    0.16    5.11
   1 -15  -8  -17.80   10.63
   1 -15  -8   -0.62    2.00
  -1  15  -8   -0.47    2.39
  -1  15   8   -6.05    3.18
   1 -15   8   -0.10    1.93
  -1  15   8   -6.58    3.59
   1 -15   8    0.39    6.34
   0 -15  -8  -13.79   11.18
   0 -15  -8    1.46    1.87
   0  15  -8    0.99    2.23
   0  15  -8   -0.44    4.23
   0 -15   8   -1.53    1.75
   0  15   8   -1.29    2.95
   0  15   8   -5.92    3.15
   0 -15   8   -3.16    6.60
  -1 -15  -8   -2.56    1.76
  -1 -15  -8    5.45   11.61
   1  15  -8    1.83    2.27
   1  15  -8    0.13    3.95
  -1 -15   8   -1.80    6.83
  -1 -15   8    2.99    1.71
   1  15   8   -0.57    2.90
  -2 -15  -8   -1.35    1.75
   2  15  -8   -0.11    3.39
   2  15  -8   -2.27    2.27
   2  15   8    0.12    2.91
  -2 -15   8    0.83    6.42
  -2 -15   8    0.08    1.55
   3  15  -8    1.24    2.81
   3  15  -8    4.01    2.27
  -3 -15  -8    4.01    1.88
  -3 -15   8    7.28    6.78
  -3 -15   8    0.63    1.64
   3  15   8   -2.40    3.03
  -4 -15  -8    1.17    1.77
   4  15  -8    0.97    2.44
   4  15  -8    0.27    2.20
  -4 -15   8    1.47    1.45
   4  15   8   -3.83    3.08
  -8  16   8   -0.23    7.05
   7 -16  -8    4.18    2.22
  -7  16   8   11.76    6.63
  -7  16   8   -3.41    3.65
   6 -16  -8   -0.80    9.16
   6 -16  -8    6.56    2.37
  -6  16   8   -2.87    3.57
  -6  16   8    7.61    6.41
   5 -16  -8    0.30    2.00
   5 -16  -8   20.86    9.63
  -5  16   8    1.55    5.74
  -5  16   8   -2.06    3.51
   4 -16  -8  -18.25   10.20
   4 -16  -8   -2.41    2.09
  -4  16   8   -4.21    3.38
  -4  16   8   -5.38    5.49
   3 -16  -8    2.41    2.09
  -3  16   8   -6.40    3.49
   3 -16   8   -1.45    2.48
  -3  16   8   -0.33    4.88
  -2  16  -8   -2.47    2.79
   2 -16  -8    1.30    2.02
  -2  16  -8   -0.38    6.14
   2 -16  -8   -6.96   10.50
  -2  16   8   -8.73    4.53
   2 -16   8   -1.80    2.39
  -2  16   8    5.66    3.26
  -1  16  -8    0.35    5.52
   1 -16  -8  -17.87   11.37
  -1  16  -8    1.54    2.74
   1 -16  -8    0.99    2.05
  -1  16   8  -12.88    3.34
   1 -16   8    0.10    2.14
   1 -16   8   -1.89    7.08
  -1  16   8   -0.84    3.85
   0 -16  -8   -1.82    2.01
   0 -16  -8    8.50   11.93
   0  16  -8   -0.16    4.77
   0  16  -8    1.46    2.54
   0  16   8   -1.04    3.17
   0 -16   8   -3.58    1.98
   0 -16   8    3.21    7.11
   0  16   8    0.79    3.55
   1  16  -8   -5.65    2.58
  -1 -16  -8    0.10    1.95
   1  16  -8    0.14    4.30
  -1 -16  -8   -0.16   12.93
   1  16   8  -11.15    3.43
  -1 -16   8   -3.99    1.92
  -1 -16   8    2.98    7.24
   2  16  -8   -0.12    3.79
  -2 -16  -8    4.06    2.00
   2  16  -8   -2.03    2.67
   2  16   8   -5.63    3.49
  -2 -16   8   -0.82    1.89
  -3 -16  -8   -4.54    2.00
   3  16  -8    0.20    2.63
   3  16  -8   -1.38    3.68
   3  16   8    5.07    3.28
  -4 -16  -8   -5.03    2.04
  -4 -16  -8   -2.06   13.77
   4  16   8   -4.37    3.58
  -7  17   8   -0.20    7.18
  -7  17   8   10.98   10.47
   6 -17  -8    1.83    2.45
   6 -17  -8    3.67    9.93
  -6  17   8   -1.34    6.81
  -6  17   8    5.80    3.91
   5 -17  -8    0.11    2.19
   5 -17  -8    5.29   10.57
  -5  17   8  -11.99    6.34
  -5  17   8    2.87    3.85
   4 -17  -8    0.15   11.10
   4 -17  -8    0.11    2.21
  -4  17   8    4.55    3.77
  -4  17   8    9.46    5.69
  -3  17  -8   -0.65    6.83
   3 -17  -8   -1.77    2.18
   3 -17  -8    3.82   10.65
  -3  17   8    2.71    3.57
   3 -17   8    0.13    2.71
  -3  17   8   -3.79    5.21
   2 -17  -8   -2.54    2.19
   2 -17  -8  -16.42   11.37
  -2  17   8    1.51    4.69
  -2  17   8   11.17    3.76
   1 -17  -8  -10.05   12.28
  -1  17  -8   -0.85    2.92
   1 -17  -8    3.69    2.18
  -1  17  -8   -0.95    5.69
   1 -17   8   -5.58    7.72
  -1  17   8   -2.48    4.25
   1 -17   8    1.61    2.40
  -1  17   8    4.70    3.54
   0 -17  -8    0.22    2.09
   0  17  -8    4.30    5.37
   0  17  -8   -0.54    2.90
   0 -17  -8  -12.97   12.67
   0 -17   8    1.22    2.29
   0  17   8    6.65    4.00
   0  17   8   -3.52    3.52
   0 -17   8   -2.75    7.89
  -1 -17  -8    0.12    2.09
  -1 -17  -8    0.18   13.91
   1  17  -8    1.05    4.53
   1  17  -8   -1.65    2.77
  -1 -17   8   -0.44    8.26
   1  17   8   -2.61    3.59
  -1 -17   8   -0.21    2.15
   1  17   8    4.93    3.75
   2  17  -8    2.15    2.77
  -2 -17  -8    0.47    2.17
   2  17  -8   -0.13    3.92
  -2 -17   8    5.38    2.08
   2  17   8    1.81    3.78
  -2 -17   8   -5.28    8.11
  -3 -17  -8    4.05    2.24
   3  17  -8   -0.70    3.44
   3  17  -8    0.11    2.75
  -3 -17   8   -0.10    1.86
   3  17   8    6.15    3.77
  -4 -17  -8    0.38   14.85
  -4 -17  -8   -0.77    2.25
   4  17   8   -2.17    3.68
   7 -18  -8    3.87    2.71
  -7  18   8   11.83    7.54
  -7  18   8   -2.62    4.26
   6 -18  -8    0.13    2.51
   6 -18  -8    8.96   11.62
  -6  18   8   -8.57    7.12
  -6  18   8  -11.23    4.40
   5 -18  -8  -10.01    2.53
  -5  18   8    8.40    4.24
  -5  18   8    0.22    6.44
   4 -18  -8   43.74    9.88
  -4  18   8   26.27   11.16
  -4  18   8   20.70   12.45
  -3  18  -8   -0.94    7.25
   3 -18  -8   -4.75   12.29
  -3  18   8    6.17    5.87
  -3  18   8   -9.96    4.39
   2 -18  -8    1.23    2.39
   2 -18  -8    5.34   12.46
  -2  18  -8   -0.16    3.08
  -2  18  -8   -0.22    6.94
  -2  18   8   -0.17    3.91
  -2  18   8  -21.61    5.30
   2 -18   8   -5.95    2.65
  -1  18  -8   -1.62    6.17
   1 -18  -8    7.81   13.19
  -1  18  -8    3.12    3.22
   1 -18  -8   -1.73    2.42
   1 -18   8   -2.73    8.36
  -1  18   8   -3.47    4.71
  -1  18   8   -1.36    4.01
   1 -18   8   -4.30    2.47
   0 -18  -8   -1.64   14.22
   0  18  -8    0.59    3.17
   0 -18  -8    0.13    2.38
   0  18  -8   -0.55    5.74
   0  18   8   -6.35    4.07
   0 -18   8   -3.75    8.43
   0 -18   8   -0.37    2.48
   0  18   8   -1.67    4.50
   1  18  -8    0.81    5.01
  -1 -18  -8    0.13    2.46
   1  18  -8    1.13    3.14
  -1 -18   8    0.12    2.33
  -1 -18   8   -1.80    8.61
   1  18   8    2.08    4.01
   1  18   8   -8.68    4.33
  -2 -18  -8   -1.05    2.38
   2  18  -8    1.21    3.03
   2  18  -8    0.44    4.37
  -2 -18   8   -7.95    9.26
  -2 -18   8    2.39    2.30
   2  18   8  -10.76    4.44
  -3 -18  -8   -1.50    2.48
   3  18  -8   -5.04    3.12
  -4 -18  -8   85.43   30.46
   4  18   8   90.62   23.41
   6 -19  -8   -3.75    2.73
  -6  19   8    1.52    7.61
   5 -19  -8  -13.99   13.31
   5 -19  -8    1.50    2.71
  -5  19   8  -14.17    7.37
  -5  19   8   -1.56    4.93
   4 -19  -8   -6.40    2.75
   4 -19  -8  -20.26   14.13
  -4  19   8    4.78    6.70
  -4  19   8   -0.43    4.74
   3 -19  -8  -14.05   14.05
   3 -19  -8   -0.14    2.60
  -3  19   8    2.37    6.00
  -3  19   8   -4.69    4.75
   2 -19  -8   -1.90    2.63
   2 -19  -8   -1.28   14.28
  -2  19  -8   -0.48    7.33
  -2  19  -8    1.08    3.27
  -2  19   8    0.20    4.48
  -2  19   8   -0.81    5.81
   2 -19   8    2.91    2.98
   1 -19  -8    3.91    2.67
  -1  19  -8   -7.39    3.57
  -1  19  -8    0.44    6.63
   1 -19  -8   13.23   15.07
   1 -19   8    1.37    8.91
   1 -19   8   -6.46    2.74
  -1  19   8   -5.43    5.34
  -1  19   8   -7.67    4.77
   0  19  -8   -0.16    3.43
   0  19  -8    0.20    6.01
   0 -19  -8   -3.17   15.63
   0 -19  -8    2.81    2.80
   0 -19   8    0.13    2.72
   0  19   8   -4.30    4.57
   0 -19   8    8.13    9.37
   0  19   8    0.19    5.27
   1  19  -8    0.16    3.53
  -1 -19  -8    2.59    2.71
   1  19  -8    0.18    5.27
   1  19   8    2.71    4.36
  -1 -19   8   -9.29    9.76
   1  19   8   -2.83    5.20
  -1 -19   8    0.53    2.64
   2  19  -8    2.25    3.39
  -2 -19  -8    0.60    2.72
   2  19  -8   -1.11    4.69
   2  19   8    1.94    4.88
  -2 -19   8    0.13    2.38
  -3 -19  -8   -3.18    2.65
  -3 -19  -8  -29.77   18.53
   3  19   8   -7.58    5.02
  -4 -19  -8   10.16   18.82
  -4 -19  -8   -5.70    2.84
   4  19   8    4.41    4.81
  -2  20  -8    0.25    7.74
   2 -20   8    0.16    3.12
  -1  20  -8   -1.87    7.39
  -1  20  -8    0.57    3.78
   1 -20   8  -12.94    9.98
   1 -20   8   -0.31    3.03
   0  20  -8    1.09    3.93
   0  20  -8   -0.21    6.50
   0 -20   8    8.52   10.20
   0 -20   8   -1.65    3.01
   1  20  -8   -4.76    3.76
   1  20  -8    4.22    5.78
  -1 -20   8    2.03    2.72
  -1 -20   8   16.25   10.73
   2  20  -8    1.01    3.79
   0   0  -9   -0.44    1.15
   0   0   9    0.04    0.48
   1   0  -9   22.00    9.40
   0   1  -9   30.82    9.44
  -1   0   9   34.07    8.58
  -1   0   9   37.28    8.76
   0   1   9   28.98    8.66
   0  -1   9   39.40    8.71
   1   1  -9    0.20    1.23
   1  -1  -9   -0.30    0.93
   1  -1  -9    0.13    1.22
  -1  -1   9   -0.03    0.54
  -1   1   9   -0.14    0.42
  -1   1   9   -0.06    0.51
   1  -2  -9    0.75    1.25
   1  -2  -9    0.63    1.45
  -1   2   9    0.52    0.56
  -1   2   9    0.18    0.45
   2   0  -9   -0.16    1.08
  -2   0   9    0.28    0.48
  -2   0   9    0.64    0.36
   0   2   9    0.49    0.50
   2  -1  -9    0.72    0.29
   2  -1  -9    0.46    1.08
   2  -1  -9    0.61    1.27
  -2   1   9    0.55    0.49
  -2   1   9    0.57    0.38
  -2   1   9    0.64    0.48
   2  -2  -9    0.28    1.06
   2  -2  -9   -0.07    0.31
   2  -2  -9    0.61    1.67
  -2   2   9   -0.07    0.48
  -2   2   9    0.16    0.49
  -2   2   9   -0.10    0.31
   3   2  -9    5.79    1.81
   2  -3  -9    3.31    1.72
   2  -3  -9    4.38    2.46
   2  -3  -9    4.26    1.26
  -2   3   9    4.74    1.35
  -3  -2   9    4.37    1.23
  -3  -2   9    4.33    1.32
  -2   3   9    4.14    1.21
  -2   3   9    3.64    1.39
   1  -3  -9    2.00    0.79
   1  -3  -9    2.25    2.11
   1  -3  -9    2.08    1.46
  -1   3   9    3.00    1.00
  -1   3   9    2.60    0.88
  -1   3   9    2.10    0.79
   0  -3  -9   -0.16    1.58
   0   3   9   -0.19    0.51
   0  -3   9   -0.05    0.65
   3  -1  -9    1.82    0.75
   3  -1  -9    2.30    1.29
   3  -1  -9    3.19    0.73
   3  -1  -9    2.47    1.59
  -3   1   9    2.24    0.84
  -3   1   9    2.88    0.76
  -3   1   9    2.17    0.86
  -1  -3   9    2.87    0.92
  -3   1   9    3.28    0.86
   3  -2  -9    2.62    1.63
   3  -2  -9    4.38    1.17
   3  -2  -9    3.80    2.17
   2   3  -9    5.50    1.85
   3  -2  -9    4.10    1.22
  -2  -3   9    4.66    1.32
  -3   2   9    4.62    1.38
  -2  -3   9    5.04    1.20
  -3   2   9    4.87    1.31
  -3   2   9    3.10    1.19
  -2  -3   9    4.58    1.27
  -3   2   9    3.78    1.30
   3  -3  -9    0.27    0.36
   3   3  -9    0.39    0.32
   3  -3  -9   -0.05    0.22
   3   3  -9    0.36    1.36
   3  -3  -9   -1.26    0.99
   3   3  -9    0.20    0.39
   3  -3  -9    1.70    2.02
  -3   3   9   -0.19    0.26
  -3   3   9    0.31    0.74
  -3  -3   9   -0.13    0.21
  -3   3   9    0.36    0.43
  -3  -3   9   -0.07    1.18
  -3  -3   9    0.14    0.54
  -3   3   9    0.76    0.56
   3  -4  -9   12.57    2.97
   3  -4  -9    8.97    2.58
   3  -4  -9   16.98    3.68
   3  -4  -9    6.72    2.65
  -3   4   9    7.81    2.72
  -3   4   9   11.65    2.90
  -4  -3   9    8.63    3.14
  -3   4   9    8.59    2.71
  -4  -3   9    7.96    2.67
  -3   4   9    8.44    2.60
   2  -4  -9    0.38    0.42
   4   2  -9    0.21    0.33
   2  -4  -9    0.63    1.15
   2  -4  -9    7.74    2.40
  -2   4   9   -0.11    0.71
  -2   4   9    0.11    0.26
  -4  -2   9    0.24    0.37
  -2   4   9    0.25    0.52
  -4  -2   9    0.10    0.49
   4   1  -9    3.69    1.21
   1  -4  -9    4.17    1.33
  -1   4   9    4.61    1.30
  -1   4   9    4.49    1.50
  -4  -1   9    5.45    1.24
  -4  -1   9    3.42    1.32
   0   4  -9    1.44    1.80
   0  -4  -9   -0.03    0.49
   4   0  -9    0.05    0.29
   0  -4   9   -0.04    0.68
   0  -4   9    0.48    0.74
  -4   0   9   -0.06    0.31
   0   4   9   -0.42    0.90
   1   4  -9    5.11    2.21
   4  -1  -9    5.27    1.39
  -1  -4   9    3.24    1.53
  -1  -4   9    3.91    1.47
  -1  -4   9    5.91    1.42
   2   4  -9    0.47    0.50
   2   4  -9   -0.84    1.48
   4  -2  -9   -0.07    0.36
  -4   2   9    0.11    0.41
  -4   2   9    0.12    0.57
  -2  -4   9    0.06    0.48
  -2  -4   9    0.15    0.33
  -2  -4   9    0.13    0.60
  -2  -4   9    0.74    1.79
   4  -3  -9    6.23    2.55
   3   4  -9    9.97    2.70
   3   4  -9    9.79    3.16
   4  -3  -9   10.69    2.64
   3   4  -9    8.69    2.72
   4  -3  -9    9.15    3.73
  -3  -4   9    9.53    2.54
  -4   3   9   10.85    2.58
  -4   3   9    7.65    2.67
  -3  -4   9   11.63    2.62
  -3  -4   9    9.85    2.66
  -3  -4   9    8.17    3.50
  -4   3   9    8.89    2.78
   4   4  -9   -0.43    0.35
   4  -4  -9    0.09    0.52
   4   4  -9   -0.10    1.48
   4  -4  -9    0.04    0.26
  -4   4   9   -0.24    0.43
  -4  -4   9   -0.23    0.40
  -4   4   9    0.02    0.31
  -4   4   9    1.13    0.73
  -4  -4   9   -0.51    0.57
  -4  -4   9    0.18    1.64
   4  -5  -9   14.18    4.22
   5   4  -9   13.64    4.07
  -5  -4   9   17.57    5.22
  -4   5   9   13.28    4.40
  -5  -4   9   13.78    4.28
  -5  -4   9   16.79    4.11
  -4   5   9   17.38    4.36
   3  -5  -9   26.06    6.63
   3  -5  -9   25.23    7.17
  -3   5   9   25.59    6.80
  -3   5   9   19.57    6.67
  -5  -3   9   22.91    6.71
  -3   5   9   27.29    6.74
  -5  -3   9   24.86    7.87
   2  -5  -9   11.86    4.13
   2  -5  -9   14.75    3.43
  -2   5   9   15.01    3.67
  -5  -2   9    9.55    3.57
  -2   5   9   12.17    3.46
   5   1  -9    8.26    2.31
   1  -5  -9    9.72    3.99
  -1   5   9    6.60    2.39
  -5  -1   9    8.84    2.45
  -5  -1   9    9.81    2.34
   0  -5  -9   17.67    5.28
   0  -5  -9   15.52    4.06
   0   5  -9   10.82    4.78
  -5   0   9   16.26    3.95
   0   5   9   15.88    4.37
   0  -5   9   13.63    4.12
   0   5   9    7.20    4.13
   0  -5   9   18.75    4.05
   5  -1  -9    9.76    2.28
   1   5  -9   11.05    3.15
  -1  -5  -9    8.79    3.51
   1   5  -9    7.69    2.50
  -5   1   9    8.95    2.32
  -1  -5   9    8.21    2.48
  -1  -5   9    9.06    2.38
   1   5   9    3.89    2.83
  -1  -5   9    6.67    2.39
   5  -2  -9   14.58    3.53
   2   5  -9   11.72    3.66
   2   5  -9   11.95    4.11
   2   5  -9   13.64    3.67
  -2  -5   9   10.49    3.42
  -2  -5   9    9.54    3.39
  -2  -5   9   15.02    3.54
  -5   2   9   10.21    3.47
  -2  -5   9   16.10    4.82
   3   5  -9   20.48    6.50
   3   5  -9   16.37    5.88
   3   5  -9   18.27    5.92
   5  -3  -9   25.84    5.85
  -3  -5   9   22.19    5.71
  -3  -5   9   24.35    7.08
  -3  -5   9   19.67    5.51
  -3  -5   9   15.32    5.77
   4   5  -9   13.49    4.67
   4   5  -9   13.40    4.29
   4   5  -9   13.11    3.77
  -5   4   9   22.13    4.17
  -4  -5   9   12.91    4.02
  -4  -5   9    6.90    5.05
  -4  -5   9   16.91    3.81
  -4  -5   9   13.67    4.01
   5   5  -9    0.40    0.43
   5  -5  -9   -2.12    0.71
  -5   5   9    0.44    1.08
  -5   5   9   -1.11    0.51
  -5  -5   9   -0.80    0.69
  -5  -5   9   -6.24    2.34
  -5  -5   9   -0.43    0.47
   5  -6  -9    0.05    3.49
   6   5  -9    1.48    0.58
   5  -6  -9    0.85    0.85
  -5   6   9    2.94    1.26
  -6  -5   9    1.05    0.80
  -5   6   9    1.92    0.69
  -6  -5   9    2.32    2.28
  -6  -5   9    0.79    0.68
   6   4  -9   22.08    5.67
   4  -6  -9   23.63    5.98
   4  -6  -9    7.64    7.32
  -4   6   9   26.14    6.12
  -6  -4   9   21.16    7.45
  -4   6   9   22.65    6.17
  -6  -4   9   26.80    5.76
  -6  -4   9   18.49    5.98
   3  -6  -9   43.01    8.65
  -3   6   9   24.22    8.75
  -3   6   9   31.18    8.77
  -3   6   9   21.97    9.33
  -3   6   9   32.91    8.94
   2  -6  -9   16.59    4.40
   2  -6  -9   14.12    5.14
   6   2  -9   15.02    4.26
   2  -6  -9   16.24    4.36
  -2   6   9   14.69    4.67
  -2   6   9   16.02    4.38
  -6  -2   9   17.73    4.46
   6   1  -9   10.84    2.51
   1  -6  -9   10.09    2.61
   1  -6  -9    8.45    4.67
  -1   6   9    9.11    2.80
  -6  -1   9    9.26    2.57
   1  -6   9    8.51    2.76
  -6  -1   9    8.66    2.64
  -1   6   9    8.12    2.55
   6   0  -9   -0.03    0.39
   0  -6  -9   -0.04    0.61
   0   6  -9   -0.92    2.11
   0  -6  -9   -1.94    3.38
   0  -6   9   -0.10    0.83
   0  -6   9   -0.30    0.79
  -6   0   9   -0.15    0.53
  -6   0   9    0.25    0.44
   0   6   9   -0.30    1.02
   0   6   9    0.26    0.50
  -1  -6  -9    9.53    2.64
  -1  -6  -9   10.94    4.15
   1   6  -9    9.13    3.41
   6  -1  -9   10.14    2.52
  -1  -6   9    8.34    2.60
  -1  -6   9    6.97    2.56
  -6   1   9   11.65    2.63
  -6   1   9    7.88    2.57
   1   6   9    7.49    3.00
  -1  -6   9    9.49    2.71
   2   6  -9   19.11    5.17
   2   6  -9   15.14    5.62
   2   6  -9   16.16    5.17
   6  -2  -9   15.65    4.92
  -2  -6   9   19.45    4.87
  -2  -6   9   17.63    4.91
  -2  -6   9   24.34    6.24
  -2  -6   9   18.68    5.03
   3   6  -9   29.19   10.33
   3   6  -9   50.72   11.12
  -6   3   9   30.61   10.35
  -3  -6   9   40.72   10.19
  -3  -6   9   38.42    9.84
  -3  -6   9   32.75   10.04
   4   6  -9   17.38    6.19
   4   6  -9   26.10    7.31
   4   6  -9   25.39    6.74
  -4  -6   9   26.05    6.23
  -4  -6   9   22.09    6.50
  -4  -6   9   17.52    6.52
  -4  -6   9   27.82    7.74
   5   6  -9    0.82    0.57
   6  -5  -9    0.80    0.86
  -5  -6   9    1.36    0.62
  -5  -6   9    1.74    0.84
   6   6  -9   -0.35    0.50
   6  -6  -9   -0.51    0.86
  -6  -6   9   -0.20    0.81
  -6  -6   9   -0.07    0.61
  -6   6   9    0.36    0.55
   6  -7  -9   -0.23    0.92
   7   6  -9   -0.05    0.56
  -6   7   9   -0.79    1.45
  -7  -6   9   -1.38    0.67
  -7  -6   9   -0.13    0.86
   7   5  -9    7.52    2.15
   5  -7  -9    4.88    4.56
   5  -7  -9    7.58    2.34
  -5   7   9    9.18    2.60
  -7  -5   9    8.79    2.23
  -7  -5   9    6.81    2.30
   4  -7  -9    0.42    0.76
   7   4  -9   -0.05    0.51
   4  -7  -9   -0.79    3.47
  -4   7   9   -1.03    1.94
  -4   7   9    0.26    1.12
  -7  -4   9   -0.29    0.64
  -7  -4   9   -0.23    0.70
   3  -7  -9   58.77   17.00
   3  -7  -9   54.14   19.22
  -3   7   9   67.12   17.25
  -3   7   9   64.45   18.44
   2  -7  -9    2.59    4.08
   7   2  -9    0.47    0.54
   2  -7  -9    1.34    0.70
  -7  -2   9    0.72    0.65
  -2   7   9    0.14    1.30
  -7  -2   9    0.54    0.61
   1  -7  -9   21.37    5.34
   7   1  -9   19.74    5.26
   1  -7   9   23.29    5.44
  -1   7   9   17.36    5.56
   1  -7   9   19.67    5.44
  -7  -1   9   16.45    5.39
   0  -7  -9   -0.45    0.74
   0   7  -9   -1.18    1.00
   0   7  -9   -0.70    2.38
   0   7   9   -0.27    1.10
   0  -7   9   -1.61    0.91
   0  -7   9   -0.71    0.91
   0  -7   9   -1.02    1.05
   0   7   9   -0.21    0.44
  -7   0   9    0.03    0.58
   1   7  -9   18.57    5.25
  -1  -7  -9   16.68    4.94
   1   7  -9   15.61    5.86
  -1  -7  -9   18.60    6.83
  -1  -7   9   17.94    4.92
   1   7   9   16.69    5.35
  -1  -7   9   19.84    5.06
  -1  -7   9   16.15    4.84
  -7   1   9   17.97    4.97
   2   7  -9    0.40    2.06
   2   7  -9    0.82    0.91
  -2  -7  -9    1.40    3.34
  -2  -7   9    5.51    2.83
  -7   2   9    1.14    0.64
   2   7   9    1.22    1.39
  -2  -7   9    1.16    0.92
  -2  -7   9    1.00    0.68
   3   7  -9   63.78   20.20
  -3  -7   9   67.06   17.66
  -3  -7   9   65.69   18.48
   4   7  -9    0.26    2.10
   4   7  -9   -0.26    0.49
  -4  -7   9   -0.09    0.52
  -4  -7   9    0.57    0.83
   5   7  -9    6.65    2.16
   7  -5  -9    8.29    2.37
  -5  -7   9    9.69    2.19
  -5  -7   9    5.83    2.35
  -5  -7   9    8.02    4.00
   6   7  -9    1.12    0.55
   7  -6  -9    0.38    0.93
  -6  -7   9   -0.34    0.66
  -6  -7   9   -0.08    0.85
   7   7  -9    0.48    0.65
   7  -7  -9    1.35    1.09
  -7  -7   9   -0.14    0.96
  -7  -7   9    0.99    0.75
   8   7  -9   10.81    2.84
   7  -8  -9   10.20    3.07
  -8  -7   9    8.92    2.96
  -8  -7   9    9.95    2.87
   8   6  -9    2.88    0.99
   6  -8  -9    5.33    4.63
   6  -8  -9    3.40    1.29
  -6   8   9    1.77    1.75
  -8  -6   9    2.02    1.13
   8   5  -9   -0.45    0.59
   5  -8  -9   -0.51    0.96
   5  -8  -9   -1.89    4.38
  -8  -5   9    0.25    0.81
  -5   8   9    1.06    1.42
   4  -8  -9    0.95    0.92
   4  -8  -9    0.52    4.08
   8   4  -9   -0.05    0.67
  -4   8   9    1.73    2.35
  -8  -4   9    1.86    0.86
  -4   8   9    2.50    1.32
   3  -8  -9    0.48    0.85
   3  -8  -9    7.66    4.45
  -3   8   9    0.74    1.91
  -3   8   9    1.18    1.19
   2  -8  -9   12.56    5.83
   2  -8  -9   10.07    3.17
  -2   8   9   11.38    3.61
   1  -8  -9    3.71    1.60
   1  -8  -9    5.97    4.99
   1  -8   9    7.09    1.81
   1  -8   9    7.85    1.86
  -1   8   9    3.49    1.94
   0   8  -9    1.12    2.46
   0   8  -9    0.63    1.03
   0  -8  -9   -1.53    4.72
   0  -8  -9    0.13    0.74
   0  -8   9    3.60    3.51
   0  -8   9   -0.16    0.99
   0  -8   9    0.76    0.96
   0  -8   9   -1.23    0.97
   0   8   9   -0.89    1.19
   1   8  -9    3.26    1.76
  -1  -8  -9    2.95    4.86
  -1  -8  -9    4.65    1.55
   1   8  -9    2.74    2.82
  -1  -8   9    3.85    1.68
  -1  -8   9    4.77    1.52
   1   8   9    7.64    1.95
  -1  -8   9    7.02    1.55
  -1  -8   9    0.88    3.79
   2   8  -9    6.96    3.65
   2   8  -9   11.63    3.47
   2   8  -9   12.13    4.22
  -2  -8  -9   14.40    5.68
  -2  -8  -9   14.05    3.33
  -2  -8   9   12.43    3.22
  -2  -8   9   13.22    3.41
   2   8   9    9.55    3.75
  -2  -8   9   12.11    3.17
  -2  -8   9    6.35    4.83
   3   8  -9    1.72    2.28
   3   8  -9    0.85    0.57
   3   8  -9    0.22    0.90
   3   8  -9    0.08    1.28
  -3  -8   9    0.85    0.93
  -3  -8   9    0.97    0.69
  -3  -8   9    1.67    3.10
  -3  -8   9    1.05    0.61
   4   8  -9    1.31    0.99
   4   8  -9    1.36    0.63
   4   8  -9    0.80    1.20
   4   8  -9    0.37    2.38
  -4  -8   9    1.96    1.03
  -4  -8   9    1.74    0.77
  -4  -8   9    1.64    3.57
  -4  -8   9    1.33    0.68
   5   8  -9   -0.09    0.61
   5   8  -9    0.14    1.22
   5   8  -9    0.24    2.38
  -5  -8   9    0.25    0.64
  -5  -8   9   -1.80    3.60
  -5  -8   9    0.49    0.78
  -5  -8   9    0.18    0.96
   6   8  -9    2.25    0.87
  -6  -8   9    2.13    1.13
  -6  -8   9    1.80    0.87
   7   8  -9   10.85    2.97
  -7  -8   9   11.77    3.02
  -7  -8   9    9.29    3.15
   8   8  -9   -1.12    0.77
  -8  -8   9   -0.30    1.03
   8  -9  -9   11.71    3.58
   7  -9  -9    0.18    1.25
   5  -9  -9    2.66    1.31
   5  -9  -9   -1.41    4.99
  -5   9   9    3.54    1.76
   4  -9  -9    5.57    1.60
   4  -9  -9   -1.21    4.67
  -4   9   9    4.29    1.92
  -4   9   9    5.22    2.94
   3  -9  -9    0.73    0.94
   3  -9  -9    3.32    4.73
  -3   9   9    2.80    2.12
  -3   9   9   -0.06    1.33
   2  -9  -9    1.92    0.98
   2  -9  -9   -3.19    5.14
  -2   9   9    3.16    1.83
  -2   9   9    0.64    1.33
   1  -9  -9   -2.87    5.25
   1  -9  -9    1.35    0.86
   1  -9   9   -0.19    1.12
   1  -9   9    0.99    1.14
  -1   9   9    1.73    1.53
   0  -9  -9    2.19    5.51
   0   9  -9    0.87    2.66
   0   9  -9    0.32    1.24
   0  -9  -9   -0.09    0.91
   0  -9   9   -0.57    1.02
   0  -9   9    0.24    3.89
   0  -9   9    1.19    0.90
   0  -9   9   -0.12    1.10
   0   9   9    0.72    1.36
   1   9  -9    0.55    1.12
  -1  -9  -9   -0.10    0.91
  -1  -9  -9    1.58    5.48
   1   9  -9    1.44    2.67
  -1  -9   9   -0.41    0.77
  -1  -9   9   -3.07    3.87
  -1  -9   9    0.76    1.05
   1   9   9    1.22    1.43
  -1  -9   9    0.22    0.93
   2   9  -9    0.36    2.43
  -2  -9  -9   -0.95    5.00
   2   9  -9   -0.63    1.77
   2   9  -9    0.33    1.09
  -2  -9  -9    0.06    0.96
   2   9   9   -0.15    1.64
  -2  -9   9    1.19    1.09
  -2  -9   9    0.68    0.68
  -2  -9   9   -0.93    3.45
  -2  -9   9    0.68    0.81
   3   9  -9   -1.41    2.47
   3   9  -9    0.45    0.55
   3   9  -9    0.69    1.39
   3   9  -9    0.47    1.02
  -3  -9   9    0.23    0.62
  -3  -9   9    0.51    0.75
  -3  -9   9    0.89    1.05
  -3  -9   9   -1.33    3.52
   4   9  -9    5.57    1.93
   4   9  -9    7.48    1.50
   4   9  -9    5.21    2.98
   4   9  -9    3.86    1.76
  -4  -9   9    6.91    4.19
  -4  -9   9    3.26    1.81
  -4  -9   9    4.31    1.60
  -4  -9   9    4.56    1.49
   5   9  -9    4.18    1.17
   5   9  -9    2.60    1.72
   5   9  -9    5.33    2.84
  -5  -9   9    3.77    1.20
  -5  -9   9    4.55    1.49
  -5  -9   9    3.31    4.31
  -5  -9   9    2.42    1.35
   6   9  -9    0.59    0.72
  -6  -9   9    0.08    0.74
  -6  -9   9    0.20    1.06
   7   9  -9    1.15    0.80
  -7  -9   9    0.05    0.83
  -7  -9   9    0.72    1.08
   8   9  -9   12.78    3.40
  -8  -9   9   11.34    3.56
  -9  -9   9    0.17    1.19
   8 -10  -9    0.07    1.39
   7 -10  -9    0.92    1.42
  -7  10   9    3.10    2.11
   6 -10  -9    7.96    2.68
   6 -10  -9   13.62    6.12
  -6  10   9    6.04    3.12
   5 -10  -9   -0.29    1.18
   5 -10  -9   -1.40    5.51
  -5  10   9   -0.17    1.78
  -5  10   9   -1.58    3.39
   4 -10  -9    3.03    1.48
  -4  10   9   14.55    3.40
  -4  10   9    1.20    1.92
   3 -10  -9   -9.96    5.45
   3 -10  -9    1.14    1.06
  -3  10   9    2.86    2.46
  -3  10   9   -0.98    1.57
   2 -10  -9   -3.78    5.87
   2 -10  -9   -0.26    0.98
   2 -10   9   -0.99    1.40
  -2  10   9   -0.26    1.48
  -2  10   9   -1.26    2.17
   1 -10  -9    3.01    1.34
   1 -10  -9   -3.96    6.32
  -1  10  -9    3.23    1.67
  -1  10   9    4.04    2.02
   1 -10   9    2.89    1.48
   1 -10   9    4.82    1.59
   0 -10  -9    3.63    6.37
   0  10  -9    0.29    2.88
   0  10  -9    0.21    1.37
   0 -10  -9    0.05    0.95
   0 -10   9   -0.62    1.20
   0 -10   9    0.15    1.00
   0  10   9    1.68    1.57
   0 -10   9    1.43    4.13
   0 -10   9   -2.58    1.09
   1  10  -9    7.30    2.67
  -1 -10  -9    1.11    6.44
  -1 -10  -9    3.60    1.45
   1  10  -9    3.67    1.76
   1  10  -9    3.25    3.10
  -1 -10   9    3.80    1.46
   1  10   9    4.39    1.97
  -1 -10   9    4.32    1.63
  -1 -10   9    3.58    1.31
  -1 -10   9    1.23    4.39
   2  10  -9    2.76    2.03
  -2 -10  -9   -0.51    6.00
   2  10  -9    0.59    1.24
  -2 -10  -9   -0.67    1.03
   2  10  -9   -2.48    2.69
  -2 -10   9    0.40    0.68
   2  10   9    3.27    1.79
  -2 -10   9    1.62    3.84
  -2 -10   9    0.51    1.22
  -2 -10   9    0.04    0.91
   3  10  -9    0.44    1.21
  -3 -10  -9   -2.39    5.64
   3  10  -9    1.85    2.69
   3  10  -9   -0.96    0.64
   3  10  -9    1.07    1.65
  -3 -10   9   -0.38    3.98
  -3 -10   9    0.59    0.83
  -3 -10   9    0.38    1.14
   3  10   9    0.27    1.77
  -3 -10   9    0.21    0.65
   4  10  -9    2.07    2.94
   4  10  -9    0.72    1.25
   4  10  -9    2.16    0.78
   4  10  -9    1.52    1.51
  -4 -10   9   -3.12    4.50
  -4 -10   9    1.13    1.03
  -4 -10   9    2.52    0.83
  -4 -10   9    1.36    1.28
   5  10  -9    0.11    1.50
   5  10  -9   -0.06    2.86
   5  10  -9    0.52    0.70
  -5 -10   9   -0.10    0.97
  -5 -10   9    0.47    0.72
  -5 -10   9    0.72    1.17
   6  10  -9   10.04    2.53
   6  10  -9   10.91    4.08
  -6 -10   9    7.29    2.54
  -6 -10   9    8.77    2.84
   7  10  -9    5.32    1.38
  -7 -10   9    3.75    1.67
  -7 -10   9    3.29    1.41
   8  10  -9    1.43    0.95
  -8 -10   9    0.17    1.22
   8 -11  -9   -0.08    1.49
   7 -11  -9    0.07    1.43
  -7  11   9    1.06    2.28
   6 -11  -9    3.82    6.03
   6 -11  -9    0.47    1.39
  -6  11   9   -0.11    2.14
   5 -11  -9    0.06    1.30
   5 -11  -9   -1.94    6.25
  -5  11   9   -0.56    1.95
  -5  11   9    6.51    3.97
   4 -11  -9    1.16    5.94
   4 -11  -9    1.03    1.26
  -4  11   9    0.56    3.26
  -4  11   9   -1.10    1.90
   3 -11  -9   -3.72    6.21
   3 -11  -9   -1.47    1.21
  -3  11   9   -0.96    2.80
  -3  11   9    0.16    1.77
   2 -11  -9    7.43    2.19
   2 -11   9    6.24    2.36
  -2  11   9    6.73    2.57
  -2  11   9   10.14    3.13
   2 -11   9    4.16    2.41
  -1  11  -9   -1.03    1.59
   1 -11   9   -0.47    1.13
  -1  11   9   -4.54    2.23
   1 -11   9   -1.41    1.37
   0  11  -9   14.21    4.25
   0  11  -9   11.89    3.07
   0 -11  -9    3.70    2.88
   0 -11   9   -1.11    5.48
   0 -11   9    9.55    2.61
   0 -11   9   17.23    2.83
   0  11   9    0.35    3.44
   1  11  -9   -0.18    2.77
   1  11  -9   -0.88    1.52
   1  11  -9   -0.56    3.20
   1  11   9   -6.10    2.11
  -1 -11   9    0.66    0.83
  -1 -11   9   -8.24    5.19
  -1 -11   9    1.09    1.16
  -1 -11   9    0.38    1.31
   2  11  -9    6.70    1.78
   2  11  -9    8.30    3.52
   2  11  -9    6.63    2.24
   2  11  -9    8.76    2.90
  -2 -11  -9    0.59    7.49
  -2 -11  -9    7.17    2.03
   2  11   9    8.78    2.63
  -2 -11   9   -1.14    4.64
  -2 -11   9    3.94    1.79
  -2 -11   9    6.64    1.97
  -2 -11   9    5.46    2.20
   3  11  -9    0.17    1.36
   3  11  -9    3.81    2.98
  -3 -11  -9    0.76    6.74
   3  11  -9    0.06    1.84
  -3 -11  -9   -0.07    1.24
   3  11  -9   -0.24    0.63
  -3 -11   9   -2.05    4.77
   3  11   9    0.77    2.04
  -3 -11   9    0.10    0.97
  -3 -11   9    0.36    1.35
  -3 -11   9    0.04    0.66
   4  11  -9   -1.36    2.98
   4  11  -9   -0.10    1.34
   4  11  -9    0.44    1.61
   4  11  -9   -0.86    0.70
  -4 -11   9    0.18    1.33
  -4 -11   9   -0.83    4.93
  -4 -11   9   -0.52    0.71
  -4 -11   9    0.05    0.95
   5  11  -9    3.20    3.20
   5  11  -9    1.49    0.84
   5  11  -9    2.19    1.70
  -5 -11   9    1.24    0.80
  -5 -11   9    0.61    1.44
   6  11  -9    1.47    0.91
   6  11  -9    8.54    3.42
  -6 -11   9    1.92    0.99
  -6 -11   9    1.17    1.51
   7  11  -9    1.25    0.93
   7  11  -9    4.77    3.37
  -7 -11   9   -0.50    0.96
  -7 -11   9    1.63    1.35
  -8 -11   9    0.24    1.36
   8 -12  -9   -0.08    1.67
   5 -12  -9    0.07    1.42
  -5  12   9    3.42    4.23
   4 -12  -9   -0.07    1.38
  -4  12   9   -3.62    3.77
  -4  12   9    4.06    2.01
  -3  12   9    1.63    3.24
  -3  12   9    1.89    2.04
   2 -12  -9    2.45    7.46
   2 -12  -9    0.06    1.31
  -2  12   9    1.20    2.15
   2 -12   9    0.34    1.69
  -2  12   9    3.43    2.74
   1 -12  -9   10.85    9.22
  -1  12  -9   16.77    4.49
   1 -12  -9   15.45    4.03
  -1  12   9   19.51    4.64
   1 -12   9   -1.73    6.86
   1 -12   9   13.34    4.13
   0  12  -9    0.51    1.75
   0  12  -9   -0.68    3.59
   0 -12  -9    0.10    8.20
   0 -12  -9    0.07    1.29
   0 -12   9    2.21    1.52
   0  12   9    1.52    2.09
   0 -12   9   -2.15    5.15
  -1 -12  -9   15.95    4.21
   1  12  -9   14.16    4.58
   1  12  -9   15.43    5.30
  -1 -12   9   14.29    4.24
   1  12   9   19.09    4.65
  -1 -12   9    4.41    6.91
   2  12  -9   -0.05    0.72
   2  12  -9    2.37    1.67
   2  12  -9    0.89    2.41
   2  12  -9    1.17    3.32
  -2 -12  -9    2.06    1.37
  -2 -12   9    1.99    1.18
  -2 -12   9    0.48    4.67
   2  12   9    0.27    2.04
   3  12  -9    1.33    1.64
   3  12  -9    3.59    3.26
   3  12  -9    1.37    0.80
   3  12  -9    4.22    2.15
  -3 -12   9    1.12    4.89
  -3 -12   9   -0.65    1.48
  -3 -12   9    2.09    1.26
   4  12  -9   -2.65    3.27
   4  12  -9   -0.48    1.52
   4  12  -9    0.33    0.72
   4  12  -9   -0.06    1.75
  -4 -12   9    0.67    5.09
  -4 -12   9    0.08    0.71
  -4 -12   9    1.64    1.09
  -4 -12   9   -0.13    1.51
   5  12  -9    1.93    3.40
   5  12  -9   -0.30    0.78
  -5 -12   9    0.54    1.48
  -5 -12   9    0.97    0.83
   6  12  -9   -1.07    3.53
   6  12  -9   -0.60    0.86
  -6 -12   9   -0.95    1.55
  -6 -12   9   -0.77    0.92
   7  12  -9   -4.93    3.79
   7  12  -9   -0.45    0.99
  -7 -12   9    0.13    1.49
  -7 -12   9   -0.23    0.96
  -9 -12   9    0.67    1.42
   8 -13  -9    1.32    1.83
   7 -13  -9    1.09    1.73
  -7  13   9   -2.20    2.63
   6 -13  -9   -7.53    7.19
   6 -13  -9   -2.39    1.79
  -6  13   9   -0.38    2.64
  -6  13   9   -4.38    5.00
   5 -13  -9    0.46    1.63
  -5  13   9    0.58    2.41
  -5  13   9    1.51    4.66
   4 -13  -9    8.13    2.18
  -4  13   9    1.91    2.91
   3 -13  -9    0.74    7.65
  -3  13   9    2.12    2.27
   2 -13   9    4.21    2.16
  -2  13   9    1.55    2.60
   1 -13  -9  -11.12    9.01
  -1  13  -9    2.33    2.01
  -1  13   9   -0.10    2.25
   1 -13   9   -3.74    5.54
   1 -13   9   -0.75    1.75
   0  13  -9   11.29    4.33
   0 -13  -9   10.10    9.31
   0  13  -9    0.09    2.58
   0 -13   9    3.89    5.73
   0 -13   9    8.92    2.26
   1  13  -9   -2.42    1.86
  -1 -13  -9  -12.62    9.73
   1  13  -9   -1.40    3.35
  -1 -13   9    0.34    1.42
  -1 -13   9   -3.99    5.69
  -2 -13  -9    9.45    2.42
   2  13  -9    3.88    3.43
   2  13  -9    4.99    2.70
  -2 -13  -9    8.64    9.55
   2  13   9   14.44    3.04
  -2 -13   9    5.45    2.32
  -2 -13   9    2.60    5.49
   3  13  -9    1.00    1.74
  -3 -13  -9   -2.30    1.45
   3  13  -9    0.76    2.23
  -3 -13  -9  -18.11    9.36
  -3 -13   9    2.10    1.27
  -3 -13   9   -0.13    5.52
   3  13   9    2.19    2.44
   4  13  -9   -2.83    1.81
   4  13  -9   -0.07    2.16
   8 -14  -9    1.05    1.93
   7 -14  -9    0.09    1.85
   7 -14  -9   -3.59    7.77
  -7  14   9    0.74    5.69
  -7  14   9    4.35    2.87
   6 -14  -9   -8.14    7.90
   6 -14  -9    0.52    1.74
  -6  14   9    2.80    5.28
  -6  14   9   -2.08    2.83
   5 -14  -9   -3.28    8.16
   5 -14  -9   -0.59    1.72
  -5  14   9    7.90    5.13
  -5  14   9    1.15    2.73
   4 -14  -9    2.00    1.78
   4 -14  -9    2.33    7.81
  -4  14   9   -3.76    4.55
  -4  14   9    1.08    2.62
   3 -14  -9    0.08    1.65
   3 -14  -9   16.86    8.68
  -3  14   9   -2.28    2.66
  -3  14   9   -7.36    4.21
   2 -14  -9    0.98    2.10
   2 -14  -9    8.06    9.25
   2 -14   9   13.17    2.29
  -2  14   9    1.11    2.88
  -2  14   9   -2.85    3.87
   1 -14  -9   -1.37    1.81
  -1  14   9   -2.54    2.92
  -1  14   9   -0.98    3.17
   0 -14  -9   -1.39    1.75
   0  14   9   -3.79    2.83
  -1 -14  -9    0.17    1.62
   1  14  -9    1.52    3.69
  -1 -14  -9   -9.08   11.04
   1  14   9    2.64    2.60
  -2 -14  -9    1.22    1.85
  -2 -14  -9   12.72   10.82
   2  14  -9   -0.30    3.26
   2  14   9    7.79    2.80
  -2 -14   9    3.31    1.78
   3  14  -9   -0.09    2.60
  -3 -14  -9    0.69   10.58
  -3 -14  -9    0.28    1.52
   3  14   9   -1.67    2.62
  -3 -14   9    0.90    1.38
   4  14   9   -1.03    2.56
   8 -15  -9    4.58    2.48
  -8  15   9    3.76    6.72
   7 -15  -9    1.85    1.98
   7 -15  -9  -11.21    8.38
  -7  15   9   -3.82    6.24
  -7  15   9   -2.29    3.08
   6 -15  -9   14.03    8.87
   6 -15  -9    0.47    1.95
  -6  15   9   -1.68    3.09
  -6  15   9   -1.72    6.10
   5 -15  -9    0.65    1.84
   5 -15  -9  -11.90    9.12
  -5  15   9   -0.43    3.03
  -5  15   9    1.59    5.23
   4 -15  -9   -4.57    1.89
   4 -15  -9   10.29    9.02
  -4  15   9    0.27    3.07
  -4  15   9   -2.76    4.90
   3 -15  -9    0.23    8.87
   3 -15  -9   -3.46    1.88
  -3  15   9    1.15    2.96
  -3  15   9    1.93    4.31
   2 -15  -9    0.45    1.76
   2 -15  -9   -4.13    9.50
  -2  15   9    8.95    3.95
   2 -15   9    0.75    2.18
  -2  15   9   -0.12    3.04
  -1  15  -9    0.82    5.27
   1 -15  -9    0.09    1.90
   1 -15  -9   20.87   10.94
  -1  15  -9    0.12    2.40
   1 -15   9    5.82    6.57
  -1  15   9   -0.72    3.19
   1 -15   9    0.10    2.01
  -1  15   9    3.45    3.49
   0 -15  -9    3.54   11.16
   0  15  -9    0.15    4.48
   0 -15  -9   -0.18    1.82
   0  15  -9    0.11    2.28
   0  15   9    4.75    3.04
   0 -15   9    1.85    6.38
   0  15   9   -0.36    2.97
   0 -15   9   -2.91    1.94
  -1 -15  -9    9.66   11.75
  -1 -15  -9    0.57    1.76
   1  15  -9    0.13    3.95
   1  15  -9    0.10    2.31
  -1 -15   9    0.51    1.68
  -1 -15   9    0.71    6.54
   1  15   9    0.47    2.97
  -2 -15  -9   -2.12    1.72
  -2 -15  -9    3.78   11.75
   2  15  -9    0.57    2.18
   2  15  -9   -0.11    3.16
  -2 -15   9    1.13    1.57
   2  15   9    0.48    2.83
  -2 -15   9    3.37    6.50
   3  15  -9    0.09    2.19
   3  15  -9    2.16    2.64
  -3 -15  -9    0.10    1.74
  -3 -15  -9  -18.01   11.95
   3  15   9    1.71    2.98
  -3 -15   9    7.07    1.61
   4  15   9    2.93    3.12
   8 -16  -9    3.23    2.60
  -8  16   9   14.00    7.09
   7 -16  -9   -0.11    2.08
   7 -16  -9    2.20    9.21
  -7  16   9   -5.39    3.64
  -7  16   9   12.73    6.66
   6 -16  -9  -10.02    9.48
   6 -16  -9    0.31    2.07
  -6  16   9   -1.36    3.51
  -6  16   9   -0.41    6.13
   5 -16  -9   -2.36    2.04
   5 -16  -9   -2.40    9.67
  -5  16   9    3.85    5.62
  -5  16   9   -5.91    3.53
   4 -16  -9  -13.38    9.90
   4 -16  -9   -1.21    2.04
  -4  16   9   -4.03    5.38
  -4  16   9    0.15    3.45
   3 -16  -9   -9.06    2.19
  -3  16   9    0.32    4.84
  -3  16   9    2.59    3.30
   2 -16  -9    9.81    2.46
  -2  16  -9    0.19    6.10
  -2  16   9   -0.70    3.61
   2 -16   9    3.93    2.67
  -2  16   9    3.74    4.66
  -1  16  -9   -2.87    2.81
   1 -16  -9   -5.24    2.11
  -1  16  -9    1.76    5.47
   1 -16   9  -18.44    7.82
  -1  16   9   -6.34    3.43
   1 -16   9   -0.11    2.20
  -1  16   9   -3.43    3.98
   0  16  -9   -2.08    2.73
   0 -16  -9   -1.96    2.01
   0  16  -9    0.16    5.09
   0 -16   9   -3.71    2.12
   0  16   9    0.13    3.51
   0  16   9   -3.68    3.33
  -1 -16  -9  -27.13   13.58
   1  16  -9   -3.08    2.78
  -1 -16  -9   -5.05    2.01
   1  16  -9   -0.14    4.57
  -1 -16   9    2.18    2.00
   1  16   9   -7.36    3.57
  -2 -16  -9    0.11    2.00
   2  16  -9    2.05    2.82
   2  16  -9   -0.12    3.88
  -2 -16  -9   -9.71   13.69
   2  16   9    6.11    3.52
  -2 -16   9   -5.05    2.05
  -3 -16  -9    0.11    2.05
   3  16   9   -3.07    3.45
   4  16   9   -0.15    3.24
   8 -17  -9    1.44    2.41
  -8  17   9   -4.35    7.44
  -7  17   9   -1.78    3.97
  -7  17   9   -2.32    6.83
   6 -17  -9   -2.07   10.33
  -6  17   9  -12.81    4.13
  -6  17   9   -5.27    6.74
   5 -17  -9   19.62   10.95
   5 -17  -9   -5.40    2.29
  -5  17   9   -6.78    3.94
  -5  17   9   -2.67    6.23
   4 -17  -9   -5.13   11.28
   4 -17  -9   -4.79    2.33
  -4  17   9    2.55    3.96
  -4  17   9   -1.35    5.62
   3 -17  -9    5.50    2.31
   3 -17  -9    0.43   11.06
  -3  17   9   -0.72    5.21
  -3  17   9   -1.94    3.67
  -2  17  -9    3.31    6.70
   2 -17  -9   -9.26   11.49
   2 -17  -9   -3.23    2.23
   2 -17   9    0.12    2.81
  -2  17   9   -8.86    4.56
  -2  17   9    6.60    3.84
  -1  17  -9   -1.71    2.86
   1 -17  -9    6.92   12.30
  -1  17  -9    0.19    5.93
   1 -17  -9    1.12    2.15
   1 -17   9    1.63    2.36
  -1  17   9  -10.60    3.84
   1 -17   9    5.61    7.53
  -1  17   9    9.56    4.26
   0  17  -9   -0.17    5.11
   0  17  -9    2.42    2.86
   0 -17  -9   -5.49    2.18
   0 -17  -9  -11.27   13.47
   0 -17   9    5.35    7.51
   0  17   9   -0.30    3.89
   0 -17   9    1.76    2.29
   0  17   9    3.41    3.59
  -1 -17  -9  -11.86   14.19
  -1 -17  -9    5.26    2.19
   1  17  -9    1.77    2.72
   1  17  -9    0.30    4.43
  -1 -17   9    0.74    2.11
   1  17   9    2.50    3.61
  -1 -17   9  -11.95    7.71
   1  17   9  -11.75    4.04
   2  17  -9    0.13    3.89
  -2 -17  -9  -22.03   15.09
  -2 -17  -9    0.12    2.18
   2  17  -9   -0.96    2.73
   2  17   9    4.13    3.82
  -2 -17   9    1.41    2.06
  -3 -17  -9    3.23    2.28
   3  17   9    1.47    3.90
   4  17   9  -12.41    3.83
  -8  18   9    8.83    8.23
   7 -18  -9    1.02    2.52
  -7  18   9    0.66    4.20
  -7  18   9   -1.23    7.53
   6 -18  -9   24.00   11.59
   6 -18  -9   -6.55    2.62
  -6  18   9    4.19    4.12
  -6  18   9    1.87    6.90
   5 -18  -9    0.12    2.43
   5 -18  -9   -6.64   12.17
  -5  18   9   -4.24    4.48
  -5  18   9  -13.23    6.54
  -4  18   9   -1.87    6.23
  -4  18   9  -12.41    4.63
   3 -18  -9   19.42    5.25
  -3  18   9   22.20    7.56
  -3  18   9    7.87    6.52
   2 -18  -9  -23.88   13.59
  -2  18  -9    0.67    7.18
  -2  18   9   -8.97    5.48
   2 -18   9   -1.07    2.79
  -2  18   9   -3.17    4.21
   1 -18  -9    6.80   13.95
   1 -18  -9   -6.82    2.48
  -1  18  -9   -1.71    3.19
  -1  18  -9   -0.21    6.46
  -1  18   9    0.52    4.08
  -1  18   9  -11.39    4.81
   1 -18   9   -4.35    2.67
   0 -18  -9    0.55   14.58
   0  18  -9    2.38    5.62
   0  18  -9    3.40    3.03
   0 -18  -9    1.27    2.35
   0  18   9   -3.71    4.50
   0  18   9   -8.63    3.97
   0 -18   9    0.12    2.37
   0 -18   9   12.61    8.16
   1  18  -9    0.57    3.22
  -1 -18  -9    1.17    2.30
   1  18  -9    0.16    5.07
  -1 -18  -9   -8.95   15.46
   1  18   9   -5.33    4.00
  -1 -18   9    5.97    8.54
  -1 -18   9   -0.70    2.39
   1  18   9    4.54    4.51
   2  18  -9  -10.21    3.25
  -3 -18  -9    0.14    3.46
   3  18   9   23.95    5.87
  -6  19   9   -9.89    7.73
   5 -19  -9    0.83    2.74
  -5  19   9    5.05    6.97
   4 -19  -9    2.62    2.81
   4 -19  -9    2.47   14.19
  -4  19   9   -0.23    6.68
  -4  19   9    4.93    4.89
   3 -19  -9   -0.14    2.56
   3 -19  -9  -11.96   14.30
  -3  19   9    3.29    4.73
  -3  19   9  -10.36    5.77
   2 -19  -9  -15.73   14.46
   2 -19  -9    0.28    2.71
  -2  19  -9   -2.15    7.31
   2 -19   9    1.32    2.96
  -2  19   9   -1.41    5.62
  -2  19   9   -4.96    4.62
  -1  19  -9   -2.74    3.30
   1 -19  -9   -7.86   15.27
   1 -19  -9   -2.36    2.73
  -1  19  -9    1.54    6.76
  -1  19   9    0.19    4.47
   1 -19   9    2.24    2.86
  -1  19   9   -3.11    5.31
   0 -19  -9   -4.23    2.68
   0  19  -9   -0.98    6.11
   0 -19  -9   12.42   16.15
   0  19  -9   -2.12    3.35
   0 -19   9   -1.49    2.71
   0  19   9   -1.71    5.17
   0  19   9    4.54    4.57
   0 -19   9    8.07    8.78
  -1 -19  -9    1.93   16.97
  -1 -19  -9    1.48    2.55
   1  19  -9    0.16    3.45
   1  19  -9   -1.24    5.36
   1  19   9   -4.96    4.94
  -1 -19   9    0.13    2.51
   1  19   9    4.19    4.43
  -2 -19  -9    1.50    2.80
   2  19   9    0.90    4.32
   2  19   9    8.27    5.32
  -3 -19  -9    3.69    2.71
   3  19   9   -8.31    5.13
   4  19   9    2.34    4.95
  -2  20  -9   -0.25    8.02
   2 -20   9    3.70    3.30
  -1  20  -9   -0.70    7.29
  -1  20  -9   -1.32    3.63
   1 -20   9    0.16    2.99
   0  20  -9    0.21    6.57
   0  20  -9   -0.18    3.70
   0 -20   9    0.15    2.94
   0 -20   9   -1.72    9.63
   0   0 -10  119.72   36.84
   1   0 -10   -0.60    1.52
   0   1  10    0.04    0.63
  -1   0  10   -0.04    0.57
   1  -1 -10    7.63    2.98
   1  -1 -10    8.49    2.80
  -1   1  10    7.03    2.34
  -1   1  10    9.37    2.43
   1  -2 -10    1.86    1.72
   1  -2 -10    2.84    1.63
  -1   2  10    2.40    0.90
  -1   2  10    2.17    0.80
  -2  -1  10    2.60    0.79
   0   2  10   49.01   13.49
   2  -1 -10    2.99    1.46
   2  -1 -10    0.37    1.38
  -1  -2  10   -0.04    0.74
  -2   1  10    2.34    0.77
  -1  -2  10    2.78    0.80
   2  -2 -10   14.81    5.44
   2   2 -10   14.09    5.20
   2  -2 -10   15.76    4.70
   2  -2 -10   14.78    5.17
  -2   2  10   23.19    5.18
  -2   2  10   15.23    4.72
  -2   2  10   18.26    4.52
  -2  -2  10   18.19    4.65
  -2  -2  10   16.14    4.51
   2  -3 -10    9.23    3.00
   2  -3 -10    8.26    3.53
   2  -3 -10    9.26    2.54
   3   2 -10    7.17    3.07
  -2   3  10    7.93    2.65
  -3  -2  10    9.49    2.56
  -2   3  10    8.03    2.45
  -3  -2  10    7.07    2.43
  -2   3  10   12.13    2.72
   1  -3 -10    0.88    2.18
   3   1 -10    2.59    1.54
   1  -3 -10    1.90    0.85
   1  -3 -10    4.08    1.64
  -3  -1  10    3.28    0.79
  -3  -1  10    1.12    0.90
  -1   3  10    2.25    0.98
  -1   3  10    2.41    1.12
  -1   3  10    3.42    0.87
   0   3 -10   -0.10    1.88
   0  -3 -10    0.22    1.65
  -3   0  10    0.22    0.38
   0  -3  10    0.30    0.77
   0   3  10    0.63    0.58
   0  -3  10    0.09    0.77
   3  -1 -10    2.95    0.87
   1   3 -10    1.43    1.84
   3  -1 -10    2.94    1.57
  -1  -3  10    2.33    1.03
  -3   1  10    3.26    0.92
  -3   1  10    3.95    0.96
  -1  -3  10    1.98    1.11
   3  -2 -10    9.48    3.51
   3  -2 -10   12.45    3.16
   2   3 -10    5.32    3.34
   3  -2 -10    9.48    2.65
   3  -2 -10    8.45    2.77
  -3   2  10   10.02    2.82
  -2  -3  10    9.64    2.72
  -3   2  10   11.46    2.69
  -2  -3  10    8.96    2.83
  -3   2  10   10.27    2.80
  -3   2  10   11.60    2.90
   3  -3 -10   -4.84    2.13
   3   3 -10    0.44    1.49
   3   3 -10    0.22    0.28
   3  -3 -10   -0.05    0.37
   3   3 -10    0.10    0.34
   3  -3 -10    0.45    0.25
   3  -3 -10   -0.43    1.12
  -3   3  10    0.09    0.29
  -3  -3  10    0.74    0.61
  -3   3  10    0.44    0.56
  -3   3  10    0.33    0.50
  -3  -3  10    0.30    0.20
  -3   3  10   -0.09    0.70
   3  -4 -10   -0.34    0.46
   4   3 -10   -0.15    0.26
   3  -4 -10   -0.12    0.24
   4   3 -10   -0.59    1.49
   3  -4 -10   -2.31    1.21
  -3   4  10   -0.72    0.86
  -4  -3  10    0.58    1.04
  -3   4  10    0.79    0.65
  -3   4  10    0.01    0.28
  -4  -3  10    0.34    0.59
  -3   4  10   -0.27    0.52
   2  -4 -10    3.45    1.68
   4   2 -10    2.88    1.70
   4   2 -10    3.21    0.92
   2  -4 -10    2.35    0.99
  -2   4  10    2.75    1.12
  -4  -2  10    3.60    0.95
  -2   4  10    3.27    0.93
  -4  -2  10    3.04    1.06
  -2   4  10    3.10    1.16
   4   1 -10    4.56    1.40
   1  -4 -10    4.53    1.53
  -4  -1  10    5.38    1.44
  -1   4  10    5.65    1.51
  -1   4  10    5.64    1.74
  -4  -1  10    5.07    1.53
   0   4 -10    1.05    1.94
   4   0 -10    0.40    0.30
  -4   0  10    0.08    0.50
   0  -4  10    0.42    0.78
   0  -4  10   -0.16    0.77
  -4   0  10   -0.13    0.33
   0   4  10   -0.21    0.60
   1   4 -10    4.37    2.38
   4  -1 -10    6.22    1.41
   4  -1 -10    4.65    1.36
  -1  -4  10    4.88    1.61
  -1  -4  10    4.81    1.49
  -1  -4  10    4.62    1.54
  -4   1  10    4.19    1.38
   2   4 -10    3.46    1.89
   4  -2 -10    3.91    1.03
  -2  -4  10    3.09    1.10
  -2  -4  10    2.70    1.02
  -2  -4  10    3.43    1.20
  -4   2  10    4.69    1.20
   3   4 -10   -1.14    1.67
   3   4 -10   -0.08    0.57
   3   4 -10    0.03    0.47
   4  -3 -10   -2.78    2.53
   4  -3 -10   -0.25    0.43
  -4   3  10   -0.19    0.73
  -4   3  10    0.17    0.95
  -3  -4  10   -0.09    0.50
  -3  -4  10   -0.10    0.31
  -3  -4  10   -0.17    0.70
  -4   3  10    0.02    0.50
  -3  -4  10   -0.68    1.82
   4  -4 -10   10.00    3.20
   4  -4 -10   13.04    3.28
   4   4 -10   11.07    3.11
   4  -4 -10   13.82    3.68
   4   4 -10   10.20    3.92
   4   4 -10   10.03    3.33
  -4   4  10   12.82    3.67
  -4   4  10   12.43    3.23
  -4  -4  10   11.67    3.16
  -4  -4  10    9.62    4.08
  -4  -4  10   10.92    3.31
  -4   4  10   14.53    3.35
   4  -5 -10   11.51    4.20
   5   4 -10   18.57    4.09
   4  -5 -10    4.97    4.68
  -4   5  10   28.95    4.71
  -4   5  10   15.11    4.25
  -4   5  10   16.54    4.36
  -5  -4  10   12.98    5.02
  -4   5  10   13.88    4.35
  -5  -4  10   18.44    4.27
  -5  -4  10   17.24    4.12
   3  -5 -10    3.18    1.67
   3  -5 -10    4.68    1.10
  -3   5  10    4.83    1.34
  -3   5  10    3.76    1.23
  -3   5  10    4.67    1.10
  -5  -3  10    2.62    1.24
  -5  -3  10    2.98    1.64
   2  -5 -10   16.77    4.56
   2  -5 -10    7.91    5.33
   5   2 -10   12.28    3.64
  -5  -2  10   14.58    3.86
  -2   5  10   11.91    3.74
  -5  -2  10   15.42    4.71
  -5  -2  10   14.66    3.69
   5   1 -10    0.49    0.35
   1  -5 -10   -4.28    3.16
  -1   5  10    1.31    0.78
  -5  -1  10    0.63    0.60
  -1   5  10    0.66    0.47
  -5  -1  10    0.46    0.41
   5   0 -10   -0.38    0.34
   0  -5 -10   -1.85    2.86
   0  -5 -10   -0.70    0.62
   0   5 -10   -1.06    2.06
  -5   0  10   -0.02    0.39
  -5   0  10   -0.43    0.55
   0  -5  10    0.32    0.88
   0   5  10   -0.34    0.61
   0  -5  10   -0.44    0.84
   0   5  10    0.14    0.96
   5  -1 -10    0.92    0.41
   5  -1 -10    1.03    0.37
   1   5 -10    0.81    1.89
  -1  -5 -10   -1.85    2.36
  -1  -5  10   -0.04    0.79
  -1  -5  10    0.89    0.75
  -5   1  10    0.31    0.41
  -5   1  10    0.95    0.57
  -1  -5  10    0.06    0.59
   2   5 -10   12.70    4.32
   5  -2 -10   13.22    4.17
   5  -2 -10   17.48    3.98
   2   5 -10   12.61    4.75
  -5   2  10   17.50    4.04
  -2  -5  10   12.79    4.03
  -2  -5  10   12.69    4.16
  -5   2  10   15.63    4.20
  -2  -5  10   17.32    5.56
   5  -3 -10    2.06    1.02
   3   5 -10    2.26    2.09
   5  -3 -10   -0.03    0.92
   3   5 -10    2.52    1.07
   3   5 -10    4.69    1.15
  -3  -5  10    3.39    0.93
  -3  -5  10    3.66    1.16
  -3  -5  10    3.74    1.00
  -5   3  10    3.88    0.94
   4   5 -10   13.26    3.62
   4   5 -10    8.00    4.44
   4   5 -10   15.38    3.35
   4   5 -10   10.43    3.82
  -4  -5  10   14.36    3.60
  -4  -5  10   12.21    3.38
  -4  -5  10    9.83    3.57
   5  -5 -10   -2.81    3.39
   5  -5 -10    0.16    0.68
   5   5 -10   -0.26    0.41
  -5  -5  10   -4.70    2.18
  -5   5  10   -0.14    0.56
  -5  -5  10   -0.22    0.69
  -5  -5  10   -0.09    0.51
  -5   5  10    0.05    1.04
   5  -6 -10    3.43    3.86
   6   5 -10    4.29    1.20
   5  -6 -10    4.74    1.38
  -5   6  10    3.68    1.32
  -5   6  10    3.76    1.68
  -6  -5  10    3.41    1.39
  -6  -5  10    4.22    1.23
   4  -6 -10    2.43    1.25
   6   4 -10    1.35    0.66
   4  -6 -10    3.06    3.32
   4  -6 -10    2.02    0.86
  -4   6  10    1.10    1.08
  -6  -4  10    1.40    0.73
  -4   6  10    2.56    0.77
  -6  -4  10    1.56    0.87
  -4   6  10    1.76    1.71
   3  -6 -10   57.07   14.01
   3  -6 -10   49.68   14.07
   3  -6 -10   28.16   15.74
   3  -6 -10   52.87   15.37
  -3   6  10   57.12   14.14
  -3   6  10   57.49   14.62
  -3   6  10   59.44   14.16
  -3   6  10   57.76   14.80
   6   2 -10    5.43    1.66
   2  -6 -10    5.81    1.65
   2  -6 -10    5.63    1.82
  -6  -2  10    6.82    1.70
  -2   6  10    5.72    1.66
  -6  -2  10    5.28    1.80
  -2   6  10    6.62    2.04
   1  -6 -10   16.62    5.24
   6   1 -10   16.37    5.05
  -6  -1  10   19.18    5.14
  -1   6  10   21.08    5.49
  -6  -1  10   20.57    5.32
  -1   6  10   19.80    5.24
   6   0 -10    5.26    0.99
   0  -6 -10    2.13    1.15
   0   6 -10    3.07    2.54
  -6   0  10    2.94    1.02
   0   6  10    3.35    1.46
   0  -6  10    3.17    1.31
   0   6  10    2.30    1.14
  -6   0  10    3.01    1.10
   0  -6  10    3.52    1.27
  -1  -6 -10    5.91    6.49
   6  -1 -10   26.27    4.75
   1   6 -10   14.37    5.87
  -1  -6  10   20.51    5.01
   1   6  10    7.60    5.61
  -6   1  10   17.28    5.01
  -1  -6  10   17.71    4.80
  -1  -6  10   19.37    4.92
  -6   1  10   20.40    4.86
   2   6 -10    6.12    2.38
   2   6 -10    0.67    3.03
   2   6 -10    6.41    2.14
   6  -2 -10    7.65    1.91
  -6   2  10    9.94    1.97
  -6   2  10    6.13    2.02
  -2  -6  10    5.49    1.94
  -2  -6  10    8.17    1.95
  -2  -6  10    7.01    2.11
   6  -3 -10   60.25   14.84
   3   6 -10   54.64   15.07
   3   6 -10   53.91   15.45
   3   6 -10   54.09   16.21
   6  -3 -10   52.70   15.14
  -3  -6  10   57.28   14.77
  -6   3  10   53.48   15.39
  -3  -6  10   40.75   17.45
  -3  -6  10   58.12   14.48
  -3  -6  10   60.95   14.97
   4   6 -10    2.51    1.01
   4   6 -10    1.85    0.74
   4   6 -10    1.76    0.87
   4   6 -10    0.82    2.08
  -4  -6  10    1.51    0.76
  -4  -6  10    0.18    2.49
  -4  -6  10    2.10    1.01
  -4  -6  10    1.34    0.76
  -6   4  10    4.37    0.84
   5   6 -10    2.10    1.23
   5   6 -10    5.61    2.46
   6  -5 -10    3.45    1.40
  -5  -6  10   11.89    2.86
  -5  -6  10    4.66    1.26
  -5  -6  10    3.59    1.44
   6   6 -10   -0.13    0.53
   6  -6 -10   -0.28    0.80
  -6  -6  10   -0.54    0.86
  -6   6  10   -0.07    1.22
  -6  -6  10    0.18    0.63
   7   6 -10   -0.10    0.61
   6  -7 -10   -0.04    0.91
   6  -7 -10    3.43    4.30
  -7  -6  10    0.49    0.90
  -6   7  10   -0.23    1.46
  -7  -6  10    0.69    0.74
   5  -7 -10    1.47    1.12
   5  -7 -10   -0.16    4.28
   7   5 -10    2.84    0.88
  -5   7  10    3.03    1.50
  -7  -5  10    1.97    1.07
  -7  -5  10    3.32    0.94
   4  -7 -10   24.11    6.14
   4  -7 -10   12.74    7.49
  -4   7  10   23.79    6.26
  -7  -4  10   20.43    6.14
  -4   7  10   26.97    6.99
  -7  -4  10   24.57    5.96
   7   3 -10    0.09    0.51
   3  -7 -10    0.55    0.69
   3  -7 -10   -0.60    3.82
  -3   7  10    0.37    1.51
  -3   7  10   -0.55    1.06
  -7  -3  10   -0.27    0.59
  -7  -3  10    0.34    0.66
   2  -7 -10   34.45   10.35
   2  -7 -10   38.06   12.39
  -2   7  10   41.06   10.77
  -7  -2  10   36.27   10.25
  -7  -2  10   37.47   10.45
   7   1 -10   11.04    3.00
   1  -7 -10   17.42    5.59
   1  -7 -10   10.12    3.10
  -7  -1  10    9.94    3.08
  -1   7  10   12.06    3.32
  -7  -1  10   11.15    3.13
   1  -7  10    9.18    3.26
   0   7 -10   -0.88    2.45
   7   0 -10   -0.34    0.44
   0  -7 -10    0.32    0.72
   0  -7 -10    5.63    4.24
  -7   0  10    0.30    0.55
   0   7  10   -0.48    1.12
  -7   0  10    0.03    0.64
   0  -7  10    0.06    0.97
   0  -7  10    1.13    0.86
   0  -7  10   -0.39    1.01
   1   7 -10    8.35    3.42
  -1  -7 -10   12.53    3.21
   1   7 -10   11.92    4.22
  -1  -7 -10   15.70    5.24
   7  -1 -10   11.28    3.11
  -1  -7  10   11.16    3.18
  -7   1  10   10.08    3.21
  -1  -7  10   18.67    5.01
   1   7  10    7.36    3.59
  -1  -7  10   10.46    3.15
  -1  -7  10   11.26    3.29
   2   7 -10   33.06   11.19
   2   7 -10   30.45   11.80
  -2  -7 -10   38.02   12.36
  -2  -7  10   50.87   10.35
  -2  -7  10   38.16   10.77
  -7   2  10   35.45   10.83
   3   7 -10   -0.14    2.12
  -3  -7  10   -0.03    0.57
  -7   3  10    0.28    0.59
  -3  -7  10    0.49    0.89
   4   7 -10   23.23    7.25
   4   7 -10   22.23    5.96
  -4  -7  10   20.34    6.35
  -4  -7  10   22.01    5.99
  -7   4  10   22.82    6.48
   5   7 -10    2.16    0.78
   7  -5 -10    1.84    1.01
   5   7 -10    2.27    2.40
  -7   5  10    2.33    0.87
  -5  -7  10    1.93    0.82
  -5  -7  10    1.59    1.10
   7  -6 -10   -0.09    0.93
   6   7 -10    0.43    0.60
  -6  -7  10    0.77    0.66
  -6  -7  10    0.04    0.96
   7   7 -10    1.19    0.71
   7  -7 -10    0.59    1.10
  -7  -7  10    0.28    0.99
  -7  -7  10    2.27    0.83
   8   7 -10   -0.25    0.68
   7  -8 -10    0.27    1.10
  -8  -7  10   -0.47    0.81
  -8  -7  10    0.64    1.02
   8   6 -10    0.12    0.68
   6  -8 -10   -0.05    0.99
   6  -8 -10   -2.02    4.54
  -6   8  10    0.08    1.60
  -8  -6  10   -1.18    0.96
  -8  -6  10    0.15    0.76
   5  -8 -10   -4.23    4.67
   5  -8 -10   -0.74    0.90
   8   5 -10   -0.11    0.64
  -5   8  10    0.48    1.45
  -8  -5  10    0.18    0.88
  -8  -5  10    0.83    0.75
  -5   8  10    0.78    2.68
   4  -8 -10    5.50    1.91
   4  -8 -10    5.93    4.59
  -8  -4  10    7.02    1.89
  -4   8  10    4.77    2.12
  -4   8  10    7.14    2.91
   3  -8 -10    0.79    4.31
   8   3 -10    1.74    1.08
   3  -8 -10    4.22    1.26
  -3   8  10    3.25    1.53
  -8  -3  10    3.78    1.17
  -8  -3  10    3.84    1.25
  -3   8  10    4.79    2.06
   2  -8 -10    2.32    1.36
   8   2 -10    4.74    1.26
   2  -8 -10    2.15    4.81
  -2   8  10    3.95    1.84
  -8  -2  10    5.00    1.37
   1  -8 -10    3.94    1.24
   1  -8 -10   -0.49    5.03
  -8  -1  10    2.46    1.14
   1  -8  10    4.51    1.42
   1  -8  10    3.64    1.52
  -1   8  10    3.08    1.60
   0  -8 -10    2.51    1.13
   0   8 -10    0.60    2.69
   0  -8 -10    5.27    4.99
   0  -8  10    4.68    1.25
   0  -8  10    2.47    1.35
   0  -8  10    2.02    1.31
   0   8  10    2.69    1.47
   1   8 -10    2.79    1.53
  -1  -8 -10    3.68    4.74
   1   8 -10    3.86    2.91
  -1  -8 -10    4.05    1.33
  -1  -8  10    1.97    1.26
   1   8  10    5.73    1.80
  -1  -8  10    5.19    1.30
  -1  -8  10    3.45    3.83
  -1  -8  10    2.67    1.45
   2   8 -10    5.23    2.13
   2   8 -10    3.12    1.73
   2   8 -10    7.37    2.85
  -2  -8 -10    6.87    4.53
  -2  -8  10    5.66    3.76
  -2  -8  10    6.43    1.76
  -2  -8  10    5.23    1.51
   2   8  10    2.72    2.12
  -2  -8  10    4.81    1.53
   3   8 -10    5.46    2.67
   3   8 -10    3.47    1.25
   3   8 -10    3.65    1.70
   3   8 -10    2.90    1.49
  -3  -8  10    4.98    3.35
  -3  -8  10    5.13    1.28
  -3  -8  10    3.63    1.31
  -3  -8  10    5.42    1.58
   4   8 -10    5.23    1.95
   4   8 -10    8.13    3.13
   4   8 -10    6.03    1.71
   4   8 -10    4.71    2.01
  -4  -8  10    4.45    1.81
  -4  -8  10    8.68    3.77
  -4  -8  10    6.58    1.74
  -4  -8  10    7.22    2.01
   5   8 -10    0.46    1.24
   5   8 -10    0.05    0.62
   5   8 -10    1.35    2.62
  -5  -8  10    0.22    0.62
  -5  -8  10   -0.49    1.05
   6   8 -10    1.36    0.69
  -6  -8  10    0.04    0.74
  -6  -8  10   -0.05    1.03
   8  -7 -10    0.44    1.14
   7   8 -10    1.03    0.70
  -7  -8  10    0.05    0.82
  -7  -8  10    0.35    1.04
   8  -8 -10   11.53    3.31
   8   8 -10   11.90    3.06
  -8  -8  10    6.43    3.25
  -8  -8  10   13.04    3.11
   8  -9 -10    0.96    1.30
  -9  -8  10   -0.05    1.14
   7  -9 -10    2.00    1.27
  -9  -7  10    0.05    1.11
  -7   9  10    1.02    1.84
   6  -9 -10    4.88    1.58
   6  -9 -10   -9.81    5.48
  -9  -6  10    4.06    1.44
  -6   9  10    4.71    2.05
   5  -9 -10   -2.78    5.17
   5  -9 -10    2.51    1.27
  -5   9  10    2.44    1.66
  -5   9  10    1.96    3.12
   4  -9 -10    0.70    4.62
   4  -9 -10    1.00    1.00
  -4   9  10    0.47    1.50
  -4   9  10    2.46    2.50
   3  -9 -10    0.42    5.53
   3  -9 -10    5.65    1.67
  -3   9  10    4.40    1.97
  -3   9  10    5.99    2.52
   2  -9 -10    6.56    5.59
   2  -9 -10    2.43    1.13
  -2   9  10    1.73    1.80
   1  -9 -10    1.15    0.90
   1  -9 -10    0.91    5.68
   1  -9  10    0.26    1.24
  -1   9  10    1.92    1.52
   1  -9  10   -0.28    1.24
   0   9 -10    0.80    1.17
   0  -9 -10   -0.58    0.92
   0   9 -10   -1.43    2.85
   0  -9 -10    2.16    5.76
   0  -9  10   -0.56    1.01
   0   9  10    0.29    1.44
   0  -9  10   -0.38    1.17
   0  -9  10   -0.48    1.03
  -1  -9 -10   -4.36    5.66
   1   9 -10   -0.47    1.21
   1   9 -10    0.65    2.77
  -1  -9 -10    0.75    0.94
  -1  -9  10   -0.70    1.13
  -1  -9  10    0.51    0.87
   1   9  10    0.99    1.46
  -1  -9  10   -0.76    0.93
  -1  -9  10    8.03    4.00
   2   9 -10    1.30    2.67
   2   9 -10    1.35    1.26
  -2  -9 -10    2.82    1.18
   2   9 -10    2.82    1.91
  -2  -9 -10    2.77    5.17
  -2  -9  10    4.36    1.35
   2   9  10    0.56    1.78
  -2  -9  10    1.01    3.88
  -2  -9  10    2.19    0.96
  -2  -9  10    1.10    1.00
   3   9 -10    5.87    1.37
   3   9 -10    5.49    1.94
   3   9 -10    3.44    1.67
   3   9 -10    4.25    2.99
  -3  -9  10   -1.04    3.87
  -3  -9  10    4.66    1.40
  -3  -9  10    5.71    1.46
  -3  -9  10    1.66    1.74
   4   9 -10    1.26    1.02
   4   9 -10    0.80    1.26
   4   9 -10   -0.28    0.63
   4   9 -10    0.49    2.70
  -4  -9  10    0.22    0.78
  -4  -9  10    1.66    1.14
  -4  -9  10   -0.07    0.64
  -4  -9  10   -3.00    3.61
   5   9 -10    4.13    1.12
   5   9 -10    4.92    3.04
  -5  -9  10    2.45    1.09
  -5  -9  10    2.42    1.48
   6   9 -10   11.78    3.31
   6   9 -10    4.58    1.57
  -6  -9  10    3.43    1.91
  -6  -9  10    5.11    1.58
   7   9 -10    3.18    1.25
  -7  -9  10    4.93    1.32
  -7  -9  10    2.68    1.54
   8   9 -10   -0.07    0.85
  -8  -9  10   -0.55    1.28
  -8  -9  10   -0.40    0.89
  -9  -9  10   -0.06    1.24
   8 -10 -10    1.70    1.53
   7 -10 -10    0.39    1.34
  -7  10  10    1.42    2.07
   6 -10 -10    0.31    5.49
   6 -10 -10   -0.30    1.25
  -6  10  10   -0.19    2.09
   5 -10 -10    4.37    5.79
   5 -10 -10    2.55    1.47
  -5  10  10    7.71    3.50
  -5  10  10    2.11    1.96
   4 -10 -10  -10.67    5.58
   4 -10 -10    3.88    1.43
  -4  10  10    6.18    3.03
  -4  10  10    4.42    1.89
   3 -10 -10   -2.76    1.26
  -3  10  10    1.56    2.53
  -3  10  10    0.28    1.70
   2 -10 -10   -4.54    6.25
   2 -10 -10   -0.31    1.08
  -2  10  10   -0.61    1.55
  -2  10  10    0.36    1.98
   1 -10 -10    2.47    6.36
   1 -10 -10    0.05    0.95
   1 -10  10    0.07    1.30
   1 -10  10   -0.07    1.21
  -1  10  10   -0.45    1.73
   0  10 -10    3.73    1.74
   0 -10 -10    3.36    6.78
   0 -10 -10    3.51    1.39
   0  10 -10    2.82    3.23
   0 -10  10    3.93    4.58
   0  10  10    4.97    1.92
   0 -10  10    2.47    1.54
   0 -10  10    4.47    1.66
   0 -10  10    2.31    1.38
  -1 -10 -10   -0.52    6.45
   1  10 -10    0.72    1.37
   1  10 -10    0.35    3.16
   1  10 -10    1.99    2.47
  -1 -10 -10   -0.12    1.07
  -1 -10  10    0.05    1.05
   1  10  10   -0.36    1.65
  -1 -10  10    0.09    0.84
  -1 -10  10    0.13    1.32
  -1 -10  10    5.23    4.40
  -2 -10 -10   -1.45    5.99
   2  10 -10    0.39    1.30
   2  10 -10    0.74    2.97
   2  10 -10    0.13    2.04
  -2 -10 -10    0.32    1.04
  -2 -10  10   -0.24    1.25
  -2 -10  10    0.09    0.93
  -2 -10  10    0.69    0.75
  -2 -10  10   -1.74    4.27
   2  10  10    0.08    1.86
   3  10 -10    9.16    3.04
   4  10 -10    4.11    1.71
   4  10 -10    2.55    1.52
   4  10 -10    2.83    3.24
   4  10 -10    4.14    1.10
  -4 -10  10    2.75    1.58
  -4 -10  10    2.58    1.09
   5  10 -10    7.64    3.43
   5  10 -10    3.31    1.30
  -5 -10  10    5.23    1.79
  -5 -10  10    3.47    1.30
   6  10 -10    0.71    0.75
   6  10 -10    0.93    3.24
  -6 -10  10    1.55    1.30
  -6 -10  10    0.14    0.84
   7  10 -10    1.48    3.33
   7  10 -10    1.89    0.99
  -7 -10  10    2.39    1.39
  -7 -10  10    1.38    1.06
   8  10 -10    5.27    1.21
  -8 -10  10    2.75    1.24
  -8 -10  10    0.18    1.48
   8 -11 -10   -0.07    1.58
   7 -11 -10    1.54    1.41
  -7  11  10   -0.35    2.31
   6 -11 -10   -2.00    1.44
   6 -11 -10    2.02    6.02
  -6  11  10    2.41    4.23
  -6  11  10   -0.21    2.15
   5 -11 -10   -0.81    1.31
   5 -11 -10   -0.80    6.17
  -5  11  10   -0.75    2.05
  -5  11  10   -2.19    3.73
   4 -11 -10    1.69    1.26
   4 -11 -10   -1.67    5.82
  -4  11  10    0.84    1.93
  -4  11  10    1.17    3.19
   3 -11 -10   19.10    6.75
   3 -11 -10    0.88    1.31
  -3  11  10    1.59    2.80
  -3  11  10    0.32    1.92
   2 -11 -10  -13.37    7.07
   2 -11 -10    2.28    1.22
  -2  11  10    2.06    1.85
  -2  11  10    0.66    2.32
   2 -11  10   -1.86    1.71
   1 -11 -10   10.92    2.57
   1 -11 -10  -13.69    8.01
   1 -11  10   10.63    2.71
  -1  11  10    8.78    3.14
   1 -11  10    6.28    2.61
   0  11 -10    0.08    1.58
   0 -11 -10   -3.58    7.73
   0 -11 -10   -1.14    1.19
   0  11 -10   -1.79    3.18
   0  11  10    0.57    1.78
   0 -11  10    0.06    1.26
   0 -11  10    0.53    1.05
   0 -11  10    2.90    4.88
   1  11 -10   11.67    4.25
  -1 -11 -10    0.88    7.88
  -1 -11 -10   10.24    2.57
   1  11 -10    7.88    2.84
   1  11 -10   11.00    3.70
  -1 -11  10    6.30    2.43
  -1 -11  10    8.11    2.76
   1  11  10    8.31    2.97
  -1 -11  10    9.80    2.56
  -1 -11  10    1.70    5.28
  -2 -11 -10    1.25    1.18
   2  11 -10    0.63    1.44
   2  11 -10   -0.22    2.33
  -2 -11 -10   -2.15    7.35
   2  11 -10   -2.80    3.20
  -2 -11  10   -0.08    0.82
   2  11  10    1.74    1.94
  -2 -11  10    0.71    1.39
  -2 -11  10    0.20    1.02
  -2 -11  10   -0.41    4.83
  -3 -11 -10   -4.94    6.58
   3  11 -10   -1.20    3.15
   3  11 -10    0.78    1.85
   3  11 -10    0.40    1.37
   3  11 -10   -0.35    0.68
  -3 -11  10    0.82    0.72
  -3 -11  10    1.09    1.39
  -3 -11  10   -0.33    0.99
   3  11  10    2.09    2.05
  -3 -11  10   -0.52    4.22
   4  11 -10    0.11    1.57
   4  11 -10    0.05    0.74
   4  11 -10    0.51    3.20
   4  11 -10    0.90    1.38
  -4 -11  10   -1.09    1.35
  -4 -11  10    0.59    0.72
   5  11 -10    2.90    3.26
   5  11 -10    0.51    0.82
  -5 -11  10    1.77    1.48
  -5 -11  10    0.82    0.82
   6  11 -10    9.18    3.55
   6  11 -10    0.38    0.86
  -6 -11  10    0.86    0.93
  -6 -11  10   -0.13    1.47
   7  11 -10   -1.71    3.62
   7  11 -10    2.83    0.99
  -7 -11  10    0.83    1.01
  -7 -11  10    0.13    1.42
  -9 -11  10    9.51    3.01
   8 -12 -10    2.74    1.74
   7 -12 -10   -3.83    6.86
  -7  12  10   -0.38    2.39
   4 -12 -10    0.47    1.56
  -4  12  10    5.99    3.71
   3 -12 -10   -3.17    1.32
  -3  12  10   -0.21    3.16
  -3  12  10    4.44    2.10
   2 -12 -10    3.14    1.73
  -2  12  10    5.33    2.29
  -2  12  10    3.11    2.90
   2 -12  10    5.78    2.05
  -1  12 -10    0.58    1.72
   1 -12 -10    2.49    1.34
   1 -12  10    0.55    1.56
  -1  12  10    1.18    2.36
   0 -12 -10    4.17    2.09
   0  12 -10    9.39    2.55
   0  12  10   11.71    2.77
   0 -12  10    0.07    2.23
   0 -12  10    4.53    5.58
   1  12 -10   -1.17    3.11
   1  12 -10   -2.90    1.71
  -1 -12 -10    0.35    1.25
   1  12 -10    2.71    3.50
   1  12  10   -0.58    2.06
  -1 -12  10    0.92    1.31
  -1 -12  10   -4.78    5.30
   2  12 -10    0.22    3.55
   2  12 -10    3.69    2.66
   2  12 -10    2.24    1.71
   2  12 -10    2.25    0.89
  -2 -12  10    3.17    1.33
  -2 -12  10    1.01    0.98
  -2 -12  10    2.41    4.89
  -2 -12  10    1.33    1.62
   3  12 -10    1.43    0.79
   3  12 -10   -3.98    3.43
   3  12 -10    3.82    2.14
   3  12 -10    0.06    1.51
  -3 -12  10    0.49    1.47
  -3 -12  10    0.75    0.79
  -3 -12  10    0.64    1.10
  -3 -12  10    0.06    4.50
   4  12 -10   -1.69    3.45
   4  12 -10    1.35    0.79
  -4 -12  10   -1.61    1.67
  -4 -12  10    0.62    0.80
   5  12 -10   -6.60    3.62
   5  12 -10   -0.12    0.75
  -5 -12  10    0.64    1.61
  -5 -12  10   -0.05    0.80
   6  12 -10    0.20    0.94
  -6 -12  10    0.15    1.63
  -6 -12  10    0.62    0.92
   7  12 -10   -2.84    3.93
  -7 -12  10    0.07    1.61
   8  12 -10   -0.09    0.92
  -9 -12  10    1.47    1.57
   8 -13 -10    0.09    1.76
   7 -13 -10    0.08    1.72
   7 -13 -10   -1.48    7.07
  -7  13  10    0.55    2.70
  -7  13  10    6.83    5.33
   6 -13 -10   -5.91    7.29
   6 -13 -10    1.33    1.60
  -6  13  10    7.66    5.07
  -6  13  10    1.39    2.69
   5 -13 -10   -6.71    7.76
   5 -13 -10   -0.84    1.58
  -5  13  10    0.89    4.52
  -5  13  10    0.12    2.55
  -4  13  10   19.24    6.32
   3 -13 -10   -0.07    1.34
  -3  13  10    0.92    2.37
   2 -13 -10   40.15   13.49
  -1  13 -10   -2.18    2.02
   1 -13 -10    5.34    9.34
  -1  13  10    0.78    2.38
   1 -13  10    3.31    1.71
   0 -13 -10   17.97    9.54
   0  13 -10   -5.38    4.03
   0  13 -10    0.66    1.91
   0 -13  10    1.39    5.49
   0 -13  10   -0.31    1.55
  -1 -13 -10    3.15    9.57
   1  13 -10    6.24    3.48
  -1 -13 -10    7.34    1.64
   1  13 -10    0.52    2.09
  -1 -13  10   -3.11    5.57
  -1 -13  10    2.20    1.75
  -2 -13 -10    1.06    1.49
   2  13 -10   -0.55    1.76
   2  13 -10    0.99    2.80
  -2 -13 -10    6.20    9.39
  -2 -13  10   -0.45    1.37
   2  13  10   -0.31    2.45
  -2 -13  10   -2.71    5.42
   3  13 -10    0.07    1.69
  -3 -13 -10   -6.93    9.11
   3  13 -10    0.61    2.37
  -3 -13 -10    0.09    1.50
   3  13  10    0.68    2.49
   8  13 -10    0.64    1.05
   8  13 -10    1.27    4.12
  -8 -13  10   -0.95    1.71
   9  13 -10   -9.38    4.28
  -9 -13  10    1.14    1.70
   8 -14 -10    4.06    2.33
  -8  14  10    7.34    6.18
   7 -14 -10    3.79    7.74
   7 -14 -10   -0.27    1.82
  -7  14  10    0.30    2.85
  -7  14  10    2.04    5.76
   6 -14 -10    0.22    8.02
   6 -14 -10    0.09    1.76
  -6  14  10    7.34    5.38
  -6  14  10    0.56    2.91
   5 -14 -10    6.91    8.32
   5 -14 -10   -0.34    1.75
  -5  14  10   -1.54    2.74
  -5  14  10    2.24    4.82
   4 -14 -10    1.84    8.02
   4 -14 -10   -0.91    1.79
  -4  14  10    3.77    4.29
  -4  14  10    1.08    2.79
   3 -14 -10    7.48    9.07
   3 -14 -10    1.15    1.79
  -3  14  10    3.37    4.08
  -3  14  10   -1.61    2.77
   2 -14 -10    0.49    1.71
   2 -14 -10   -8.96    9.90
  -2  14  10   -7.52    3.69
  -2  14  10   -0.11    2.68
   2 -14  10    5.38    1.94
   1 -14 -10   -0.98    1.69
   1 -14 -10    9.05   10.34
  -1  14  10   -0.96    3.06
  -1  14  10   -2.37    2.67
   0 -14 -10   -1.05   10.86
   0 -14 -10   -1.58    1.67
   0  14  10   -2.87    2.89
  -1 -14 -10   -4.97   10.51
   1  14 -10   -1.90    3.82
  -1 -14 -10    0.09    1.51
  -1 -14  10   -0.08    1.61
   1  14  10   -3.24    2.66
   2  14 -10   -0.10    3.03
  -2 -14 -10  -14.04   10.78
  -2 -14 -10   -2.34    1.64
  -2 -14  10   -1.57    1.55
   2  14  10   -3.52    2.73
  -3 -14 -10   -3.67    1.65
  -3 -14 -10   -9.43   10.58
   3  14  10    0.61    2.70
   8 -15 -10    1.82    2.23
  -8  15  10    7.09    6.59
   7 -15 -10    4.26    2.02
   7 -15 -10  -14.16    8.67
  -7  15  10    1.64    3.25
  -7  15  10    4.18    6.22
   6 -15 -10   -4.73    8.82
   6 -15 -10    1.80    1.96
  -6  15  10   -0.15    3.30
  -6  15  10    2.08    5.71
   5 -15 -10   -4.03    9.25
   5 -15 -10   -6.35    1.99
  -5  15  10   -5.26    5.36
  -5  15  10   -1.14    3.19
   4 -15 -10    1.20    1.86
   4 -15 -10  -14.91    8.92
  -4  15  10   -2.03    3.03
  -4  15  10    4.89    4.66
   3 -15 -10   -9.57    9.35
   3 -15 -10   -2.28    1.84
  -3  15  10    0.87    4.18
  -3  15  10   -3.37    3.13
   2 -15 -10    4.46    9.97
   2 -15 -10   -1.64    1.81
  -2  15  10   -3.38    3.68
  -2  15  10    6.94    2.98
   2 -15  10   -0.43    2.26
  -1  15 -10   -1.21    2.32
  -1  15 -10   -0.17    5.29
   1 -15 -10    4.45    1.85
   1 -15 -10    7.98   10.62
   1 -15  10    1.00    2.04
  -1  15  10   -7.99    3.44
  -1  15  10    1.56    3.02
   0  15 -10   -0.89    4.72
   0 -15 -10   -0.37    1.81
   0  15 -10   -0.68    2.36
   0 -15 -10   18.47   11.54
   0  15  10   -2.67    3.04
   0  15  10    6.78    3.14
   0 -15  10    2.52    6.31
   0 -15  10    1.10    1.90
  -1 -15 -10   -2.85    1.71
   1  15 -10   -0.26    3.90
  -1 -15 -10    0.15   12.24
   1  15 -10    4.12    2.18
  -1 -15  10    0.08    1.75
  -1 -15  10   -3.73    6.45
   1  15  10    4.11    3.02
  -2 -15 -10   -6.99   12.20
   2  15 -10    0.10    2.18
   2  15 -10    4.35    3.45
  -2 -15 -10   -2.29    1.84
   2  15  10   -0.13    3.07
  -3 -15 -10    4.92   11.72
  -3 -15 -10   -2.96    1.84
   3  15  10    2.69    3.07
   8 -16 -10   -9.58    2.52
  -8  16  10   -5.36    7.08
   7 -16 -10   -9.35    9.39
   7 -16 -10   -2.33    2.16
  -7  16  10   -0.72    3.52
  -7  16  10    7.94    6.45
   6 -16 -10   -7.35    2.11
   6 -16 -10    5.64    9.74
  -6  16  10    2.04    3.60
  -6  16  10    2.22    5.91
   5 -16 -10   -2.25    2.06
   5 -16 -10    1.50   10.05
  -5  16  10   -0.75    5.61
  -5  16  10   -2.57    3.67
   4 -16 -10   -3.57    2.10
   4 -16 -10    0.13   10.04
  -4  16  10   -1.57    5.12
  -4  16  10   -0.46    3.40
   3 -16 -10    3.56    2.11
  -3  16  10    4.06    3.29
  -3  16  10   -7.41    4.65
   2 -16  10    0.47    2.51
  -2  16  10   -9.65    3.53
  -2  16  10    2.04    4.16
   0  16 -10    7.14    4.00
   0  16 -10    0.64    6.09
   0 -16 -10   21.23    3.53
   0 -16  10   10.59    3.56
   0  16  10   10.72    4.60
   0  16  10   -2.00    4.38
  -1 -16 -10   97.36   28.28
  -2 -16 -10   -8.07   13.58
   2  16 -10   -5.10    2.68
  -2 -16 -10    0.11    1.95
   2  16  10   -2.55    3.51
  -3 -16 -10    7.13   13.25
  -3 -16 -10    1.28    2.11
   3  16  10    2.24    3.35
   4  16  10   -2.66    3.33
   8 -17 -10   -1.31    2.37
  -8  17  10    7.99    7.30
   7 -17 -10   -4.30    2.46
  -7  17  10   -5.82    6.97
  -7  17  10   -7.36    4.00
  -6  17  10  -11.78    4.72
  -6  17  10   -8.34    7.01
   5 -17 -10   -0.45   11.01
   5 -17 -10   -1.92    2.33
  -5  17  10   11.30    6.07
  -5  17  10    8.09    4.07
   4 -17 -10   -1.93   11.27
   4 -17 -10    1.24    2.20
  -4  17  10    4.15    5.45
  -4  17  10    3.06    4.12
   3 -17 -10    8.33   11.47
   3 -17 -10    3.93    2.33
  -3  17  10    1.80    3.77
  -3  17  10   -2.10    5.03
  -2  17 -10   -0.42    6.50
   2 -17 -10   -8.19   11.86
   2 -17 -10   -6.23    2.26
  -2  17  10   -2.54    3.76
  -2  17  10   -4.74    4.70
   2 -17  10    1.77    2.64
  -1  17 -10    0.57    2.67
   1 -17 -10    6.02   13.01
  -1  17 -10   -0.19    6.09
   1 -17 -10   -1.48    2.11
  -1  17  10    7.93    3.80
   1 -17  10    0.12    2.32
  -1  17  10   -1.54    4.06
   0 -17 -10  -15.00   13.69
   0  17 -10    1.49    2.76
   0 -17 -10    2.29    2.21
   0  17 -10   -0.17    5.30
   0  17  10   -3.59    3.97
   0 -17  10   -0.22    7.21
   0 -17  10   -3.76    2.23
   0  17  10   -0.44    3.55
   1  17 -10    0.15    4.61
  -1 -17 -10   14.45   14.30
   1  17 -10   -3.32    2.85
  -1 -17 -10    3.73    2.25
  -1 -17  10   -1.36    2.14
   1  17  10    4.20    3.75
   1  17  10   -5.36    3.77
  -2 -17 -10   18.28   14.83
  -2 -17 -10    0.12    2.18
   2  17  10   -5.11    3.93
  -3 -17 -10   14.60   14.71
  -3 -17 -10   -3.73    2.20
   3  17  10    1.83    3.76
   4  17  10    1.56    3.66
   8 -18 -10    7.32    3.07
  -8  18  10   -4.95    8.04
   7 -18 -10   -6.11    2.67
   7 -18 -10   12.78   11.65
  -7  18  10   -3.30    4.32
  -7  18  10   -7.17    7.37
   6 -18 -10   -3.89    2.47
   6 -18 -10   -1.99   11.58
  -6  18  10   -0.93    6.94
  -6  18  10    2.96    4.54
   5 -18 -10  -24.16   12.97
   5 -18 -10    1.99    2.49
  -5  18  10   -9.91    6.42
  -5  18  10    0.80    4.30
   4 -18 -10  -22.51   13.39
   4 -18 -10   -4.26    2.49
  -4  18  10    1.74    4.27
  -4  18  10   10.59    6.03
   3 -18 -10   -9.12    2.73
  -3  18  10  -18.15    5.83
  -3  18  10   -0.18    4.42
   2 -18 -10   14.72   17.97
   2 -18 -10   39.32    8.08
  -2  18 -10   -0.67   10.60
  -2  18  10   35.08    9.29
  -2  18  10   25.84    9.81
  -1  18 -10   -3.44    3.12
  -1  18 -10   -0.21    6.56
  -1  18  10   -7.62    4.98
  -1  18  10  -11.12    4.45
   1 -18  10    2.32    2.69
   0  18 -10   -1.46    5.84
   0  18 -10   -2.97    3.18
   0  18  10   -6.95    4.90
   0 -18  10   -6.59    8.57
   0  18  10   -2.85    4.14
   0 -18  10    0.12    2.60
   1  18  10   -4.39    4.82
   1  18  10  -11.09    4.27
  -2 -18 -10   22.88    7.54
  -2 -18 -10   42.43   21.19
  -3 -18 -10   39.19   20.81
   4  18  10    1.93    4.20
   5 -19 -10   -0.19   11.60
   5 -19 -10   -0.14    2.72
  -5  19  10    8.77    7.18
  -5  19  10    6.62    4.63
   4 -19 -10   -4.60   14.22
   4 -19 -10    1.24    2.72
  -4  19  10   -7.61    6.38
  -4  19  10    6.50    4.76
   3 -19 -10    1.78    3.00
   3 -19 -10   16.23   14.56
  -3  19  10   12.08    6.35
  -3  19  10    5.40    5.02
  -2  19 -10   -1.91    7.31
   2 -19 -10  -12.26   14.86
   2 -19 -10    0.14    2.49
  -2  19  10    4.64    5.49
  -2  19  10   -3.98    4.63
   2 -19  10    0.89    3.04
   1 -19 -10   -0.19   15.51
   1 -19 -10    2.13    2.68
  -1  19 -10   -1.32    6.77
  -1  19 -10    0.17    3.20
   1 -19  10    2.26    2.76
  -1  19  10   -7.60    4.47
  -1  19  10   -3.70    5.15
   0  19 -10   -1.19    6.08
   0  19 -10   -2.28    3.28
   0 -19 -10   -6.70    2.77
   0 -19 -10   -9.27   16.64
   0  19  10   -3.32    5.36
   0  19  10  -16.77    4.84
  -1 -19 -10   -5.04    2.75
  -1 -19 -10   26.14   17.61
   1  19  10   10.50    4.63
   1  19  10   -6.37    5.01
  -2 -19 -10  -12.55   18.16
  -2 -19 -10    3.45    2.79
   2  19  10   -8.34    4.57
   2  19  10    1.64    4.90
  -3 -19 -10   -1.27    2.83
   3  19  10    8.14    5.28
  -2  20 -10   -0.52    8.08
   2 -20  10   -0.33    3.13
  -1  20 -10   -0.47    7.02
   1 -20  10   -0.63    3.20
   0   1 -11   53.76   13.46
   0  -1  11   46.51   12.85
   1   1 -11    4.22    1.76
  -1  -1  11    0.16    0.75
  -1  -1  11    0.12    0.69
   1  -2 -11   10.26    3.48
   2   1 -11    8.32    3.39
   1  -2 -11   10.66    3.47
  -1   2  11   10.26    2.82
  -2  -1  11   10.20    2.88
  -2  -1  11   10.38    2.77
  -1   2  11    9.78    2.92
   2   0 -11   -0.28    0.77
   0   2 -11   -0.48    1.85
   0  -2  11   -0.33    0.79
   0   2  11   -0.04    0.61
  -2   0  11    0.20    0.52
   0  -2  11    0.64    0.80
   1   2 -11    8.22    3.27
   2  -1 -11   11.58    3.13
  -1  -2  11    5.56    2.57
  -1  -2  11    7.39    2.47
   2  -2 -11   -0.43    1.89
   2   2 -11   -0.08    1.55
   2  -2 -11   -0.45    1.36
  -2  -2  11    0.27    0.59
  -2   2  11   -0.33    0.68
  -2   2  11    0.40    0.63
  -2  -2  11   -0.11    0.73
   2  -3 -11    2.29    2.50
   2  -3 -11    3.36    0.93
   2  -3 -11    3.82    1.70
   3   2 -11    0.28    1.76
  -2   3  11    3.29    1.10
  -2   3  11    4.65    1.12
  -3  -2  11    1.86    0.95
  -2   3  11    3.34    0.91
  -3  -2  11    2.79    1.07
   1  -3 -11   -0.05    2.09
   1  -3 -11   -0.98    1.49
   3   1 -11    0.43    1.50
  -3  -1  11   -0.16    0.61
  -1   3  11   -0.58    0.55
  -3  -1  11    0.32    0.43
   0  -3 -11    5.63    1.87
   0   3 -11    3.58    2.12
   3   0 -11    3.29    1.67
   0  -3  11    2.88    1.17
  -3   0  11    2.76    1.03
   0   3  11    1.84    1.06
   0  -3  11    1.47    1.15
  -3   0  11    3.14    0.93
   3  -1 -11    0.40    1.28
   3  -1 -11    0.12    0.26
   1   3 -11    0.05    1.84
  -3   1  11    0.82    0.45
  -1  -3  11    0.13    0.73
  -3   1  11    0.47    0.42
  -3   1  11    0.27    0.37
   3  -2 -11    1.81    0.73
   2   3 -11    3.95    1.84
   3  -2 -11   -2.08    2.04
  -3   2  11    2.52    0.87
  -2  -3  11    2.34    0.69
  -3   2  11    2.95    0.80
  -2  -3  11    1.89    0.99
   3   3 -11   -0.08    1.66
   3  -3 -11   -1.28    1.37
   3  -3 -11   -0.02    0.22
   3  -3 -11   -0.29    0.42
   3   3 -11   -0.08    0.32
  -3   3  11   -1.01    0.66
  -3  -3  11    0.05    0.17
  -3  -3  11    0.14    0.72
  -3   3  11    0.02    0.66
  -3   3  11   -0.91    0.60
   4   3 -11   -0.04    1.73
   3  -4 -11    1.07    1.38
   3  -4 -11    1.56    0.55
   3  -4 -11    0.13    0.38
  -3   4  11    0.88    0.41
  -3   4  11    1.12    0.84
  -4  -3  11    0.56    0.74
  -3   4  11    3.18    0.73
  -3   4  11    1.65    0.71
   4   2 -11   14.93    4.88
   4   2 -11   13.39    4.04
   2  -4 -11   15.12    4.27
   2  -4 -11   19.44    5.00
  -2   4  11   19.30    4.44
  -4  -2  11   15.68    4.29
  -2   4  11   15.74    4.17
  -2   4  11   14.84    4.50
  -4  -2  11   10.98    4.11
   4   1 -11    0.64    0.37
   4   1 -11    0.13    1.55
   1  -4 -11    0.50    0.55
  -4  -1  11    0.50    0.45
  -4  -1  11    0.47    0.64
  -1   4  11    0.59    0.54
   4   0 -11   -0.03    0.33
   4   0 -11   -1.05    1.46
   0   4 -11    0.23    1.92
   0  -4  11    0.31    0.91
  -4   0  11    0.25    0.38
  -4   0  11   -0.03    0.58
   0   4  11    0.51    0.65
   0  -4  11    0.17    0.89
   1   4 -11   -0.10    2.03
   4  -1 -11    0.46    0.26
   4  -1 -11    0.84    1.38
   4  -1 -11    0.52    0.33
  -4   1  11   -0.01    0.46
  -1  -4  11   -0.14    0.77
  -4   1  11    0.92    0.58
  -4   1  11    0.09    0.37
  -1  -4  11    0.05    0.84
   4  -2 -11   24.94    5.51
   2   4 -11   15.91    5.18
   4  -2 -11   15.11    4.51
   4  -2 -11   14.80    4.37
  -2  -4  11   14.76    4.59
  -2  -4  11   13.31    4.47
  -4   2  11   14.55    4.41
  -4   2  11   21.88    4.72
  -4   2  11   11.68    4.74
  -2  -4  11   17.77    4.44
   4  -3 -11    0.74    0.48
   3   4 -11    0.04    1.83
   4  -3 -11    0.06    2.71
   3   4 -11    0.76    0.64
   3   4 -11    1.45    0.52
  -3  -4  11    0.58    0.76
  -4   3  11    0.12    0.76
  -3  -4  11    0.76    0.62
  -4   3  11    2.30    0.88
  -3  -4  11    0.58    0.39
   4   4 -11    3.56    1.10
   5   4 -11    0.29    1.93
   4  -5 -11    0.27    0.33
   4  -5 -11    0.71    1.29
   5   4 -11    0.07    0.46
  -5  -4  11    0.45    0.48
  -4   5  11   -0.16    0.91
  -5  -4  11    0.82    0.75
  -4   5  11    0.22    0.35
  -4   5  11    0.72    0.62
   5   3 -11   13.77    3.17
   3  -5 -11   14.58    5.22
   3  -5 -11   10.40    3.23
  -3   5  11   13.20    3.39
  -3   5  11    8.15    3.48
  -3   5  11   11.60    3.50
  -5  -3  11   12.27    3.34
  -3   5  11   11.45    3.24
   5   2 -11    0.88    0.41
  -5  -2  11    0.92    0.70
  -5  -2  11    1.18    0.46
  -2   5  11   -2.51    0.99
  -2   5  11    0.34    0.47
  -2   5  11   -0.54    0.94
   1  -5 -11    5.02    1.17
   5   1 -11    3.02    1.03
   1  -5 -11    0.12    3.49
  -1   5  11    2.72    1.12
  -5  -1  11    4.19    1.18
  -1   5  11    4.18    1.40
  -5  -1  11    3.17    1.04
   5   0 -11    0.63    0.34
   0   5 -11    1.03    2.22
   5   0 -11    0.01    0.21
   0  -5 -11   -0.50    0.66
   0  -5 -11   -2.82    2.88
  -5   0  11    0.49    0.60
   0  -5  11   -0.06    0.89
   0   5  11    0.11    1.10
  -5   0  11    0.25    0.39
   0  -5  11   -0.16    0.91
   0   5  11   -0.32    0.65
   5  -1 -11    4.34    1.09
   5  -1 -11    4.24    1.05
  -1  -5 -11    1.17    2.71
   1   5 -11    2.45    2.45
  -1  -5  11    4.46    1.37
  -1  -5  11    2.29    1.21
  -5   1  11    3.07    1.08
  -1  -5  11    5.05    1.30
  -5   1  11    3.54    1.19
   5  -2 -11    0.74    0.47
   2   5 -11   -0.83    2.13
   5  -2 -11    0.29    0.42
  -5   2  11   -0.50    0.49
  -2  -5  11    0.53    0.92
  -2  -5  11    2.20    0.72
  -2  -5  11    1.22    0.47
  -5   2  11    0.45    0.69
   3   5 -11    7.68    3.30
   3   5 -11    9.19    3.20
   5  -3 -11    8.14    3.14
   5  -3 -11   14.08    3.01
   3   5 -11    2.62    4.11
  -5   3  11   15.35    3.20
  -3  -5  11    7.96    3.17
  -3  -5  11   10.43    3.05
  -3  -5  11   16.66    3.04
  -5   3  11   12.19    3.05
   4   5 -11   -1.04    2.05
   5  -4 -11   -0.03    0.37
   4   5 -11    0.11    0.47
   4   5 -11    0.15    0.59
   4   5 -11    0.27    0.73
  -4  -5  11    0.03    0.54
  -4  -5  11    0.93    2.07
  -4  -5  11   -0.04    0.86
  -5   4  11   -0.02    0.42
  -4  -5  11    0.16    0.43
   5   5 -11    0.16    0.48
   5   5 -11    0.13    2.02
   5  -5 -11    0.68    0.66
   5  -5 -11    1.20    3.38
  -5   5  11   -0.31    1.09
  -5  -5  11   -0.56    0.83
  -5  -5  11    0.71    0.56
   5  -6 -11    5.94    3.98
   6   5 -11    3.54    1.30
   5  -6 -11    3.44    1.48
  -5   6  11    7.68    2.43
  -5   6  11    4.57    1.77
  -5   6  11    5.11    1.48
  -6  -5  11    4.54    1.34
  -6  -5  11    3.16    1.49
   4  -6 -11   27.72   11.09
   4  -6 -11   38.13    9.83
  -4   6  11   32.91    9.94
  -4   6  11   30.02   10.65
  -4   6  11   38.61   10.14
  -4   6  11   40.51    9.95
  -6  -4  11   40.59    9.84
  -6  -4  11   35.01    9.44
   3  -6 -11    0.36    0.29
   6   3 -11    0.40    0.47
   3  -6 -11   -0.45    1.42
   3  -6 -11   -7.70    3.68
   3  -6 -11   -0.30    0.64
  -3   6  11    0.33    0.31
  -6  -3  11   -0.08    0.71
  -3   6  11    0.31    0.90
  -3   6  11    0.32    0.73
  -6  -3  11    0.26    0.52
  -3   6  11    0.25    1.18
   2  -6 -11   59.31   16.01
   6   2 -11   61.76   15.34
  -6  -2  11   52.34   16.18
  -6  -2  11   62.77   15.53
  -2   6  11   55.49   15.86
  -2   6  11   50.25   16.57
   1  -6 -11   -8.75    4.32
   6   1 -11    3.99    1.24
   1  -6 -11    4.75    1.38
  -6  -1  11    4.42    1.28
  -1   6  11    4.20    1.30
  -6  -1  11    5.73    1.40
  -1   6  11    4.57    1.62
   6   0 -11   -0.14    0.40
   0  -6 -11   -1.05    0.76
   0   6 -11    0.77    2.40
   0  -6  11   -0.18    0.97
   0   6  11   -0.42    1.15
  -6   0  11   -0.39    0.52
   0   6  11   -0.84    0.67
  -6   0  11   -0.50    0.65
   0  -6  11   -0.79    0.97
   6  -1 -11    6.25    1.36
   1   6 -11    3.90    2.78
  -1  -6 -11    0.63    3.36
  -1  -6  11    5.46    1.52
  -1  -6  11    5.56    1.54
  -6   1  11    4.11    1.40
  -6   1  11    3.98    1.51
  -1  -6  11    4.70    1.67
   2   6 -11   57.87   19.08
   2   6 -11   58.96   18.51
   6  -2 -11   63.52   17.18
  -6   2  11   68.62   17.46
  -2  -6  11   58.53   17.07
  -2  -6  11   57.85   17.30
  -2  -6  11   78.14   21.96
  -2  -6  11   65.54   17.67
  -6   2  11   68.37   18.00
   6  -3 -11    0.57    0.44
   6  -3 -11    0.54    0.61
   3   6 -11    0.19    0.95
   3   6 -11    1.08    2.03
   3   6 -11   -0.09    0.74
  -3  -6  11    1.79    2.69
  -3  -6  11    0.47    0.48
  -3  -6  11    0.67    0.89
  -6   3  11    1.04    0.48
  -3  -6  11    0.58    0.64
  -6   3  11    0.03    0.65
   4   6 -11   32.06   10.84
   4   6 -11   28.74   11.58
   4   6 -11   38.21   10.06
   4   6 -11   44.93   10.82
   6  -4 -11   36.43   10.48
  -6   4  11   48.68   10.96
  -4  -6  11   34.33   12.37
  -4  -6  11   40.56   10.13
  -4  -6  11   39.80   10.57
  -4  -6  11   37.65   10.55
   5   6 -11    5.68    2.70
   5   6 -11    5.22    1.37
   6  -5 -11    4.91    1.54
  -5  -6  11    4.43    1.40
  -5  -6  11    3.28    1.62
   6   6 -11    0.37    0.58
   6  -6 -11    0.19    0.84
  -6   6  11   -0.56    1.33
  -6  -6  11   -0.18    0.92
  -6  -6  11   -0.04    0.64
   6  -7 -11   -0.37    4.21
   6  -7 -11    0.17    0.94
   7   6 -11    0.26    0.61
  -7  -6  11    0.05    0.92
  -6   7  11    0.75    1.50
  -7  -6  11    0.43    0.71
   5  -7 -11   -2.06    4.18
   5  -7 -11    0.04    0.87
   7   5 -11    0.49    0.62
  -7  -5  11    0.13    0.93
  -5   7  11    0.12    1.29
  -5   7  11    0.43    2.22
  -7  -5  11   -0.47    0.65
   4  -7 -11    3.25    1.14
   4  -7 -11    0.68    3.89
  -4   7  11    2.95    1.96
  -7  -4  11    2.56    1.18
  -4   7  11    3.26    1.45
   3  -7 -11    7.41    4.84
   7   3 -11   10.11    2.45
   3  -7 -11    9.49    2.61
  -3   7  11    9.77    3.04
  -7  -3  11    6.83    2.64
  -3   7  11    9.45    2.78
  -7  -3  11    8.02    2.53
   2  -7 -11    0.51    4.43
   2  -7 -11    2.67    1.21
   7   2 -11    3.37    1.06
  -7  -2  11    4.43    1.13
  -7  -2  11    3.69    1.25
  -2   7  11    3.53    1.55
   1  -7 -11   13.04    4.86
   7   1 -11    5.97    1.57
   1  -7 -11    4.83    1.67
  -7  -1  11    3.90    1.62
  -7  -1  11    6.30    1.69
   1  -7  11    5.93    1.97
  -1   7  11    5.98    1.93
   0   7 -11   19.47    6.66
   0  -7 -11   24.99    7.66
   7   0 -11   21.07    5.36
   0  -7 -11   19.46    5.52
  -7   0  11   22.07    5.47
   0   7  11   19.88    5.89
   0  -7  11   19.37    5.68
   0  -7  11   19.09    5.52
   0  -7  11   18.28    5.62
  -7   0  11   15.46    5.59
   1   7 -11    3.72    2.97
   7  -1 -11    4.80    1.38
  -1  -7 -11    1.58    4.27
  -1  -7 -11    4.40    1.57
   1   7  11    3.08    1.97
  -1  -7  11    4.51    1.71
  -1  -7  11    7.09    1.57
  -7   1  11    4.22    1.51
  -1  -7  11    4.93    1.50
  -7   1  11    4.33    1.42
   2   7 -11    2.47    1.37
   2   7 -11    3.66    2.57
   7  -2 -11    2.83    1.06
  -2  -7  11    3.31    1.42
  -2  -7  11    3.33    1.19
  -7   2  11    4.66    1.21
   3   7 -11   10.97    4.06
  -3  -7  11   12.84    3.08
  -7   3  11    8.95    3.24
  -3  -7  11   11.83    3.28
   7  -4 -11    5.70    1.28
   4   7 -11    2.47    2.66
   4   7 -11    3.53    1.14
  -4  -7  11    2.77    1.42
  -4  -7  11    3.28    1.17
  -7   4  11    3.33    1.28
   5   7 -11   -0.40    0.61
   5   7 -11    0.16    2.44
   7  -5 -11    0.12    0.85
  -5  -7  11   -0.05    1.01
  -7   5  11    0.74    0.75
  -5  -7  11    0.33    0.63
   7  -6 -11    0.17    0.94
   6   7 -11    0.10    0.62
   6   7 -11   -0.54    2.63
  -6  -7  11    0.33    0.98
  -6  -7  11    0.93    0.68
   7  -7 -11    0.19    1.02
   7   7 -11   -0.05    0.69
  -7  -7  11   -0.63    0.75
  -7  -7  11   -0.25    1.04
   8   7 -11    0.43    0.79
   7  -8 -11    0.37    1.17
  -8  -7  11    0.77    1.13
  -8  -7  11    2.38    0.95
   6  -8 -11  -11.77    5.06
   6  -8 -11    0.05    1.06
   8   6 -11    0.06    0.75
  -8  -6  11    1.40    0.86
  -8  -6  11   -0.44    1.01
  -6   8  11   -0.81    1.69
   5  -8 -11   10.27    5.68
   5  -8 -11   13.20    3.46
   8   5 -11   15.18    3.24
  -5   8  11   14.28    4.53
  -8  -5  11   10.75    3.44
  -8  -5  11   10.76    3.31
  -5   8  11    7.35    3.65
   4  -8 -11    2.30    4.21
   4  -8 -11    1.37    1.00
  -4   8  11    1.27    2.09
  -8  -4  11    2.32    1.04
  -4   8  11    1.77    1.41
   3  -8 -11    6.23    5.69
   3  -8 -11   11.95    3.35
   8   3 -11   13.36    3.22
  -3   8  11   11.74    3.75
  -8  -3  11   10.37    3.28
  -3   8  11   12.84    3.52
  -8  -3  11   13.59    3.36
   2  -8 -11    8.04    5.88
   2  -8 -11   10.02    2.49
   8   2 -11    7.34    2.38
  -8  -2  11    8.95    2.45
  -2   8  11    8.67    2.80
  -8  -2  11    8.46    2.50
   1  -8 -11    4.56    5.54
   8   1 -11    4.64    1.69
   1  -8 -11    5.37    1.82
   1  -8  11   10.44    2.13
   1  -8  11    9.47    2.01
  -8  -1  11    4.25    1.79
  -1   8  11    5.06    2.10
   0   8 -11   -1.79    2.73
   8   0 -11   -0.25    0.53
   0  -8 -11    0.24    0.82
   0  -8 -11   -1.78    5.02
   0  -8  11    0.36    1.00
  -8   0  11   -0.69    0.72
   0   8  11   -0.44    1.35
   0  -8  11    0.63    1.11
   0  -8  11    0.37    1.01
   1   8 -11    6.53    3.37
   1   8 -11    4.61    2.04
  -1  -8 -11    7.02    1.89
  -1  -8 -11    4.98    5.06
  -1  -8  11    6.87    2.03
  -8   1  11    6.73    1.82
  -1  -8  11    6.10    1.88
  -1  -8  11    5.57    1.86
   1   8  11    3.90    2.29
  -2  -8 -11    6.96    4.85
   2   8 -11    9.18    3.45
   2   8 -11    7.35    2.51
   2   8 -11    8.07    2.74
  -8   2  11    6.30    2.28
  -2  -8  11    8.41    2.22
  -2  -8  11    6.59    2.22
  -2  -8  11   10.08    4.54
  -2  -8  11    6.99    2.47
   3   8 -11    8.50    2.88
   3   8 -11    8.62    3.86
   3   8 -11    8.50    2.86
  -3  -8  11    5.30    4.38
  -3  -8  11    6.39    2.81
  -3  -8  11   10.87    2.54
  -3  -8  11   10.72    2.58
  -8   3  11    7.62    2.72
   4   8 -11    1.85    2.74
   4   8 -11    1.41    0.71
   4   8 -11    1.10    1.14
  -8   4  11    0.94    0.81
  -4  -8  11    1.20    0.77
  -4  -8  11    1.52    1.21
   8  -5 -11   12.81    3.52
   5   8 -11   13.84    3.28
   5   8 -11   14.32    4.68
  -8   5  11   12.12    3.58
  -5  -8  11   10.94    3.61
  -5  -8  11    9.53    3.30
   6   8 -11    1.85    2.96
   6   8 -11    0.59    0.66
   8  -6 -11    0.92    1.03
  -6  -8  11   -0.16    1.12
  -6  -8  11    0.04    0.72
   8  -7 -11    0.69    1.25
   7   8 -11    1.75    0.94
  -7  -8  11    3.78    1.29
  -7  -8  11    2.45    0.99
   8  -8 -11   -0.40    1.17
   8   8 -11    0.20    0.78
  -8  -8  11    0.11    0.92
  -8  -8  11    0.05    1.06
   8  -9 -11    0.98    1.34
  -9  -8  11    1.76    1.29
   7  -9 -11    3.87    1.40
   9   7 -11    1.57    1.10
  -9  -7  11    2.48    1.38
  -7   9  11    4.02    2.03
   9   6 -11   -0.07    0.79
   6  -9 -11    0.05    1.07
   6  -9 -11    0.07    5.43
  -9  -6  11    1.40    1.08
  -6   9  11   -0.87    1.73
   9   5 -11    8.37    1.97
   5  -9 -11    6.37    2.20
  -5   9  11    3.80    2.53
  -5   9  11    8.51    3.60
  -9  -5  11    6.09    2.12
   4  -9 -11    9.47    2.64
   4  -9 -11    9.85    5.54
  -9  -4  11    8.21    2.60
  -4   9  11    7.08    2.94
  -4   9  11    7.66    3.63
   3  -9 -11   -0.86    5.17
   3  -9 -11    0.37    0.91
  -3   9  11    0.47    1.96
  -3   9  11   -0.06    1.43
   2  -9 -11    5.57    1.91
   2  -9 -11    1.98    6.02
  -2   9  11    7.94    2.41
   1  -9 -11   -0.72    5.98
   1  -9 -11    1.47    0.99
   1  -9  11    2.35    1.39
   1  -9  11    2.13    1.35
  -1   9  11    0.84    1.50
   0   9 -11    4.11    3.04
   0  -9 -11    0.15    0.93
   0  -9 -11    7.72    6.04
   0  -9  11    0.22    1.14
   0  -9  11    2.01    1.20
   0   9  11    0.60    1.48
   0  -9  11    1.07    1.23
   1   9 -11    0.86    1.25
  -1  -9 -11    2.95    5.47
  -1  -9 -11    1.73    1.05
   1   9 -11   -0.84    3.08
  -1  -9  11    1.13    0.99
  -1  -9  11    1.57    1.31
  -1  -9  11   -2.94    4.01
   1   9  11    1.78    1.65
  -1  -9  11    0.61    0.96
  -2  -9 -11    3.86    5.59
   2   9 -11    7.41    2.58
   2   9 -11    3.35    3.41
   2   9 -11    7.10    2.21
  -2  -9  11    7.69    1.91
  -2  -9  11    7.27    1.90
  -2  -9  11    5.59    2.17
  -2  -9  11    2.98    4.49
   2   9  11    4.06    2.51
   3   9 -11   -0.41    1.09
   3   9 -11   -1.19    1.43
   3   9 -11    1.01    0.68
   3   9 -11    0.47    2.86
  -3  -9  11   -1.75    3.42
  -3  -9  11   -0.29    1.22
  -3  -9  11   -0.46    0.78
  -3  -9  11    0.04    0.74
   4   9 -11   13.02    2.93
   4   9 -11   11.29    4.37
  -4  -9  11    8.65    3.23
  -4  -9  11    9.59    2.95
   5   9 -11    6.89    1.88
   5   9 -11    6.35    3.72
  -5  -9  11    5.68    2.27
  -5  -9  11    6.23    1.89
   6   9 -11    0.06    0.80
   6   9 -11    1.48    3.12
  -6  -9  11   -1.07    0.75
  -6  -9  11   -0.35    1.32
   7   9 -11    5.82    3.31
   7   9 -11    1.49    1.06
  -7  -9  11    3.81    1.48
  -7  -9  11    2.52    1.15
   8   9 -11    1.81    0.96
  -8  -9  11    0.12    1.27
  -8  -9  11    1.65    0.99
   8 -10 -11    0.27    1.46
   7 -10 -11    0.82    1.33
  -7  10  11    1.72    2.11
   6 -10 -11    0.84    5.63
   6 -10 -11    0.59    1.29
  -6  10  11   -0.24    3.76
  -6  10  11    1.14    1.92
   5 -10 -11    2.01    1.27
   5 -10 -11   -3.19    5.94
  -5  10  11    5.29    3.27
  -5  10  11    1.49    1.86
   4 -10 -11   -3.75    5.44
   4 -10 -11    2.41    1.19
  -4  10  11    0.91    1.74
  -4  10  11    1.37    2.66
   3 -10 -11    0.05    1.27
  -3  10  11    2.40    1.74
  -3  10  11    3.35    2.31
  -2  10  11   11.55    2.96
  -2  10  11    4.41    2.68
   1 -10  11   -0.08    1.43
  -1  10  11   -3.89    1.88
   1 -10  11   -0.21    1.38
   0  10 -11    0.73    3.13
   0  10 -11    0.60    1.35
   0 -10  11   -1.43    1.33
   0 -10  11   -0.06    1.20
   0  10  11   -3.46    1.83
   0 -10  11   -0.18    1.20
  -1 -10 -11   -3.79    1.37
   1  10 -11   -0.61    1.49
   1  10 -11   -1.94    3.32
  -1 -10  11   -0.15    0.99
  -1 -10  11    0.54    1.29
  -1 -10  11  -12.14    4.46
  -1 -10  11    0.41    1.12
   1  10  11   -1.82    1.92
  -2 -10 -11    9.05    2.10
   2  10 -11    7.20    3.54
   2  10 -11    0.26    2.59
   2  10  11   12.04    2.74
  -2 -10  11    1.03    2.10
  -2 -10  11   13.50    4.85
   3  10 -11    1.52    3.30
   3  10 -11    1.96    1.88
   3  10 -11    3.72    1.08
   3  10 -11    2.73    1.53
  -3 -10  11    3.55    1.15
  -3 -10  11    2.47    1.66
   4  10 -11    2.15    3.17
   4  10 -11    1.78    0.79
  -4 -10  11    0.63    1.40
  -4 -10  11    0.45    0.82
   5  10 -11    2.38    3.28
   5  10 -11    1.66    0.83
  -5 -10  11    1.31    0.87
  -5 -10  11    0.64    1.42
   6  10 -11   -4.35    3.51
   6  10 -11    1.51    0.76
  -6 -10  11    0.33    0.87
  -6 -10  11   -1.02    1.37
   7  10 -11    8.46    3.54
   7  10 -11    1.12    1.04
  -7 -10  11    3.01    1.11
  -7 -10  11    2.21    1.59
   9  10 -11   -1.02    1.06
  -9 -10  11   -0.06    1.19
 -10 -10  11    0.47    1.43
  -7  11  11    0.58    2.25
   6 -11 -11    0.07    1.34
   6 -11 -11   -3.58    6.53
  -6  11  11    1.19    4.16
  -6  11  11    0.52    2.20
   5 -11 -11    2.06    1.32
   5 -11 -11   -5.80    6.19
  -5  11  11    0.28    2.01
  -5  11  11    1.77    3.62
   4 -11 -11    5.82    6.34
   4 -11 -11    4.98    1.74
  -4  11  11    0.81    3.29
  -4  11  11    3.99    2.23
   3 -11 -11    0.53    1.24
   3 -11 -11  -10.25    6.68
  -3  11  11    2.44    1.95
  -3  11  11   -0.45    2.56
   2 -11 -11   -0.77    1.25
   2 -11 -11    4.82    7.70
  -2  11  11   -1.34    1.96
  -2  11  11    0.63    2.19
   1 -11 -11   19.41    8.21
   1 -11 -11    3.52    1.34
   1 -11  11    0.15    1.50
  -1  11  11    0.87    2.10
   1 -11  11    0.23    1.61
   0  11 -11   12.89    3.71
   0  11 -11    5.85    4.89
   0 -11 -11   34.70    8.91
   0 -11 -11    8.72    3.32
   0  11  11   11.85    3.76
   0 -11  11   11.49    3.45
   0 -11  11   11.25    3.34
  -1 -11 -11    0.20    1.22
  -1 -11 -11    9.05    7.83
   1  11 -11   -0.37    1.62
   1  11 -11    0.44    2.85
   1  11 -11   -3.67    3.51
  -1 -11  11    0.79    1.46
  -1 -11  11    2.99    4.75
   1  11  11    1.61    1.97
  -1 -11  11   -0.31    1.01
  -1 -11  11    1.41    1.19
   2  11 -11   -0.99    1.49
   2  11 -11    4.33    3.48
   2  11 -11   -3.56    2.35
  -2 -11 -11   -1.27    7.17
  -2 -11 -11    0.36    1.23
   2  11  11    0.74    2.08
  -2 -11  11    1.10    0.87
  -2 -11  11    2.16    4.73
  -2 -11  11    2.43    1.39
  -2 -11  11   -0.60    1.09
   3  11 -11    4.95    3.37
   3  11 -11    0.21    0.79
   3  11 -11    1.09    1.88
   3  11 -11    0.64    1.43
  -3 -11  11    0.76    1.48
  -3 -11  11    1.15    0.86
   4  11 -11    2.64    3.64
   4  11 -11    4.23    1.23
  -4 -11  11    3.07    1.82
  -4 -11  11    2.92    1.21
   5  11 -11    4.87    3.50
   5  11 -11    2.03    0.96
  -5 -11  11    0.28    1.56
  -5 -11  11    1.83    0.94
   6  11 -11   -3.33    3.73
   6  11 -11    1.12    0.87
  -6 -11  11    0.14    1.51
  -6 -11  11   -0.39    0.97
   7  11 -11   -2.40    3.89
  -7 -11  11   -0.98    1.60
   8  11 -11   -0.08    1.04
   9  11 -11    1.08    1.07
  -9 -11  11   -1.43    1.50
 -10 -11  11    0.07    1.52
   9 -12 -11    1.50    1.73
   8 -12 -11    0.08    1.61
   7 -12 -11    3.29    6.98
  -7  12  11   -0.13    2.51
   4 -12 -11    0.14    1.35
  -4  12  11   -1.83    3.62
   3 -12 -11    0.07    1.32
  -3  12  11    2.00    2.93
   2 -12 -11   -1.06    1.40
  -2  12  11   -1.35    2.54
   1 -12 -11    3.96    1.51
   1 -12  11    0.32    1.76
  -1  12  11    3.05    2.46
   0 -12 -11   -0.81    1.28
   0  12 -11    2.43    1.80
   0 -12  11   -2.57    1.49
   0  12  11   -0.82    2.14
   1  12 -11    1.39    3.13
   1  12 -11    3.19    1.91
   1  12 -11    9.06    3.80
  -1 -12  11    1.54    1.70
  -1 -12  11    2.58    1.21
  -1 -12  11   -1.23    5.09
  -1 -12  11    1.86    1.43
   2  12 -11    0.95    3.67
   2  12 -11    0.07    1.68
   2  12 -11    0.24    2.54
  -2 -12  11    0.94    4.96
  -2 -12  11   -0.67    1.20
  -2 -12  11    1.09    0.90
  -2 -12  11    0.75    1.55
   3  12 -11   -0.84    0.80
  -3 -12 -11   -0.11    7.68
   3  12 -11   -2.89    3.60
  -3 -12  11    0.30    0.80
  -3 -12  11   -0.74    1.55
   4  12 -11    1.29    3.65
   4  12 -11    0.12    0.80
  -4 -12  11   -0.13    0.80
  -4 -12  11    0.22    1.71
   5  12 -11   -0.44    0.93
   5  12 -11   -2.80    3.77
  -5 -12  11    0.90    1.70
  -5 -12  11   -0.62    0.91
   6  12 -11   -3.99    4.32
   6  12 -11    5.14    1.10
  -6 -12  11    1.55    1.12
  -6 -12  11   -0.54    1.92
   8  12 -11   -0.48    4.19
   8  12 -11   -1.62    1.05
  -8 -12  11   -3.12    1.18
  -8 -12  11   -0.76    1.71
   9  12 -11    1.87    4.24
  -9 -12  11    1.48    1.69
 -10 -12  11   -0.07    1.69
   9 -13 -11   -0.09    1.88
   8 -13 -11   -2.40    1.71
  -8  13  11    0.71    5.48
   7 -13 -11   -4.55    1.70
   7 -13 -11   -2.62    7.04
  -7  13  11   -0.41    2.70
  -7  13  11    2.38    5.15
   6 -13 -11   -4.65    7.49
   6 -13 -11   -4.87    1.69
  -6  13  11   -0.25    2.58
  -6  13  11    0.31    4.77
   5 -13 -11    1.99    1.72
   5 -13 -11   -4.64    7.70
  -5  13  11    0.12    2.63
  -5  13  11    2.43    4.41
   4 -13 -11   -0.83    1.61
   4 -13 -11    4.42    8.12
  -4  13  11   -0.11    2.37
  -4  13  11    9.87    4.16
  -3  13  11   12.34    5.68
   2 -13 -11    5.01    1.79
   2 -13  11   -2.13    2.28
  -2  13  11   20.72    3.57
  -2  13  11   -1.50    2.77
   1 -13 -11   -9.84   10.12
   1 -13 -11    8.62    2.03
   1 -13  11    2.98    2.21
   0  13 -11    2.74    2.12
   0  13 -11   -0.75    3.87
   0 -13 -11   -8.19   10.19
   0 -13 -11    3.92    1.62
   0 -13  11   -4.42    5.78
   0  13  11    9.74    2.61
   0 -13  11    0.94    1.76
  -1 -13 -11   -2.00    1.50
   1  13 -11   -0.87    3.50
   1  13 -11   -2.49    1.92
  -1 -13 -11   -3.66    9.47
   1  13  11   -3.13    2.50
  -1 -13  11   -4.27    1.41
  -1 -13  11  -14.18    5.60
  -2 -13 -11   -1.01    1.53
  -2 -13 -11  -16.88    9.45
   2  13 -11    0.09    2.78
   2  13 -11    0.65    1.87
   2  13  11   -5.09    2.64
  -3 -13 -11   28.18   11.97
   7  13 -11    0.08    1.01
  -7 -13  11    0.92    1.08
   8  13 -11   -3.10    4.43
   8  13 -11    0.09    1.11
  -8 -13  11    0.48    1.11
  -8 -13  11   -1.17    1.86
   9  13 -11   18.36    6.59
  10  13 -11   -0.97    4.62
 -10 -13  11    0.24    1.81
  -8  14  11   11.36    6.74
   7 -14 -11    2.56    1.87
  -7  14  11    2.09    3.18
  -7  14  11   -8.41    5.69
   6 -14 -11    0.26    1.77
   6 -14 -11   -4.12    8.22
  -6  14  11    2.23    2.92
  -6  14  11    1.55    5.25
   5 -14 -11   -0.44    8.52
   5 -14 -11   -3.15    1.80
  -5  14  11    3.86    4.72
  -5  14  11    1.42    2.80
   4 -14 -11    0.08    1.68
   4 -14 -11    7.17    8.45
  -4  14  11   -1.69    2.67
  -4  14  11    0.42    4.34
   3 -14 -11   -0.42    1.68
   3 -14 -11   -5.90    9.36
  -3  14  11    4.08    3.96
  -3  14  11   -3.39    2.92
   2 -14 -11  -13.16   10.27
   2 -14 -11   -2.38    1.75
   2 -14  11    7.62    2.04
  -2  14  11    0.11    2.76
  -2  14  11   -0.11    3.41
   1 -14 -11    0.63   10.59
   1 -14 -11    0.67    1.66
  -1  14  11    2.23    2.80
  -1  14  11   -0.55    2.57
   0 -14 -11   -2.18    1.71
   0 -14 -11  -13.29   11.10
   0  14  11   -3.74    2.81
  -1 -14 -11    0.09    1.69
   1  14 -11    0.24    3.75
  -1 -14 -11   -3.51   10.88
  -1 -14  11    3.53    1.63
   1  14  11   -1.31    2.72
  -2 -14 -11    1.94    1.73
  -2 -14 -11   -7.72   10.87
   2  14  11    3.73    2.82
  -3 -14 -11   -6.78   10.63
   3  14  11    3.18    2.78
   8 -15 -11   -1.78    1.98
  -8  15  11    0.41    6.37
  -8  15  11   -1.56    3.29
   7 -15 -11    2.74    8.74
   7 -15 -11    0.29    2.01
  -7  15  11    0.49    3.20
  -7  15  11   -1.19    5.97
   6 -15 -11   -1.32    1.87
   6 -15 -11    5.72    8.82
  -6  15  11    4.62    5.56
  -6  15  11   -3.09    3.19
  -5  15  11    8.00    5.67
   4 -15 -11   -3.90    1.94
   4 -15 -11   -0.12    9.19
  -4  15  11   -0.27    3.14
  -4  15  11    4.83    4.52
   3 -15 -11    0.72    9.57
   3 -15 -11    0.83    1.97
  -3  15  11    5.52    3.18
  -3  15  11    0.14    3.96
   2 -15 -11    3.91   10.45
   2 -15 -11    3.89    1.92
  -2  15  11    3.33    3.00
   2 -15  11   -3.44    2.27
  -2  15  11    1.29    3.74
   1 -15 -11  -17.43   11.05
   1 -15 -11   -0.46    1.81
  -1  15 -11   -0.50    5.16
  -1  15  11   -0.60    3.25
  -1  15  11    2.44    2.99
   1 -15  11    0.51    2.12
   0  15 -11    0.46    2.25
   0 -15 -11    8.72   11.92
   0  15 -11    1.04    4.74
   0 -15 -11   -1.49    1.78
   0 -15  11   -0.48    6.55
   0  15  11    4.93    3.09
   0 -15  11   -0.09    1.87
  -1 -15 -11   -1.47    1.84
  -1 -15 -11    0.15   12.26
   1  15 -11   -0.26    4.13
   1  15 -11   -0.64    2.28
   1  15  11    4.05    3.12
  -2 -15 -11   -2.44   12.18
  -2 -15 -11    0.71    1.83
   2  15  11   -1.04    2.95
  -3 -15 -11    2.77   11.78
  -3 -15 -11   -1.19    1.85
   3  15  11   -1.25    3.11
  -8  16  11    2.66    5.41
  -8  16  11    1.79    8.87
   7 -16 -11    2.88    9.51
   7 -16 -11   -0.32    2.15
  -7  16  11   -0.36    3.73
  -7  16  11   14.18    6.84
   6 -16 -11    1.35    9.52
   6 -16 -11   -2.51    2.11
  -6  16  11    5.23    6.00
  -6  16  11   -0.69    3.50
   5 -16 -11    1.65    2.08
   5 -16 -11  -11.68   10.31
  -5  16  11    3.70    3.39
  -5  16  11   -2.02    5.42
   4 -16 -11   -4.62    2.03
   4 -16 -11    4.94    9.92
  -4  16  11   -0.68    5.06
  -4  16  11    0.61    3.48
   3 -16 -11    2.14    2.06
   3 -16 -11    3.04   10.62
  -3  16  11    0.16    4.43
  -3  16  11    4.11    3.47
   2 -16 -11    0.14   11.20
   2 -16 -11    0.10    1.92
   2 -16  11    1.43    2.40
  -2  16  11    3.01    4.12
  -2  16  11   -4.01    3.38
   1 -16 -11   -0.61    2.02
  -1  16 -11   -0.36    5.92
   1 -16  11   -1.87    2.20
  -1  16  11   -4.00    3.32
  -1  16  11    1.22    3.70
   0  16 -11    0.16    4.91
   0 -16 -11   -6.08    2.17
   0  16 -11   -2.38    2.55
   0 -16  11   -2.23    2.15
   0  16  11   -3.41    3.35
   0  16  11   -6.12    3.59
  -1 -16 -11   -5.01   13.92
  -1 -16 -11    0.33    1.99
   1  16  11    1.66    3.37
  -2 -16 -11  -16.47   13.63
  -2 -16 -11    0.22    1.94
   2  16  11    1.01    3.32
  -3 -16 -11   -0.17   12.95
  -3 -16 -11    2.01    2.04
   3  16  11   -4.62    3.45
   8 -17 -11    3.08    2.48
  -8  17  11  -11.30    7.22
   7 -17 -11    1.39    2.48
   7 -17 -11    7.44   10.50
  -7  17  11   -2.80    4.24
  -7  17  11   20.52    7.08
  -6  17  11   15.65    6.65
  -6  17  11   -6.47    4.21
   5 -17 -11  -11.11    2.65
   5 -17 -11  -21.35   11.80
  -5  17  11    0.18    4.00
  -5  17  11    0.60    6.02
   4 -17 -11    3.16   11.45
   4 -17 -11   -1.83    2.30
  -4  17  11    0.19    5.41
  -4  17  11   -7.39    4.00
   3 -17 -11   -5.66    2.17
   3 -17 -11   -0.59   11.42
  -3  17  11   -0.17    4.89
  -3  17  11    7.28    3.90
   2 -17 -11   -6.77   12.46
   2 -17 -11   -0.11    2.21
  -2  17 -11    0.84    6.73
  -2  17  11    5.15    4.43
   2 -17  11    5.55    2.75
  -2  17  11   -0.64    3.86
   1 -17 -11   -0.12    2.14
  -1  17 -11    0.19    6.00
   1 -17 -11    4.77   13.04
  -1  17  11   -2.92    4.08
  -1  17  11    8.34    3.64
   1 -17  11   -2.73    2.49
   0  17 -11    0.82    2.76
   0 -17 -11    4.74    2.31
   0 -17 -11    4.34   13.63
   0  17 -11    0.17    5.36
   0  17  11   -1.07    4.00
   0  17  11    4.94    3.70
  -1 -17 -11    2.17    2.17
  -1 -17 -11   10.56   14.86
   1  17  11   -5.48    3.92
  -2 -17 -11  -16.39   15.05
  -2 -17 -11   -5.23    2.20
   2  17  11   -7.48    3.82
  -3 -17 -11   -2.62   14.82
  -3 -17 -11   -0.13    2.18
   3  17  11   -2.92    3.81
  -8  18  11   11.98    8.42
   7 -18 -11   -2.94    2.62
   7 -18 -11   -3.54   11.76
  -7  18  11    1.45    7.13
  -7  18  11    1.33    4.44
   6 -18 -11   -2.51   11.85
   6 -18 -11    0.13    2.55
  -6  18  11   -0.21    4.54
  -6  18  11  -13.77    7.23
   5 -18 -11    0.13    2.46
   5 -18 -11    7.63   12.86
  -5  18  11    1.22    4.42
  -5  18  11   -1.73    6.30
   4 -18 -11    6.77    2.60
   4 -18 -11   -0.67   13.13
  -4  18  11   -1.56    4.36
  -4  18  11   -5.69    6.01
   3 -18 -11    2.25    2.40
   3 -18 -11  -28.88   13.57
  -3  18  11    1.34    5.16
  -3  18  11   -1.67    4.20
  -2  18 -11   -0.45    7.08
   2 -18 -11   -8.73    2.69
  -2  18  11  -11.89    4.57
  -2  18  11  -11.92    5.22
   2 -18  11   -0.55    2.91
  -3 -18 -11   -0.21   16.59
  -3 -18 -11    0.72    2.54
   3  18  11    3.85    4.47
   5 -19 -11   -2.23    2.81
  -5  19  11    2.85    6.96
   4 -19 -11   -2.92    2.79
  -4  19  11   -0.67    6.28
   3 -19 -11   -2.40   13.81
   3 -19 -11   -2.10    2.66
  -3  19  11   -1.68    4.94
  -3  19  11    9.87    6.01
   2 -19 -11  -10.54   15.21
   2 -19 -11    0.14    2.69
  -2  19  11    1.21    5.43
  -2  19  11    3.02    4.93
   1 -19 -11   -1.76   15.64
   1 -19 -11    2.56    2.70
  -1  19 -11   -0.66    6.83
  -1  19  11    3.75    5.24
  -1  19  11    0.20    4.62
   0 -19 -11   -0.21   16.55
   0 -19 -11   -1.46    2.60
   0  19  11    2.76    5.14
   0  19  11    0.57    4.54
  -1 -19 -11   -0.15    2.80
  -1 -19 -11   12.56   17.54
   1  19  11    3.22    5.00
   1  19  11   -1.64    4.50
  -2 -19 -11   -8.15    2.86
   2  19  11    3.18    5.28
  -3 -19 -11    0.16    2.83
   3  19  11   -5.85    5.15
   0   0  12   69.44   19.11
   0   1 -12   -0.22    1.75
   1   0 -12    0.73    1.82
  -1   0  12   -0.04    0.66
   0   1  12    0.51    0.74
  -1   0  12    0.18    0.82
   0  -1  12   -0.78    0.80
   1   1 -12   13.81    5.14
  -1  -1  12   17.44    4.30
  -1  -1  12   15.27    4.44
  -1   1  12   14.84    4.33
   1  -2 -12    0.20    1.62
   2   1 -12   -0.53    1.66
  -2  -1  12    0.04    0.75
  -2  -1  12   -0.14    0.61
   2   0 -12    4.22    2.27
   0   2 -12    4.05    2.51
   2   0 -12    4.69    1.87
  -2   0  12    6.04    1.52
   0  -2  12    4.17    1.68
   0  -2  12    5.70    1.70
  -2   0  12    6.34    1.68
   2  -1 -12    3.86    1.52
   2  -1 -12   -1.28    1.49
   1   2 -12   -0.41    1.93
  -2   1  12    0.12    0.53
  -1  -2  12    0.33    0.84
  -1  -2  12    0.51    0.74
  -2   1  12   -0.04    0.67
   2   2 -12    3.92    2.07
   2  -2 -12    4.77    2.34
  -2  -2  12    2.66    1.30
  -2  -2  12    3.54    1.17
   3   2 -12   -0.04    1.69
   2  -3 -12    1.58    0.55
   2  -3 -12    5.98    2.51
  -3  -2  12    0.08    0.81
  -2   3  12    0.29    0.82
  -3  -2  12   -0.39    0.61
  -2   3  12    2.08    0.83
   1  -3 -12   -1.55    2.15
   3   1 -12    0.19    1.65
   1  -3 -12   -1.16    1.69
  -3  -1  12    1.28    0.56
  -3  -1  12    1.49    0.74
   3   0 -12   -1.34    1.54
   0   3 -12    0.18    2.04
  -3   0  12   -0.42    0.72
  -3   0  12    0.70    0.48
   0  -3  12    0.38    0.86
   3  -1 -12    1.58    1.53
   1   3 -12    2.78    2.09
   3  -1 -12   -1.85    1.40
  -3   1  12    0.95    0.52
  -3   1  12    0.74    0.75
  -3   1  12    0.97    0.41
  -1  -3  12    0.88    0.83
   2   3 -12    1.43    1.85
   3  -2 -12    0.21    0.39
  -3   2  12    0.61    0.62
  -3   2  12    0.34    0.46
  -3   2  12   -0.10    0.50
  -2  -3  12    0.09    0.35
  -2  -3  12    0.44    0.80
   3   3 -12    7.19    3.08
   3  -3 -12    7.60    2.36
  -3   3  12    9.45    2.38
  -3  -3  12    7.73    2.44
  -3   3  12    8.64    2.50
   4   3 -12   17.84    4.16
  -4  -3  12    8.96    3.40
   2  -4 -12   -2.02    0.62
   4   2 -12   -0.13    0.42
   4   2 -12   -5.66    2.05
  -4  -2  12   -0.61    0.50
  -2   4  12   -3.56    0.97
  -2   4  12   -1.61    0.58
  -4  -2  12   -0.88    0.78
   4   1 -12   -0.09    0.38
   4   1 -12    0.15    1.71
  -1   4  12    0.51    0.63
  -4  -1  12    0.30    0.46
  -4  -1  12   -0.03    0.70
   0   4 -12    0.88    2.23
   4   0 -12    0.10    1.60
   4   0 -12    0.80    0.43
  -4   0  12    0.53    0.47
  -4   0  12    1.03    0.71
   0  -4  12    0.39    0.92
   0  -4  12    1.79    0.96
   4  -1 -12    0.01    0.23
   1   4 -12   -0.67    2.21
   4  -1 -12   -0.03    0.33
   4  -1 -12    0.77    1.53
  -1  -4  12   -0.05    0.81
  -4   1  12    0.32    0.39
  -4   1  12    0.02    0.40
  -1  -4  12   -0.61    0.93
  -4   1  12   -0.03    0.64
   4  -2 -12   -0.46    0.40
   4  -2 -12   -0.64    0.36
   2   4 -12   -0.66    2.08
  -2  -4  12    0.29    0.68
  -2  -4  12   -0.60    0.90
  -4   2  12   -0.71    0.64
  -4   2  12   -0.49    0.72
  -2  -4  12   -0.22    0.44
  -4   2  12   -0.95    0.72
  -4   2  12   -0.17    0.42
   3   4 -12   12.63    3.62
   3   4 -12    8.69    2.79
  -3  -4  12   11.17    2.69
  -3  -4  12    7.38    2.65
  -3  -4  12   10.59    2.84
   4  -4 -12    8.22    2.57
   4   4 -12   11.94    3.47
  -4   4  12    9.12    2.80
  -4  -4  12    7.31    2.68
  -4  -4  12    9.60    2.51
   4  -5 -12    2.45    3.89
   4  -5 -12    7.90    2.86
   5   4 -12    6.52    3.29
   4  -5 -12   11.74    2.39
  -4   5  12    8.36    2.48
  -4   5  12    7.88    2.52
  -4   5  12   12.55    2.71
  -5  -4  12    6.56    2.46
   3  -5 -12    7.90    3.43
   3  -5 -12    0.98    0.46
   3  -5 -12    0.76    1.60
   5   3 -12    1.06    1.96
   5   3 -12    1.33    0.56
  -3   5  12    4.10    1.00
  -5  -3  12    1.15    0.81
  -5  -3  12    0.96    0.61
  -3   5  12    1.21    0.86
  -3   5  12    0.93    0.48
  -3   5  12    0.78    0.88
   5   2 -12   33.32    8.67
   2  -5 -12   30.36   10.23
   5   2 -12   36.98   10.01
   2  -5 -12   37.03    9.06
  -2   5  12   20.32    8.93
  -2   5  12   37.23    9.41
  -2   5  12   35.94    9.39
   5   1 -12   -1.32    1.92
   5   1 -12    1.29    0.45
   1  -5 -12    2.97    3.64
  -1   5  12   -0.71    0.70
  -5  -1  12   -0.10    0.74
  -5  -1  12    0.69    0.48
   5   0 -12    0.97    0.49
   0   5 -12    1.90    2.64
   0  -5  12   -0.70    1.12
   0  -5  12   -0.25    1.10
   0   5  12    2.76    0.93
  -5   0  12    1.28    0.77
  -5   0  12    1.05    0.55
   5  -1 -12   -0.40    0.31
   1   5 -12   -2.41    2.58
   5  -1 -12    0.37    0.42
  -1  -5  12   -0.37    0.95
  -1  -5  12   -0.59    1.03
  -5   1  12   -1.36    0.64
  -5   1  12   -0.22    0.69
  -5   1  12    0.18    0.45
  -1  -5  12    0.58    0.72
   5  -2 -12   29.44    8.70
   2   5 -12   29.60    9.58
   5  -2 -12   32.55    8.34
  -5   2  12   34.46    8.42
  -2  -5  12   33.25    8.73
  -5   2  12   29.91    8.84
  -2  -5  12   26.19    8.40
  -2  -5  12   32.53    8.54
   3   5 -12    1.44    0.73
   3   5 -12    2.35    2.23
   5  -3 -12    1.89    0.56
   5  -3 -12    1.59    0.64
   3   5 -12    1.78    0.91
   5  -3 -12    0.71    1.56
  -3  -5  12    0.89    0.77
  -3  -5  12    1.11    0.56
  -5   3  12    0.88    1.17
  -5   3  12    1.58    0.97
  -5   3  12    1.30    0.79
  -3  -5  12    1.46    1.08
  -5   3  12    1.75    0.58
   4   5 -12    4.01    3.14
   4   5 -12    6.05    2.06
   5  -4 -12   10.54    2.73
   5  -4 -12    6.79    2.11
  -5   4  12    6.55    2.13
  -5   4  12   12.84    2.31
  -4  -5  12    5.32    2.30
  -4  -5  12    7.60    2.12
   5  -5 -12    7.55    1.96
   5  -5 -12    5.49    3.97
   5   5 -12    5.22    3.00
   5   5 -12    6.51    1.82
  -5  -5  12    8.05    1.86
  -5   5  12    5.87    2.19
  -5  -5  12    3.72    2.06
  -5   5  12    7.17    2.53
   6   5 -12    1.74    0.73
   5  -6 -12    0.75    0.88
   5  -6 -12    3.66    3.80
  -5   6  12    0.57    1.84
  -6  -5  12    1.75    1.02
  -5   6  12    1.86    1.28
  -6  -5  12    2.34    0.78
   4  -6 -12    6.11    4.48
   4  -6 -12    8.68    2.67
  -4   6  12    8.01    2.81
  -4   6  12   12.40    3.12
  -6  -4  12    9.76    2.74
   6   3 -12   32.98    7.45
   3  -6 -12   25.35    7.79
   3  -6 -12   23.74    9.31
  -3   6  12   23.61    8.14
  -6  -3  12   28.67    7.83
  -3   6  12   27.25    7.71
  -3   6  12   27.99    7.90
  -6  -3  12   30.68    7.53
  -3   6  12   30.30    8.09
   6   2 -12    8.19    1.95
   2  -6 -12    6.58    2.09
   2  -6 -12    0.27    4.62
  -2   6  12    6.39    2.00
  -6  -2  12    7.82    2.16
  -6  -2  12    7.61    2.01
  -2   6  12    7.37    2.29
   1  -6 -12    2.76    4.24
   6   1 -12    4.62    1.40
   1  -6 -12    4.78    1.55
  -6  -1  12    6.59    1.46
  -1   6  12    3.10    1.80
  -6  -1  12    5.14    1.59
  -1   6  12    5.13    1.50
   0  -6 -12   53.89   13.34
   0  -6 -12   50.80   15.34
   0   6 -12   45.80   14.76
   6   0 -12   50.02   12.78
   0   6  12   32.49   13.79
   0  -6  12   37.76   13.37
  -6   0  12   56.51   12.90
  -6   0  12   52.34   13.40
   0   6  12   33.96   14.45
   0  -6  12   56.80   13.07
   1   6 -12    2.49    2.95
   6  -1 -12    3.99    1.34
  -1  -6 -12    8.60    3.46
  -1  -6  12    4.94    1.72
  -6   1  12    5.01    1.39
  -6   1  12    4.58    1.52
  -1  -6  12    4.35    1.57
   6  -2 -12    8.41    2.24
   2   6 -12    8.36    3.29
   6  -2 -12    7.87    2.12
  -6   2  12    7.94    2.16
  -2  -6  12    6.37    2.22
  -6   2  12    6.05    2.31
  -2  -6  12    9.46    2.40
  -2  -6  12    7.53    2.18
   6  -3 -12   26.09    7.58
   6  -3 -12   31.25    7.86
   3   6 -12   24.44    8.69
   3   6 -12   30.67    7.80
   3   6 -12   25.16    8.22
  -3  -6  12   24.16    7.77
  -6   3  12   23.00    8.00
  -3  -6  12   28.14    7.48
  -6   3  12   33.89    7.68
   6  -4 -12    9.37    2.93
   4   6 -12    9.35    3.99
   4   6 -12   10.14    2.84
  -6   4  12   12.04    2.97
  -4  -6  12   10.06    2.88
  -6   4  12   14.37    3.13
  -4  -6  12    8.30    3.09
   5   6 -12    3.82    0.86
   5   6 -12    4.33    2.55
   6  -5 -12    3.22    0.99
  -6   5  12    2.01    1.38
  -5  -6  12    0.24    1.13
  -5  -6  12    1.65    0.89
  -6   5  12    2.05    1.00
   6   6 -12    5.74    2.69
   6  -6 -12    1.92    4.16
   6  -6 -12    2.66    1.35
   6   6 -12    4.76    1.18
  -6   6  12    4.00    1.70
  -6  -6  12    3.04    1.18
  -6  -6  12    3.27    1.42
   7   6 -12    0.59    0.64
   6  -7 -12    0.75    0.97
   6  -7 -12    0.66    4.25
  -7  -6  12    0.77    1.05
  -6   7  12    0.81    1.50
  -7  -6  12    0.89    0.80
   7   5 -12    7.81    2.05
   5  -7 -12    7.08    4.69
   5  -7 -12    6.48    2.22
  -7  -5  12    6.39    2.11
  -5   7  12    6.47    2.49
  -7  -5  12    8.71    2.27
  -5   7  12    9.59    3.11
   4  -7 -12    4.01    3.92
   4  -7 -12    1.01    0.84
  -4   7  12    1.23    1.72
  -4   7  12    1.80    1.26
  -7  -4  12    1.06    0.96
   3  -7 -12    4.91    4.93
   7   3 -12   11.64    2.30
   3  -7 -12    7.61    2.42
  -3   7  12    7.82    2.72
  -7  -3  12    7.33    2.35
  -3   7  12    7.71    2.58
  -7  -3  12    8.94    2.45
   7   2 -12    9.84    1.96
   2  -7 -12    3.74    4.97
   2  -7 -12    8.17    2.08
  -7  -2  12    5.76    2.10
  -2   7  12    4.87    2.31
  -7  -2  12    6.25    1.98
   1  -7 -12    8.00    5.20
   1  -7 -12    7.12    2.18
   7   1 -12    4.49    2.01
  -7  -1  12    8.99    2.23
  -7  -1  12    7.86    2.09
  -1   7  12    7.81    2.43
   0  -7 -12   -4.64    4.36
   0   7 -12   -0.36    2.69
   0  -7 -12    0.42    0.79
   7   0 -12   -0.34    0.51
  -7   0  12    0.04    0.74
  -7   0  12   -0.04    0.60
   0  -7  12    0.44    0.96
   0  -7  12    1.24    1.15
   0   7  12    0.06    1.29
   0  -7  12    0.64    1.12
   1   7 -12    6.74    3.77
   7  -1 -12    8.77    2.36
  -1  -7 -12   14.15    4.75
  -7   1  12    9.62    2.43
  -1  -7  12    9.39    2.65
  -7   1  12   10.13    2.55
  -1  -7  12    7.19    2.52
  -1  -7  12    8.38    2.52
   1   7  12    3.59    2.96
   2   7 -12    5.17    2.20
   7  -2 -12    7.26    1.92
   2   7 -12    5.96    3.28
  -2  -7  12    5.59    2.02
  -7   2  12    8.81    2.08
  -2  -7  12    7.13    2.22
  -7   2  12    6.14    1.97
   7  -3 -12    4.72    1.91
   3   7 -12    9.94    3.23
  -3  -7  12    9.83    1.93
  -3  -7  12    4.79    2.17
  -7   3  12    3.45    2.08
   4   7 -12    0.81    2.68
   7  -4 -12    5.88    0.94
   4   7 -12    0.50    0.86
  -7   4  12    1.75    1.02
  -4  -7  12    2.16    0.94
  -4  -7  12    0.42    1.20
   7  -5 -12    6.82    2.21
   5   7 -12    6.08    2.02
   5   7 -12   10.01    3.53
  -5  -7  12    5.39    2.29
  -5  -7  12    7.36    2.05
  -7   5  12    8.89    2.29
   6   7 -12    4.13    2.82
   6   7 -12    0.67    0.72
   7  -6 -12    0.12    0.94
  -6  -7  12    0.52    0.71
  -6  -7  12    0.47    1.12
   7  -7 -12    0.37    1.02
   7   7 -12   -0.91    0.79
  -7  -7  12   -2.81    1.04
   7  -8 -12    0.15    1.09
   8   7 -12   -0.31    0.79
  -8  -7  12    0.91    1.12
  -7   8  12    0.74    1.69
  -8  -7  12    1.36    0.91
   6  -8 -12    1.66    1.08
   8   6 -12    0.53    0.70
   6  -8 -12   -8.04    4.89
  -8  -6  12    0.52    0.89
  -6   8  12    1.28    2.89
  -6   8  12    1.35    1.64
  -8  -6  12   -0.05    1.05
   5  -8 -12   -4.46    4.52
   5  -8 -12    1.69    0.97
   8   5 -12    0.62    0.74
  -8  -5  12    0.50    0.83
  -5   8  12    0.53    1.47
  -8  -5  12    1.31    1.01
  -5   8  12    0.39    2.42
   4  -8 -12    9.55    6.24
   4  -8 -12   16.87    4.22
  -4   8  12   15.41    4.40
  -4   8  12   13.44    4.88
  -8  -4  12   14.58    4.21
   3  -8 -12    2.92    1.17
   8   3 -12    2.54    0.97
   3  -8 -12   -1.52    4.98
  -8  -3  12    3.44    1.21
  -3   8  12    2.05    1.75
  -8  -3  12    3.80    1.11
  -3   8  12    2.81    1.50
   2  -8 -12    1.22    5.86
   2  -8 -12    7.57    2.43
   8   2 -12    9.40    2.30
  -8  -2  12    8.11    2.37
  -8  -2  12    9.31    2.46
  -2   8  12    8.18    2.72
   1  -8 -12    3.37    1.25
   1  -8 -12    0.06    5.35
   8   1 -12    2.21    1.07
  -8  -1  12    3.34    1.16
  -1   8  12    3.29    1.62
   1  -8  12    2.68    1.75
  -8  -1  12    5.39    1.27
   0   8 -12   11.78    4.40
   0  -8 -12    6.15    6.21
   0  -8 -12   10.38    2.97
   8   0 -12    9.37    2.84
   0  -8  12    9.15    3.04
   0  -8  12   13.11    3.07
   0  -8  12    7.91    3.13
  -8   0  12    9.88    2.92
   0   8  12   11.87    3.29
  -8   0  12   10.64    3.00
  -1  -8 -12    2.45    4.77
   1   8 -12    2.19    3.22
  -1  -8 -12    2.65    1.37
   8  -1 -12    3.16    1.11
   1   8  12    1.80    1.84
  -1  -8  12    3.56    1.40
  -1  -8  12    5.12    1.61
  -8   1  12    3.96    1.29
  -1  -8  12    4.29    1.33
   2   8 -12    4.96    2.84
   2   8 -12    5.92    2.60
   2   8 -12   10.99    3.77
  -2  -8  12    9.76    2.35
  -2  -8  12   14.55    4.77
  -8   2  12    8.10    2.41
  -2  -8  12    6.47    2.30
  -2  -8  12    6.79    2.54
   3   8 -12    3.93    2.83
  -3  -8  12    2.66    1.32
  -8   3  12    1.93    1.03
  -3  -8  12    1.22    0.94
   4   8 -12   19.91    6.14
   4   8 -12   18.60    4.81
  -4  -8  12   18.22    4.85
  -8   4  12   15.11    5.19
  -4  -8  12   18.23    5.16
   5   8 -12   -1.08    2.94
   5   8 -12    0.36    0.68
  -8   5  12    1.37    0.89
  -5  -8  12   -0.17    1.22
  -5  -8  12    0.40    0.77
   6   8 -12    1.26    0.77
   6   8 -12    2.64    3.13
  -6  -8  12    0.34    1.25
  -6  -8  12    1.08    0.87
   7   8 -12    1.46    3.09
   8  -7 -12    0.25    1.07
   7   8 -12    0.91    0.81
  -7  -8  12    0.06    1.21
  -7  -8  12    0.20    0.90
   8   8 -12    0.20    0.83
   8  -8 -12   -0.33    1.17
  -8  -8  12    0.28    0.92
  -8  -8  12    0.28    1.17
   8  -9 -12    1.98    1.42
   7  -9 -12    0.11    1.25
  -7   9  12    1.38    1.93
  -9  -7  12    0.06    1.13
   6  -9 -12    1.94    1.22
   9   6 -12    1.08    0.94
   6  -9 -12   10.63    5.19
  -6   9  12   -0.09    1.87
  -9  -6  12    0.65    1.06
  -9  -6  12    1.18    1.20
  -6   9  12    0.41    3.20
   5  -9 -12   10.38    2.39
   9   5 -12    5.70    2.18
   5  -9 -12   -1.27    5.75
  -9  -5  12    9.85    2.25
  -5   9  12    6.30    2.69
  -5   9  12    7.83    3.52
  -9  -5  12    6.93    2.37
  -4   9  12    1.34    2.17
  -9  -4  12    9.34    1.90
  -4   9  12    3.29    2.82
   9   3 -12   12.07    3.60
   3  -9 -12   14.22    3.78
   3  -9 -12    0.51    6.84
  -9  -3  12   15.77    3.75
  -3   9  12   16.28    4.04
  -3   9  12   10.26    4.30
   2  -9 -12    0.51    0.93
   2  -9 -12   -3.57    6.37
   9   2 -12    0.91    0.66
  -9  -2  12    0.60    0.90
  -2   9  12    0.17    1.60
   1  -9 -12    4.59    1.57
   1  -9 -12   -0.96    6.27
  -1   9  12    5.82    1.98
   1  -9  12    4.66    1.94
  -9  -1  12    3.35    1.58
   1  -9  12    6.65    1.88
   0   9 -12    2.11    3.02
   0  -9 -12    0.27    0.94
   0  -9 -12   -3.52    6.24
   0  -9  12    0.20    1.26
   0  -9  12   -0.21    1.25
  -9   0  12    0.61    0.83
   0   9  12   -0.32    1.49
   0  -9  12    0.23    1.19
   1   9 -12    7.50    3.61
  -1  -9 -12    9.84    5.99
   1   9 -12    5.09    1.99
  -1  -9 -12    3.84    1.80
   1   9  12    5.62    2.34
  -1  -9  12    6.20    1.84
  -1  -9  12    3.71    2.03
  -1  -9  12    7.09    1.81
   2   9 -12   -0.29    1.90
   2   9 -12    1.14    3.02
   2   9 -12    0.68    1.25
  -2  -9 -12    3.78    5.18
  -2  -9  12   -0.28    3.95
  -2  -9  12   -0.40    0.99
  -2  -9  12   -0.06    1.38
  -2  -9  12    0.76    0.85
   3   9 -12   14.27    5.50
  -3  -9  12   13.80    4.43
  -3  -9  12   15.63    4.07
   4   9 -12    2.43    1.80
   4   9 -12    9.40    3.72
  -4  -9  12    8.56    1.87
  -4  -9  12    8.62    2.28
   5   9 -12    8.23    2.10
   5   9 -12    8.57    4.00
  -5  -9  12    6.05    2.54
  -5  -9  12    6.62    2.13
   6   9 -12    4.65    3.37
   6   9 -12    2.33    1.00
  -6  -9  12    1.56    1.05
  -6  -9  12    1.49    1.50
   7   9 -12    3.33    3.47
   7   9 -12    0.32    0.87
  -7  -9  12   -0.12    1.39
  -7  -9  12    1.39    0.95
  -8  -9  12   -0.06    1.29
   9   9 -12   -0.87    1.06
  -9  -9  12   -2.18    1.15
   9 -10 -12   -0.21    1.45
 -10  -9  12   -0.07    1.35
   8 -10 -12   -3.38    1.65
 -10  -8  12    0.06    1.28
   7 -10 -12    0.91    5.84
   7 -10 -12   -1.80    1.37
  -7  10  12    1.78    4.19
  -7  10  12    0.74    2.14
   6 -10 -12   -1.76    5.73
   6 -10 -12   -0.46    1.21
  -6  10  12    0.12    3.58
  -6  10  12    0.09    1.97
   5 -10 -12    1.78    1.33
   5 -10 -12    3.66    5.65
  -5  10  12    3.55    3.17
  -5  10  12    0.33    1.93
   4 -10 -12    6.11    2.10
   4 -10 -12    2.68    6.05
  -4  10  12   10.75    3.21
  -4  10  12    4.77    2.49
   3 -10 -12    2.94    1.14
   3 -10 -12   -4.41    6.00
  -3  10  12   -1.07    1.81
  -3  10  12   -0.07    2.17
   2 -10 -12    1.98    1.14
  -2  10  12    0.93    1.86
   1 -10 -12   -2.03    1.18
   1 -10  12   -0.24    1.54
  -1  10  12   -0.45    1.73
   1 -10  12    2.66    1.48
   0 -10 -12   -2.83    1.23
   0  10 -12   -1.97    3.36
   0 -10  12    0.12    1.25
   0 -10  12    0.26    1.25
   0  10  12   -2.53    1.83
   1  10 -12    0.92    1.38
   1  10 -12    2.08    3.49
  -1 -10 -12   -2.92    1.31
  -1 -10  12    0.11    1.12
  -1 -10  12    0.94    1.42
  -1 -10  12    0.83    1.12
   1  10  12   -2.23    1.96
   2  10 -12    1.13    1.37
   2  10 -12    0.07    2.14
  -2 -10 -12   -1.86    6.26
   2  10 -12    0.07    3.35
   2  10  12   -0.55    1.94
  -2 -10  12    1.87    0.97
  -2 -10  12    0.90    1.45
   3  10 -12   -0.16    0.78
   3  10 -12   -1.35    3.35
  -3 -10  12    1.67    0.96
  -3 -10  12    1.09    1.47
   4  10 -12    2.70    4.01
   4  10 -12    8.58    1.94
  -4 -10  12    5.36    2.34
  -4 -10  12    6.09    1.94
   5  10 -12    4.86    3.49
   5  10 -12    2.12    0.95
  -5 -10  12    2.36    0.97
  -5 -10  12   -0.14    1.58
   6  10 -12    0.25    0.84
   6  10 -12   -4.44    3.65
  -6 -10  12   -1.15    1.54
  -6 -10  12   -0.59    0.86
   7  10 -12   -0.22    3.72
  -7 -10  12    3.95    1.64
  -7 -10  12   -0.05    0.82
   9  10 -12    0.51    1.05
  -9 -10  12   -0.82    1.15
  -9 -10  12   -2.00    1.50
 -10 -10  12    0.89    1.50
   6 -11 -12   -3.51    6.41
   6 -11 -12    0.39    1.36
  -6  11  12   -1.33    2.19
  -6  11  12   -2.93    4.18
   5 -11 -12    4.72    1.67
   5 -11 -12    5.96    6.81
  -5  11  12    1.68    3.51
  -5  11  12    2.12    2.29
   4 -11 -12    2.56    6.43
   4 -11 -12    0.79    1.25
  -4  11  12    4.91    3.03
  -4  11  12   -0.26    1.99
   3 -11 -12  -16.77    6.96
   3 -11 -12    1.92    1.27
  -3  11  12    1.95    1.94
  -3  11  12    3.68    2.53
   2 -11 -12   -9.15    7.85
   2 -11 -12    1.23    1.19
  -2  11  12    2.22    2.10
  -2  11  12   -0.32    2.00
   1 -11 -12  -11.45    8.22
   1 -11 -12    0.24    1.14
   1 -11  12    1.44    1.51
   1 -11  12    0.08    1.59
  -1  11  12   -0.22    1.89
   0  11 -12   -0.09    3.49
   0 -11 -12    1.08    1.24
   0 -11 -12    2.14    8.08
   0  11  12    0.68    1.92
   0 -11  12    0.87    1.43
   0 -11  12   -0.39    1.32
   1  11 -12    1.44    3.59
   1  11 -12    1.16    1.56
  -1 -11 -12   -0.41    1.19
   1  11 -12    0.27    2.86
  -1 -11 -12   -6.71    7.93
   1  11  12    2.31    2.04
  -1 -11  12   -0.06    1.11
  -1 -11  12    0.62    1.52
  -1 -11  12    1.09    1.22
  -1 -11  12   -2.23    4.72
  -2 -11 -12    0.87    7.23
   2  11 -12   -1.90    3.72
  -2 -11 -12   -0.38    1.33
   2  11  12    2.73    2.05
  -2 -11  12    0.45    1.45
  -2 -11  12    0.05    1.02
   3  11 -12    3.02    0.93
   3  11 -12    2.97    3.68
  -3 -11  12   -1.03    1.65
  -3 -11  12    0.88    1.03
   4  11 -12   -3.23    3.63
   4  11 -12    0.47    0.77
  -4 -11  12   -0.66    1.56
  -4 -11  12   -0.18    0.87
   5  11 -12   -2.58    3.76
   5  11 -12    2.79    1.07
  -5 -11  12    3.52    1.10
  -5 -11  12   -0.15    1.74
   6  11 -12    0.23    3.97
   6  11 -12    3.56    1.03
  -6 -11  12    0.37    1.80
  -6 -11  12    2.10    1.10
  -8 -11  12   11.57    3.36
   9  11 -12    1.95    4.27
   9  11 -12    1.80    1.08
  -9 -11  12    0.65    1.63
  -9 -11  12   -1.35    1.16
 -10 -11  12    0.36    1.60
   9 -12 -12   -2.99    1.79
   8 -12 -12    1.86    1.63
  -8  12  12    0.32    5.04
   7 -12 -12    3.72    6.73
  -7  12  12    0.87    2.44
   3 -12 -12    0.81    1.45
  -3  12  12   -2.77    3.34
   2 -12 -12    0.60    1.40
  -2  12  12   -1.83    2.53
   1 -12 -12    1.20    1.37
   1 -12  12    1.56    1.64
   1 -12  12    0.08    1.56
  -1  12  12    4.03    2.32
   0 -12  12    2.75    1.72
   0 -12  12    3.52    1.58
   1  12 -12    3.56    3.25
   1  12 -12   -0.76    1.71
   1  12 -12  -11.69    3.96
  -1 -12  12    0.25    1.61
  -1 -12  12   -0.06    1.27
  -1 -12  12   -0.45    1.15
   2  12 -12    0.42    3.88
  -2 -12  12   -0.45    1.01
  -2 -12  12   -0.71    1.63
   3  12 -12    1.18    0.90
   3  12 -12    7.73    3.86
  -3 -12  12    1.03    1.73
  -3 -12  12    0.05    0.90
   4  12 -12    0.81    0.81
   4  12 -12    0.62    3.81
  -4 -12  12    0.28    0.89
  -4 -12  12    0.40    1.75
   5  12 -12    2.93    1.67
  -5 -12  12    3.98    1.59
  -5 -12  12    8.20    2.50
   7  12 -12    0.31    1.05
  -7 -12  12    0.06    1.10
   8  12 -12    1.68    4.35
   8  12 -12   -0.43    1.11
  -8 -12  12    0.81    1.84
  -8 -12  12    1.03    1.14
   9  12 -12   -4.48    4.49
   9  12 -12    0.29    1.23
  -9 -12  12    0.32    1.80
 -10 -12  12    0.08    1.66
   9 -13 -12   -3.15    1.85
   8 -13 -12    1.67    1.88
  -8  13  12    0.35    5.52
  -8  13  12    2.78    2.71
   7 -13 -12   -6.26    1.69
   7 -13 -12   -1.25    7.44
  -7  13  12    7.00    5.24
  -7  13  12    0.54    2.69
   6 -13 -12    7.98    7.56
   6 -13 -12    0.08    1.70
  -6  13  12   -6.99    5.01
  -6  13  12    0.25    2.69
   5 -13 -12    0.68    7.77
   5 -13 -12   -1.54    1.64
  -5  13  12   -3.43    4.19
  -5  13  12    1.50    2.64
   4 -13 -12   -0.08    1.64
   4 -13 -12   -5.43    7.88
  -4  13  12   -2.46    3.75
  -4  13  12   -0.54    2.48
   3 -13 -12    0.07    1.60
   3 -13 -12  -25.64   10.66
  -3  13  12    0.43    3.99
  -3  13  12   -1.26    2.44
  -2  13  12   -2.21    2.54
  -2  13  12    7.25    3.33
   0 -13 -12   11.18    3.44
   1  13 -12    3.96    2.45
   1  13 -12    0.54    3.84
  -1 -13 -12    0.25    1.95
  -1 -13 -12   34.08   10.28
   1  13  12    3.40    2.81
  -2 -13 -12    0.09    1.50
  -2 -13 -12  -10.92   10.03
   2  13  12   -1.22    2.65
  -3 -13 -12    5.77    9.33
   4  13 -12    0.96    0.92
   6  13 -12    0.15    0.94
  -6 -13  12   -0.06    1.01
   7  13 -12    2.81    1.15
   7  13 -12    8.89    4.61
  -7 -13  12   -0.06    1.12
  -7 -13  12   -1.63    2.09
   8  13 -12    0.83    1.15
   8  13 -12   -3.58    4.81
  -8 -13  12   -3.66    1.26
  -8 -13  12    2.67    1.95
   9  13 -12   -3.73    4.80
   9  13 -12   -0.10    1.19
  -9 -13  12    0.53    1.96
  10  13 -12   -4.00    4.84
 -10 -13  12    0.17    1.90
   9 -14 -12   -3.22    2.00
  -9  14  12   16.49    6.36
   8 -14 -12    1.80    1.84
  -8  14  12   -0.79    2.96
  -8  14  12   -0.76    5.91
   7 -14 -12    1.50    1.80
   7 -14 -12   -7.93    8.08
  -7  14  12    2.89    5.38
  -7  14  12    1.19    3.02
   6 -14 -12   -1.55    1.81
   6 -14 -12    3.91    8.40
  -6  14  12   -5.85    5.08
  -6  14  12    0.28    2.96
   5 -14 -12    6.72    8.35
   5 -14 -12    0.60    1.80
  -5  14  12    3.25    2.94
  -5  14  12    1.07    4.73
   4 -14 -12    3.34    8.58
   4 -14 -12    0.08    1.74
  -4  14  12    0.61    2.76
  -4  14  12   -2.04    4.03
   3 -14 -12    1.58    1.67
   3 -14 -12  -12.34    9.42
  -3  14  12    0.71    2.79
  -3  14  12   -1.23    3.98
   2 -14 -12   -0.70   10.16
   2 -14 -12    0.42    1.66
  -2  14  12   -2.68    3.26
  -2  14  12   -1.25    2.64
   1 -14 -12    5.12   10.95
   1 -14 -12    1.66    1.69
  -1  14  12    1.92    2.72
  -1  14  12    2.43    2.86
   0 -14 -12    3.48   11.01
   0 -14 -12    0.96    1.70
   0  14  12    4.47    2.87
  -1 -14 -12   -4.63   11.15
  -1 -14 -12   -2.99    1.70
   1  14  12    0.11    2.73
  -2 -14 -12   11.43   10.77
  -2 -14 -12    2.45    1.85
   2  14  12    3.66    2.94
  -3 -14 -12  -20.81   10.60
   3  14  12    1.83    2.70
   9 -15 -12   -8.55    2.33
  -9  15  12    3.22    6.90
   8 -15 -12    3.93    2.25
  -8  15  12    7.02    6.62
  -8  15  12    1.39    3.26
   7 -15 -12    1.35    2.02
   7 -15 -12    6.59    8.79
  -7  15  12    1.38    6.05
  -7  15  12   -1.79    3.35
   6 -15 -12    3.72    2.00
   6 -15 -12  -13.83    9.15
  -6  15  12    1.71    3.23
  -6  15  12    1.97    5.57
   5 -15 -12   -3.48    1.90
   5 -15 -12  -21.06    9.96
  -5  15  12    1.16    3.09
  -5  15  12    4.63    4.98
  -4  15  12    8.18    5.52
   3 -15 -12  -23.61   10.24
   3 -15 -12   -3.08    1.92
  -3  15  12    5.71    3.29
  -3  15  12    2.63    3.97
   2 -15 -12   -1.70   10.79
   2 -15 -12    0.28    1.87
  -2  15  12    0.13    3.17
  -2  15  12    1.64    3.47
  -1  15 -12    0.33    5.28
   1 -15 -12    0.66    1.83
   1 -15 -12   -4.73   11.54
  -1  15  12    7.80    3.38
  -1  15  12   -2.98    3.11
   1 -15  12   -4.46    2.22
   0 -15 -12  -14.58   11.93
   0  15 -12    0.89    4.77
   0  15 -12    0.59    2.16
   0 -15 -12   -0.10    1.79
   0  15  12   -4.33    3.10
  -1 -15 -12   -2.26   12.00
  -1 -15 -12    1.91    1.90
   1  15  12    1.00    3.08
  -2 -15 -12   -0.15   11.79
  -2 -15 -12    0.21    1.86
   2  15  12    6.34    3.22
  -3 -15 -12   14.90   11.77
   3  15  12    0.43    3.04
   9 -16 -12    2.53    2.39
  -9  16  12    4.36    7.12
   8 -16 -12   -5.28    2.34
  -8  16  12   11.76    6.82
  -8  16  12   -2.85    3.69
   7 -16 -12   -7.95    9.85
  -7  16  12   -6.71    6.46
  -7  16  12   -5.58    3.78
   6 -16 -12   -1.22    9.99
   6 -16 -12   -0.42    2.06
  -6  16  12    2.25    3.56
  -6  16  12    1.18    5.92
   5 -16 -12    5.95   10.57
   5 -16 -12   -4.06    2.23
  -5  16  12   -2.91    5.37
  -5  16  12   -4.87    3.69
   4 -16 -12   -4.86   10.27
   4 -16 -12   -0.52    2.11
  -4  16  12    2.64    4.85
  -4  16  12   -2.30    3.57
   3 -16 -12    7.65   11.00
   3 -16 -12    1.64    2.02
  -3  16  12   -0.92    4.26
  -3  16  12    1.04    3.47
   2 -16 -12    4.27   11.84
   2 -16 -12    0.10    2.29
  -2  16  12   15.40    3.79
  -2  16  12    6.55    4.05
  -1  16 -12    0.18    5.70
   1 -16 -12  -15.70   12.65
   1 -16 -12   -1.99    2.08
   1 -16  12    6.46    2.44
  -1  16  12   -1.23    3.73
  -1  16  12    1.12    3.44
   0 -16 -12    0.11    1.91
   0 -16 -12  -10.98   13.42
   0  16  12    6.40    3.50
   0  16  12   -0.97    3.33
  -1 -16 -12   -0.11    2.01
  -1 -16 -12   18.21   13.69
   1  16  12   -0.70    3.45
  -2 -16 -12   -4.78    1.99
  -2 -16 -12    5.70   13.40
   2  16  12   -0.75    3.47
  -3 -16 -12   19.19   14.17
   8 -17 -12   -1.29    2.44
  -8  17  12    0.42    3.88
  -8  17  12    7.30    7.31
   7 -17 -12  -11.37   10.77
   7 -17 -12   -2.09    2.48
  -7  17  12  -10.70    6.84
  -7  17  12   -4.62    4.12
   6 -17 -12   -3.10    2.39
  -6  17  12   -9.46    6.57
  -6  17  12    2.11    4.21
   5 -17 -12   49.97   11.02
  -5  17  12   40.84   13.40
  -5  17  12   21.28   11.92
   4 -17 -12   -2.88   11.84
  -4  17  12    0.17    4.04
  -4  17  12   -1.10    5.37
   3 -17 -12    5.76    2.42
   3 -17 -12    7.90   12.00
  -3  17  12   -1.03    4.93
  -3  17  12   -2.00    3.89
   2 -17 -12   -4.53    2.20
   2 -17 -12   15.93   12.80
  -2  17  12   -0.65    3.94
  -2  17  12    2.24    4.41
  -1  17 -12    1.15    6.05
   1 -17 -12   -2.56    2.26
   1 -17 -12   -3.99   13.39
  -1  17  12    6.21    4.08
  -1  17  12    2.03    3.83
   0 -17 -12    2.61    2.18
   0 -17 -12    4.10   14.23
   0  17  12   -2.78    4.14
   0  17  12    4.25    3.76
  -1 -17 -12   19.64   14.65
  -1 -17 -12   -1.23    2.19
   1  17  12   -5.05    4.02
  -2 -17 -12   -9.28   15.15
  -2 -17 -12   -2.02    2.15
   2  17  12    0.17    3.74
  -3 -17 -12   -2.62   14.61
   3  17  12   -3.48    3.76
   8 -18 -12   -0.91    2.72
  -8  18  12    2.80    7.60
  -8  18  12   -3.47    4.51
   7 -18 -12   11.99   12.04
   7 -18 -12    0.13    2.62
  -7  18  12   13.79    7.46
  -7  18  12   -6.25    4.56
   6 -18 -12    4.71   12.36
   6 -18 -12    1.78    2.79
  -6  18  12   15.12    6.94
  -6  18  12    1.28    4.69
   5 -18 -12    1.65    2.73
   5 -18 -12  -10.10   13.14
  -5  18  12   13.93    4.70
  -5  18  12    7.80    6.32
   4 -18 -12   -1.27    2.39
   4 -18 -12   16.51   13.44
  -4  18  12   -2.34    4.44
  -4  18  12   -3.79    5.61
   3 -18 -12   -0.13    2.52
   3 -18 -12    7.36   13.41
  -3  18  12  -11.24    4.39
  -3  18  12    7.55    5.36
   2 -18 -12    0.13    2.44
   2 -18 -12  -21.09   14.10
  -2  18  12   -8.83    5.01
  -2  18  12    0.36    4.20
   1 -18 -12  -30.10   15.44
   1 -18 -12    0.13    2.48
  -1  18  12    5.45    4.65
  -1  18  12   -0.18    4.16
   0 -18 -12   -5.41    2.48
   0  18  12    1.19    4.15
   0  18  12    3.50    4.40
  -1 -18 -12    6.44    2.56
  -1 -18 -12  -25.26   16.67
   1  18  12   -2.58    4.55
   1  18  12   -1.18    4.17
  -2 -18 -12  -32.15   17.15
  -2 -18 -12   -5.18    2.53
   2  18  12  -11.03    4.54
  -3 -18 -12    7.03   16.98
   3  18  12    8.96    4.90
   4 -19 -12    0.97    2.61
  -4  19  12    2.21    6.10
   3 -19 -12   -0.14    2.57
   3 -19 -12    5.96   13.96
  -3  19  12   -4.84    5.63
   2 -19 -12   -5.76    2.73
  -2  19  12    1.63    4.87
  -2  19  12   13.38    5.67
   1 -19 -12    0.59    2.94
   1 -19 -12    8.56   16.12
  -1  19  12   11.54    5.53
  -1  19  12    6.76    5.06
   0 -19 -12    0.45    2.73
   0  19  12   -5.54    5.02
  -1 -19 -12   -5.85   15.39
  -1 -19 -12   -1.52    2.75
   1  19  12    2.95    4.05
   1  19  12    3.15    5.15
  -2 -19 -12   -5.62    2.76
   2  19  12   -2.37    5.01
   0   0  13    0.58    0.86
   1   0 -13   10.11    4.21
  -1   0  13   11.53    3.36
  -1   0  13   16.07    3.50
   0  -1  13    9.56    3.40
   1   1 -13    0.50    2.09
   1  -1 -13   -0.05    2.00
  -1  -1  13   -0.10    0.83
  -1   1  13   -0.18    0.69
  -1   1  13   -0.74    0.88
  -1  -1  13    0.98    0.80
   1  -2 -13    4.71    1.82
   2   1 -13    1.27    2.00
  -1   2  13    2.36    0.92
  -2  -1  13    1.28    1.06
  -1   2  13   -0.05    0.97
  -2  -1  13    2.50    0.93
   0   2 -13   -1.70    2.10
   2   0 -13    0.59    0.94
   2   0 -13   -0.76    1.91
   0  -2  13    1.56    1.01
  -2   0  13    0.56    0.67
  -2   0  13    1.02    0.88
   2  -1 -13    2.37    1.95
   1   2 -13    1.08    2.31
   2  -1 -13    2.23    1.75
  -2   1  13    1.74    0.89
  -1  -2  13    2.75    1.17
  -2   1  13    3.05    1.12
  -1  -2  13    2.68    1.08
   2  -2 -13    0.83    2.16
   2  -2 -13   -1.14    1.94
   2   2 -13    0.33    1.97
  -2  -2  13    0.24    0.82
  -2   2  13   -0.35    0.59
  -2   2  13    0.65    0.85
  -2  -2  13   -0.29    0.72
   3   2 -13   -6.95    2.35
  -3  -2  13    0.26    0.97
  -2   3  13   -2.88    0.79
  -3  -2  13   -0.83    0.71
   3   1 -13    0.21    1.92
   1  -3 -13    2.73    2.26
  -3  -1  13    0.74    0.62
  -3  -1  13    0.53    0.86
   0   3 -13    0.26    2.18
   3   0 -13    0.16    1.80
  -3   0  13    0.54    0.56
   0  -3  13    0.94    1.02
  -3   0  13    0.36    0.77
   3  -1 -13    1.21    1.68
   1   3 -13   -0.29    2.17
   3  -1 -13   -2.90    1.54
  -3   1  13    0.32    0.50
  -1  -3  13    0.48    1.00
  -3   1  13   -0.43    0.81
   2   3 -13   -1.63    2.31
   3  -2 -13   -1.23    0.51
  -3   2  13   -0.95    0.99
  -2  -3  13    1.71    0.95
  -3   2  13   -2.11    0.63
  -2  -3  13    0.34    0.37
   3  -3 -13    5.44    1.65
  -3  -3  13   -0.67    1.02
  -3  -3  13   -0.27    0.73
   3  -4 -13    3.66    1.04
   4   3 -13    2.93    2.30
  -4  -3  13    2.30    1.04
  -4  -3  13    3.33    1.25
   4   2 -13    1.32    2.22
  -4  -2  13    4.13    1.06
  -4  -2  13    2.76    1.21
   4   1 -13   -0.68    2.10
  -4  -1  13   -0.19    1.06
  -4  -1  13    0.21    0.64
   0   4 -13    8.04    2.92
   0  -4  13    0.42    1.28
   0  -4  13    3.13    1.33
   4  -1 -13    0.52    0.49
   1   4 -13    4.34    2.59
  -4   1  13    0.54    0.65
  -1  -4  13    1.00    1.09
  -1  -4  13    1.03    1.02
  -4   1  13    0.40    0.98
   4  -2 -13   -0.34    1.99
   2   4 -13    5.10    2.32
   4  -2 -13    2.05    0.89
   4  -2 -13    2.38    0.85
  -4   2  13    1.84    1.02
  -2  -4  13    5.52    1.29
  -4   2  13    1.55    1.15
  -4   2  13    3.25    1.06
  -2  -4  13    4.51    0.91
  -4   2  13    2.77    0.90
  -2  -4  13    3.59    1.11
   4  -3 -13    2.58    1.06
   4  -3 -13    4.59    2.00
   4  -3 -13    4.69    2.69
   3   4 -13    6.12    2.53
   4  -3 -13    3.45    1.12
  -4   3  13    3.99    1.08
  -4   3  13    2.83    1.31
  -4   3  13    3.32    1.27
  -3  -4  13    4.93    1.24
  -4   3  13    3.92    1.27
  -3  -4  13    3.71    1.42
   4  -4 -13    0.38    0.36
   4   4 -13    2.59    2.19
   4  -4 -13   -0.28    0.51
  -4   4  13    0.16    0.39
  -4  -4  13    0.46    0.94
   4  -5 -13    1.93    4.87
   5   4 -13   13.82    4.49
   4  -5 -13   14.58    3.50
  -5  -4  13    9.97    3.60
  -4   5  13   15.56    3.61
  -4   5  13   14.49    3.78
   5   3 -13   38.34   10.13
   3  -5 -13   29.02   10.12
   3  -5 -13   23.59   10.56
  -3   5  13   36.81    9.40
  -5  -3  13   31.99    9.09
  -3   5  13   35.39    9.33
   5   2 -13   10.62    2.91
   2  -5 -13    6.88    2.03
   5   2 -13    5.24    1.88
   2  -5 -13    6.13    2.88
   2  -5 -13    1.94    4.27
  -5  -2  13    6.55    1.94
  -2   5  13    7.99    2.26
  -2   5  13    8.10    2.21
  -2   5  13    8.14    1.96
  -5  -2  13    6.10    2.11
   1  -5 -13    6.96    2.29
   5   1 -13    7.05    2.11
   1  -5 -13   13.27    4.37
   5   1 -13    9.20    3.05
  -5  -1  13    6.58    2.32
  -1   5  13    5.92    2.62
  -5  -1  13    8.62    2.15
  -1   5  13    7.38    2.29
   0   5 -13   24.30    7.39
   0  -5 -13   31.18    7.59
   5   0 -13   25.46    7.08
   5   0 -13   15.33    6.03
  -5   0  13   19.87    6.11
   0  -5  13   22.84    6.27
  -5   0  13   21.20    6.41
   0  -5  13   24.71    6.43
   1   5 -13    6.79    3.53
   5  -1 -13    6.52    2.97
   5  -1 -13    7.36    2.15
  -5   1  13    6.82    2.18
  -1  -5  13    7.97    2.50
  -1  -5  13    9.71    2.38
  -1  -5  13    7.45    2.33
  -5   1  13   10.74    2.37
   5  -2 -13    7.35    1.98
   2   5 -13    5.45    3.18
   5  -2 -13    6.70    1.93
   5  -2 -13    9.23    2.73
  -2  -5  13    6.74    1.99
  -5   2  13    4.36    2.13
  -2  -5  13    8.87    2.25
  -2  -5  13    8.40    2.08
  -5   2  13    6.24    1.95
   3   5 -13   26.20   10.42
   5  -3 -13   39.22    9.13
   5  -3 -13   31.70   10.41
   5  -3 -13   30.89    9.44
  -5   3  13   36.91    9.85
  -5   3  13   35.38    9.74
  -3  -5  13   36.58    9.47
  -5   3  13   34.21    9.19
  -3  -5  13   33.69    9.13
   5  -4 -13   15.53    3.95
   5  -4 -13   16.54    4.67
   4   5 -13   12.62    4.99
  -5   4  13   12.27    3.98
  -4  -5  13   15.16    3.94
  -5   4  13   22.02    4.24
  -4  -5  13    7.66    4.13
   5   5 -13    0.84    2.43
   5  -5 -13    1.39    0.66
   5  -5 -13    0.09    3.42
   5  -5 -13    4.07    1.62
   5   5 -13    0.35    0.52
   5  -5 -13    0.03    0.42
  -5  -5  13    0.11    0.66
  -5   5  13    0.17    1.35
  -5   5  13   -0.29    1.09
  -5   5  13   -0.02    0.48
  -5  -5  13    0.48    1.04
   6   5 -13    5.99    1.40
   5  -6 -13    5.49    1.52
   5  -6 -13   -2.82    4.11
   6   5 -13    4.97    2.96
  -6  -5  13    3.99    1.66
  -5   6  13    5.09    1.82
  -6  -5  13    3.97    1.43
  -5   6  13    5.44    2.15
   6   4 -13    2.08    2.35
   4  -6 -13   -0.80    3.45
   4  -6 -13    1.28    0.74
  -4   6  13    1.96    1.31
  -4   6  13    1.03    1.14
  -6  -4  13    1.39    1.04
   3  -6 -13    6.35    2.27
   6   3 -13    7.99    2.13
   3  -6 -13    1.82    4.73
  -6  -3  13    7.93    2.35
  -6  -3  13    9.01    2.18
  -3   6  13    7.62    2.43
  -3   6  13    8.64    2.49
   6   2 -13    5.08    1.33
   2  -6 -13    1.63    4.35
   2  -6 -13    5.60    1.46
  -2   6  13    2.88    1.68
  -6  -2  13    4.51    1.38
  -6  -2  13    3.60    1.52
  -2   6  13    5.23    1.34
   1  -6 -13   16.22    4.62
   1  -6 -13   20.46    6.77
  -6  -1  13   17.27    4.65
  -1   6  13   11.18    5.04
  -1   6  13   13.16    4.66
  -6  -1  13   17.45    4.39
   6   0 -13    0.08    0.44
   0  -6 -13    0.97    3.57
   0   6 -13   -1.33    2.80
   0   6  13   -0.08    0.81
   0   6  13   -0.52    1.28
  -6   0  13   -0.34    0.76
   0  -6  13   -0.26    1.11
   0  -6  13    0.07    1.08
  -6   0  13    0.10    0.52
   6  -1 -13   18.44    4.93
   1   6 -13   16.77    6.23
  -1  -6 -13   13.83    6.40
  -6   1  13   18.61    5.23
  -1  -6  13   17.53    5.26
  -1  -6  13   22.85    5.08
  -6   1  13   19.91    4.98
   6  -2 -13    5.03    1.34
   2   6 -13    3.84    2.95
  -6   2  13    4.95    1.52
  -2  -6  13    3.25    1.69
  -2  -6  13    5.40    1.53
  -6   2  13    4.10    1.37
   6  -3 -13    9.44    2.34
   3   6 -13    8.02    3.63
  -3  -6  13    5.54    2.60
  -6   3  13    8.52    2.38
  -6   3  13    7.37    2.55
  -3  -6  13   10.22    2.42
   6  -4 -13    0.93    0.48
   4   6 -13    1.01    0.64
   4   6 -13    2.57    2.58
  -4  -6  13    0.16    0.98
  -6   4  13    0.44    0.81
  -4  -6  13    0.68    0.75
  -6   4  13    0.71    0.56
   6  -5 -13    4.71    1.51
   5   6 -13    6.20    1.41
   6  -5 -13    3.02    1.40
   5   6 -13    3.51    3.00
  -6   5  13    5.99    1.84
  -5  -6  13    4.08    1.44
  -5  -6  13    2.68    1.69
  -6   5  13    5.76    1.60
  -6   5  13    5.60    1.43
   6  -6 -13   -1.96    4.01
   6   6 -13    0.61    0.65
   6  -6 -13   -0.53    0.80
   6   6 -13   -1.61    2.90
  -6   6  13    0.58    2.12
  -6   6  13   -0.94    1.35
  -6  -6  13   -1.15    1.06
  -6  -6  13   -0.21    0.71
   7   6 -13    5.78    1.27
   6  -7 -13    4.52    1.45
   6  -7 -13   -7.65    4.71
  -7  -6  13    3.24    1.33
  -6   7  13    3.15    1.86
  -6   7  13    3.88    2.68
  -7  -6  13    3.69    1.52
   7   5 -13   -0.21    0.72
   5  -7 -13    0.45    0.84
   5  -7 -13    0.05    4.10
  -5   7  13    0.29    1.38
  -5   7  13    0.62    1.93
  -7  -5  13    0.58    1.02
  -7  -5  13    0.87    0.75
   4  -7 -13   18.65    5.45
   4  -7 -13   16.54    7.07
  -4   7  13   17.85    5.57
  -4   7  13   19.16    5.86
  -7  -4  13   24.13    5.47
   3  -7 -13    7.44    2.45
   7   3 -13    9.63    2.33
   3  -7 -13    2.07    5.03
  -3   7  13    9.89    2.73
  -7  -3  13    7.02    2.52
  -7  -3  13    9.35    2.35
  -3   7  13    9.19    2.66
   2  -7 -13    6.38    5.01
   2  -7 -13    6.44    1.80
   7   2 -13    6.61    1.65
  -7  -2  13    5.85    1.84
  -7  -2  13    4.78    1.71
  -2   7  13    4.74    2.04
   7   1 -13    2.42    0.98
   1  -7 -13    3.72    1.18
   1  -7 -13    5.62    4.92
  -1   7  13    2.19    1.51
  -7  -1  13    4.09    1.04
  -7  -1  13    2.26    1.17
   0  -7 -13   12.59    4.52
   7   0 -13   15.40    4.30
   0  -7 -13   24.05    6.84
   0   7 -13   14.23    5.72
   0  -7  13   13.18    4.64
   0  -7  13   21.48    4.54
  -7   0  13   18.54    4.38
   0  -7  13   15.77    4.61
  -7   0  13   16.94    4.57
   0   7  13    7.87    4.98
   7  -1 -13    3.73    0.90
  -1  -7 -13   -0.60    3.86
   1   7 -13    3.14    3.07
  -7   1  13    1.68    0.93
  -1  -7  13    1.87    1.21
  -1  -7  13    2.24    1.39
  -1  -7  13    2.74    1.15
  -7   1  13    2.98    1.09
   7  -2 -13    7.29    1.75
   2   7 -13    5.45    3.34
  -2  -7  13    6.06    1.90
  -7   2  13    5.11    1.97
  -2  -7  13    5.44    2.10
  -7   2  13    5.85    1.79
   3   7 -13   13.58    3.70
   7  -3 -13    5.80    2.32
  -7   3  13    6.87    2.52
  -3  -7  13    8.33    2.62
  -3  -7  13    7.99    2.38
  -7   3  13    9.16    2.37
   4   7 -13   19.90    6.78
   7  -4 -13   19.79    5.75
  -4  -7  13   22.88    5.58
  -7   4  13   20.19    6.04
  -4  -7  13   19.71    5.86
   5   7 -13   -0.05    0.67
   5   7 -13    3.69    2.99
  -5  -7  13    0.04    0.76
  -5  -7  13    1.23    1.19
  -7   5  13    0.44    0.83
   6   7 -13    3.06    3.30
   6   7 -13    3.49    1.32
  -6  -7  13    4.87    1.67
  -6  -7  13    4.21    1.37
   7   7 -13    0.41    0.79
   7  -7 -13   -0.31    1.00
   7   7 -13    1.65    3.01
  -7  -7  13    0.44    1.18
  -7  -7  13    0.05    0.81
   7  -8 -13    0.44    1.08
   8   7 -13    0.64    0.83
  -7   8  13    0.64    1.74
  -8  -7  13   -1.23    1.21
  -8  -7  13   -0.39    0.93
   6  -8 -13   -2.71    5.01
   6  -8 -13    3.18    1.26
   8   6 -13    1.63    1.01
  -8  -6  13    0.96    1.35
  -6   8  13    2.81    1.82
  -8  -6  13    4.90    1.17
  -6   8  13    1.47    2.80
   5  -8 -13    4.93    2.72
   8   5 -13    7.62    2.53
  -8  -5  13   17.16    2.80
  -5   8  13    3.96    2.97
  -8  -5  13   11.21    2.63
  -5   8  13    8.46    3.60
   4  -8 -13   -0.16    4.50
   4  -8 -13   -0.50    0.90
   8   4 -13    0.33    0.62
  -4   8  13    0.36    1.80
  -4   8  13    0.30    1.38
  -8  -4  13   -0.05    0.97
   3  -8 -13   15.68    4.50
   8   3 -13   14.94    4.26
   3  -8 -13   11.56    7.07
  -3   8  13   12.71    4.84
  -8  -3  13   13.35    4.52
  -3   8  13   15.60    4.70
  -8  -3  13   22.56    4.37
   2  -8 -13    2.00    5.44
   8   2 -13    1.83    0.84
   2  -8 -13    2.01    1.04
  -8  -2  13    2.74    1.09
  -8  -2  13    2.78    0.96
  -2   8  13    1.25    1.43
   1  -8 -13    9.44    2.79
   1  -8 -13    4.72    6.40
   8   1 -13    8.55    2.65
  -1   8  13    7.75    3.09
  -8  -1  13   11.07    2.83
  -8  -1  13   11.49    2.71
   0  -8 -13    0.10    0.91
   8   0 -13   -0.67    0.56
   0  -8 -13    2.91    5.30
   0   8 -13    1.22    3.08
  -8   0  13   -0.27    0.69
   0   8  13    0.20    1.47
   0  -8  13   -0.89    1.18
   0  -8  13   -0.72    1.25
   0  -8  13    0.71    1.26
  -8   0  13    0.35    0.90
   8  -1 -13   12.44    2.51
  -1  -8 -13   -2.01    5.66
   1   8 -13    7.85    4.18
  -8   1  13   12.39    2.69
  -1  -8  13    6.72    2.86
   1   8  13    5.66    3.13
  -1  -8  13    7.44    2.66
  -8   1  13    9.75    2.57
  -1  -8  13    8.00    2.68
   2   8 -13   -2.65    3.01
   8  -2 -13    0.64    0.64
  -8   2  13    1.39    0.89
  -2  -8  13    0.05    0.99
  -2  -8  13    0.06    1.31
   3   8 -13   19.46    6.08
  -3  -8  13   17.06    4.77
  -8   3  13   15.39    5.09
  -3  -8  13   18.65    5.09
   4   8 -13   -1.32    3.13
   4   8 -13   -0.62    0.72
  -8   4  13    0.61    0.89
  -4  -8  13    1.01    0.89
  -4  -8  13   -0.49    1.24
   5   8 -13    8.34    2.74
   5   8 -13   13.88    4.42
  -8   5  13    6.79    3.06
  -5  -8  13   11.89    2.81
  -5  -8  13   11.19    3.13
   6   8 -13    3.64    1.37
   6   8 -13    1.12    3.56
  -6  -8  13    2.75    1.78
  -6  -8  13    6.49    1.43
   7   8 -13   -0.93    0.77
   7   8 -13   -0.68    3.38
  -7  -8  13   -0.24    1.21
  -7  -8  13   -0.15    0.90
  -8  -8  13   -0.06    1.27
   9   8 -13    0.90    0.99
  -9  -8  13   -0.72    1.11
   7  -9 -13    0.44    1.25
  -7   9  13   -2.10    3.50
  -7   9  13    0.19    1.90
   6  -9 -13    0.51    1.11
   6  -9 -13   -1.04    5.14
  -6   9  13    0.17    1.82
  -6   9  13   -0.58    3.11
  -9  -6  13   -0.17    1.08
   5  -9 -13    3.29    4.82
   5  -9 -13    0.73    1.07
  -5   9  13    0.58    2.47
  -9  -5  13   -2.21    1.13
  -5   9  13   -0.07    1.64
  -9  -5  13   -0.12    0.91
   4  -9 -13   12.49    6.82
   4  -9 -13   13.10    4.22
   9   4 -13   15.33    4.00
  -9  -4  13   15.30    4.10
  -9  -4  13   17.34    4.22
  -4   9  13   14.31    4.46
  -4   9  13   12.09    4.87
   9   3 -13   -0.43    0.75
   3  -9 -13   -1.22    1.03
  -9  -3  13   -0.45    1.08
  -3   9  13   -0.57    1.51
  -9  -3  13    2.73    0.95
  -3   9  13   -0.43    1.78
   9   2 -13    5.22    1.73
   2  -9 -13    4.59    1.85
  -9  -2  13    8.97    1.81
  -9  -2  13    3.35    1.86
  -2   9  13    6.24    2.27
   1  -9 -13    0.15    1.02
   1  -9 -13  -10.99    6.46
   9   1 -13    0.92    0.75
  -9  -1  13    1.61    0.96
  -1   9  13    1.71    1.51
   1  -9  13    0.88    1.47
   0  -9 -13    3.02    6.91
   0   9 -13    9.79    4.66
   0  -9 -13    7.77    2.98
   0  -9  13   10.76    3.13
   0   9  13   12.88    3.39
  -9   0  13   10.11    3.02
   0  -9  13   13.03    3.11
  -1  -9 -13    1.37    5.74
  -1  -9 -13    0.44    1.10
   1   9 -13    2.24    3.43
   1   9  13    0.33    1.75
  -9   1  13    0.86    0.94
  -1  -9  13   -0.06    1.16
  -1  -9  13    1.08    1.42
  -1  -9  13    2.23    1.08
  -2  -9 -13   -4.86    5.66
   2   9 -13    3.60    3.87
  -2  -9  13    5.71    2.20
  -2  -9  13    6.81    1.94
  -9   2  13    7.91    1.95
   3   9 -13   -1.42    3.29
  -3  -9  13    0.05    0.89
  -3  -9  13   -0.41    1.52
  -9   3  13    0.56    0.89
   4   9 -13   12.54    5.69
   4   9 -13   13.31    4.05
  -9   4  13   13.38    4.44
  -4  -9  13   18.70    4.11
  -4  -9  13   14.32    4.49
   5   9 -13    1.64    3.52
   5   9 -13    0.17    0.72
  -5  -9  13   -0.59    0.80
  -5  -9  13    1.25    1.43
   6   9 -13   -1.62    3.64
   6   9 -13   -0.62    0.80
  -6  -9  13    0.24    0.83
  -6  -9  13   -0.07    1.47
   7   9 -13   -2.02    3.71
   7   9 -13   -0.07    0.68
  -7  -9  13    4.20    0.96
  -7  -9  13   -1.26    1.54
   9   9 -13   -0.24    1.05
  -9  -9  13    0.07    1.41
  -9  -9  13    0.95    1.20
  10   9 -13    0.63    1.05
 -10  -9  13    1.63    1.48
  10   8 -13   -0.86    1.14
   8 -10 -13   -2.10    1.58
 -10  -8  13    0.06    1.42
  10   7 -13    0.41    0.97
   7 -10 -13   -0.36    1.28
   7 -10 -13   -1.54    5.75
  -7  10  13    0.10    2.11
  -7  10  13    1.48    3.88
 -10  -7  13    0.98    1.32
   6 -10 -13    2.80    5.90
   6 -10 -13    4.20    1.51
  10   6 -13    1.95    1.24
  -6  10  13    8.08    3.61
  -6  10  13    2.31    2.19
   5 -10 -13    3.44    1.54
   5 -10 -13   -1.16    5.68
  -5  10  13    3.14    2.04
  -5  10  13    4.28    3.05
   4 -10 -13    2.26    1.18
   4 -10 -13    1.36    5.75
  -4  10  13    0.97    2.43
 -10  -4  13    0.05    1.17
  -4  10  13    3.37    1.85
   3 -10 -13    2.38    6.98
   3 -10 -13    9.55    2.66
  -3  10  13   11.16    3.27
  -3  10  13    6.47    3.02
   2 -10 -13    2.19    7.04
   2 -10 -13    0.37    1.13
  -2  10  13    2.48    1.84
   1 -10 -13   -8.12    7.23
   1 -10 -13   -1.11    1.06
  -1  10  13   -0.39    1.67
   1 -10  13    0.52    1.57
   1 -10  13   -3.22    1.59
   0  10 -13    4.27    3.52
   0 -10 -13    2.90    7.33
   0 -10 -13   -1.61    1.11
   0 -10  13   -0.69    1.31
   0  10  13   -0.37    1.76
   0 -10  13   -1.22    1.30
  -1 -10 -13   -0.07    1.06
  -1 -10 -13    4.29    6.86
   1  10 -13    0.34    3.68
  -1 -10  13   -0.08    1.53
   1  10  13    0.68    1.94
  -1 -10  13   -0.31    1.17
   2  10 -13   -0.24    3.65
  -2 -10 -13    7.08    6.19
  -2 -10  13   -0.37    1.57
  -2 -10  13    0.93    1.09
   3  10 -13    9.91    4.54
  -3 -10  13    7.16    3.13
  -3 -10  13   10.25    2.71
   4  10 -13    1.44    3.49
   4  10 -13    2.29    1.01
  -4 -10  13    2.09    1.68
  -4 -10  13    1.59    1.07
   5  10 -13    5.28    1.45
   5  10 -13    3.96    3.91
  -5 -10  13    2.52    1.94
  -5 -10  13    4.43    1.45
   6  10 -13    6.82    4.12
   6  10 -13    2.02    1.33
  -6 -10  13    5.19    1.43
  -6 -10  13    3.41    1.94
  -8 -10  13    9.12    2.77
   9  10 -13    1.55    1.06
   9  10 -13    0.08    4.11
  -9 -10  13    1.27    1.23
  -9 -10  13    0.42    1.57
  10  10 -13    1.05    1.15
 -10 -10  13   -0.86    1.62
   7 -11 -13    0.92    1.42
  -7  11  13    1.92    2.16
  -7  11  13   -1.22    4.23
   6 -11 -13   -2.11    1.48
  -6  11  13   -0.92    2.18
  -6  11  13   -0.25    3.79
   5 -11 -13    5.01    6.11
   5 -11 -13    1.56    1.36
  -5  11  13   -2.54    3.17
  -5  11  13    0.09    2.01
   4 -11 -13    0.18    1.28
   4 -11 -13    5.80    6.61
  -4  11  13    1.12    2.02
  -4  11  13    2.98    2.81
   3 -11 -13    9.16    7.14
   3 -11 -13    0.36    1.26
  -3  11  13    1.06    2.35
  -3  11  13    0.08    2.02
   2 -11 -13  -10.09    8.34
   2 -11 -13   -4.37    1.23
  -2  11  13   -1.04    2.09
   1 -11 -13   -0.49    1.25
   1 -11 -13   -4.46    8.15
   1 -11  13   -0.43    1.63
  -1  11  13    1.92    1.95
   1 -11  13   -1.93    1.69
   0 -11 -13    2.36    8.17
   0 -11 -13    0.07    1.20
   0  11  13    0.16    1.88
   0 -11  13    1.13    1.35
   0 -11  13   -1.71    1.49
   1  11 -13   -0.81    3.79
  -1 -11 -13    1.34    1.26
  -1 -11 -13   -3.76    7.83
   1  11  13   -0.73    2.02
  -1 -11  13   -2.46    1.63
  -1 -11  13    0.93    1.19
  -2 -11 -13    1.45    6.94
   2  11 -13    0.76    3.93
   2  11  13    2.03    2.19
  -2 -11  13    0.06    1.07
  -2 -11  13   -0.95    1.66
   3  11 -13   -1.57    3.79
   3  11 -13   -0.67    0.84
  -3 -11  13   -0.31    1.67
  -3 -11  13    0.25    0.94
   4  11 -13    0.08    3.83
   4  11 -13    0.80    0.90
  -4 -11  13    1.43    0.93
  -4 -11  13    2.20    1.78
   5  11 -13   -3.29    4.10
   5  11 -13   -0.76    0.89
  -5 -11  13    0.40    0.87
  -5 -11  13    1.18    1.67
   7  11 -13    1.36    0.99
  -7 -11  13   -0.29    1.04
   8  11 -13    2.19    4.46
   8  11 -13    1.15    1.08
  -8 -11  13    0.07    1.11
  -8 -11  13    1.74    1.80
   9  11 -13   -0.82    1.21
   9  11 -13   -0.26    4.37
  -9 -11  13   -1.62    1.24
  -9 -11  13    0.08    1.60
  10  11 -13   -0.41    1.23
 -10 -11  13   -1.22    1.60
   8 -12 -13   -4.16    1.70
  -8  12  13    1.34    2.62
  -8  12  13   -1.44    5.04
   7 -12 -13   -3.97    7.03
   7 -12 -13   -0.07    1.32
  -7  12  13    1.60    2.55
   1 -12  13    0.76    1.85
   1 -12  13    2.78    1.77
   0 -12  13    0.21    1.37
   0 -12  13    0.07    1.52
   1  12 -13   10.36    4.06
  -1 -12  13    0.09    1.81
  -1 -12  13    0.74    1.32
   2  12 -13    1.90    4.26
  -2 -12 -13    0.88    8.46
  -2 -12  13    2.40    1.21
  -2 -12  13    0.25    1.85
   3  12 -13    0.64    0.91
   3  12 -13   -1.44    3.99
  -3 -12  13   -0.57    1.01
  -3 -12  13   -0.25    1.78
   4  12 -13    1.71    1.41
  -4 -12  13    6.98    2.41
  -4 -12  13    4.37    1.49
   5  12 -13    2.16    4.18
  -5 -12  13   -0.09    1.93
   6  12 -13    0.07    1.01
   7  12 -13    2.27    4.45
   7  12 -13   -0.08    1.04
  -7 -12  13   -1.74    1.93
  -7 -12  13   -0.06    1.00
   8  12 -13   -2.33    4.74
   8  12 -13   -0.61    1.12
  -8 -12  13   -4.56    1.29
  -8 -12  13    0.78    1.89
   9  12 -13    0.97    1.39
   9  12 -13    1.10    4.87
  -9 -12  13    1.53    1.32
  -9 -12  13    3.78    1.99
  10  12 -13    6.22    4.87
 -10 -12  13   -3.69    1.89
   8 -13 -13    1.80    1.95
  -8  13  13   -0.44    3.03
  -8  13  13    0.17    5.43
   7 -13 -13   -1.12    1.66
   7 -13 -13   -5.67    7.27
  -7  13  13    2.29    5.01
  -7  13  13    0.94    2.79
   6 -13 -13    2.90    1.75
   6 -13 -13    5.46    7.64
  -6  13  13   -1.50    2.76
  -6  13  13    1.79    4.58
   5 -13 -13    2.70    1.65
   5 -13 -13    0.68    7.76
  -5  13  13    0.12    2.71
  -5  13  13   -0.39    3.93
   4 -13 -13   -6.56    8.17
   4 -13 -13    1.37    1.59
  -4  13  13   -2.48    3.62
  -4  13  13    0.33    2.63
   3 -13 -13   -1.74    1.57
   3 -13 -13   -8.97    9.12
  -3  13  13   -1.82    2.54
  -3  13  13   -1.88    3.18
   2 -13 -13    0.30    1.58
   2 -13 -13    8.36   10.02
  -2  13  13    0.20    2.48
  -2  13  13    0.87    2.82
   1 -13 -13    0.12   10.43
   1 -13 -13    1.99    1.53
   1 -13  13   -2.64    1.82
  -1  13  13    1.60    2.56
   0 -13 -13   -0.24    1.53
   0 -13 -13  -11.13   10.20
   0  13  13   -2.11    2.46
  -1 -13 -13    0.99    1.56
  -1 -13 -13  -12.46   10.26
   1  13  13    0.74    2.54
  -2 -13 -13    9.40    9.71
  -2 -13 -13    1.71    1.65
   2  13  13    2.55    2.64
   3  13 -13    3.72    1.32
   3  13 -13    2.73    4.54
   5  13 -13   -0.07    0.96
   6  13 -13   -5.43    4.75
   6  13 -13    1.01    1.04
  -6 -13  13   -1.79    1.03
  -6 -13  13    0.09    2.19
   7  13 -13    1.93    1.13
   7  13 -13   -0.28    4.86
  -7 -13  13    1.90    2.09
  -7 -13  13   -0.72    1.13
   8  13 -13    9.46    2.71
  -8 -13  13    8.09    3.27
  -8 -13  13    8.21    2.64
   9  13 -13    0.82    1.30
   9  13 -13    2.21    5.12
  -9 -13  13    0.09    2.10
  -9 -13  13    3.07    1.43
  10  13 -13    3.24    5.21
 -10 -13  13    0.19    2.05
   9 -14 -13   -0.92    1.93
   8 -14 -13    1.07    1.87
  -8  14  13    1.89    3.04
  -8  14  13    0.19    5.80
   7 -14 -13   -5.42    7.91
   7 -14 -13    1.23    1.84
  -7  14  13    4.12    5.49
  -7  14  13    2.96    3.10
   6 -14 -13   30.66    9.95
   6 -14 -13   11.47    3.76
  -6  14  13    3.46    4.52
  -6  14  13   16.59    6.20
   5 -14 -13    0.26    1.95
   5 -14 -13   18.03    8.86
  -5  14  13    6.46    4.56
  -5  14  13    3.37    3.02
   4 -14 -13    1.91    8.48
   4 -14 -13    0.09    1.69
  -4  14  13    1.48    2.67
  -4  14  13   -0.80    3.89
   3 -14 -13    4.02    1.96
   3 -14 -13   14.16    9.66
  -3  14  13    2.26    3.62
  -3  14  13   -1.68    2.99
   2 -14 -13   -1.62    1.71
   2 -14 -13    8.20   10.54
  -2  14  13    0.12    2.85
  -2  14  13    1.32    3.04
   1 -14 -13    4.01   11.25
   1 -14 -13   -2.04    1.71
  -1  14  13    1.71    2.82
  -1  14  13    1.96    2.91
   0 -14 -13    1.25    1.71
   0 -14 -13    8.60   11.22
   0  14  13    1.83    2.72
  -1 -14 -13    0.18    1.70
  -1 -14 -13    8.05   10.99
   1  14  13   -0.47    2.76
  -2 -14 -13  -13.63   10.63
  -2 -14 -13    0.10    1.70
   2  14  13    1.52    2.78
   9 -15 -13   11.30    3.83
   8 -15 -13   -0.10    1.97
  -8  15  13   -2.59    3.27
  -8  15  13    1.02    6.07
   7 -15 -13    2.49    8.62
   7 -15 -13   -2.12    1.96
  -7  15  13    0.19    5.84
  -7  15  13    2.29    3.31
   6 -15 -13   -4.30    2.04
   6 -15 -13    3.72    9.32
  -6  15  13   -1.08    3.33
  -6  15  13   -2.48    5.36
   5 -15 -13   -4.08    1.96
   5 -15 -13    3.05    9.64
  -5  15  13   -7.54    4.88
  -5  15  13   -0.73    3.24
   4 -15 -13  -18.00   10.11
   4 -15 -13   -2.64    1.96
  -4  15  13   -8.64    4.42
  -4  15  13    0.28    3.25
   2 -15 -13   -4.63    2.04
  -2  15  13   -0.87    3.47
  -2  15  13    0.26    3.17
   1 -15 -13    0.19    1.89
   1 -15 -13   -6.02   12.32
  -1  15  13   -1.39    3.10
  -1  15  13   -7.02    3.41
   0 -15 -13   -2.88    1.82
   0 -15 -13   -0.90   12.41
   0  15  13    2.43    2.95
  -1 -15 -13    8.74   12.43
   1  15  13   -6.13    3.34
  -2 -15 -13   -7.90   12.19
  -2 -15 -13   -0.54    1.85
   2  15  13    4.41    3.22
  -3 -15 -13    6.59   12.33
   9 -16 -13    0.11    2.13
  -9  16  13   -4.54    6.80
   8 -16 -13   -3.74    2.17
  -8  16  13    0.19    3.48
  -8  16  13   -1.95    6.58
   7 -16 -13   75.44   16.76
  -7  16  13    2.71   10.97
  -7  16  13   30.82   13.59
   6 -16 -13  -12.96   10.50
   6 -16 -13   -3.57    2.18
  -6  16  13   10.13    5.90
  -6  16  13   -2.26    3.71
   5 -16 -13    6.84   10.67
   5 -16 -13    1.25    2.18
  -5  16  13    5.50    5.18
  -5  16  13    0.82    3.74
   4 -16 -13   -2.10    2.09
   4 -16 -13    5.96   10.58
  -4  16  13    4.09    4.72
  -4  16  13    0.62    3.56
   3 -16 -13    9.62   11.54
   3 -16 -13    6.59    2.67
  -3  16  13    4.09    3.99
  -3  16  13    5.99    4.52
   2 -16 -13   -1.35    2.01
   2 -16 -13    2.88   11.97
  -2  16  13   -2.65    3.58
  -2  16  13   -1.27    3.90
   1 -16 -13    6.37   12.75
   1 -16 -13    6.95    2.60
  -1  16  13    2.94    3.76
  -1  16  13    8.38    4.01
   0 -16 -13    1.65    2.02
   0 -16 -13    8.30   13.37
   0  16  13    2.13    3.52
   0  16  13   -1.26    3.47
  -1 -16 -13   -3.17   13.96
  -1 -16 -13    1.34    2.04
   1  16  13   -0.44    3.56
  -2 -16 -13   -0.17   13.35
  -2 -16 -13   -2.60    2.11
   2  16  13    0.15    3.42
  -3 -16 -13   -5.76   13.12
   9 -17 -13   -3.46    2.44
  -9  17  13   11.29    7.56
   8 -17 -13    0.82    2.42
  -8  17  13    1.05    3.95
  -8  17  13   -0.47    7.15
   7 -17 -13    0.46    2.40
   7 -17 -13  -11.40   11.08
  -7  17  13    6.88    6.74
  -7  17  13   -3.41    4.08
   6 -17 -13    6.08   11.44
   6 -17 -13   -0.12    2.33
  -6  17  13   -5.04    4.16
  -6  17  13   -0.84    6.01
   5 -17 -13    2.90    2.34
  -5  17  13  -12.86    5.59
  -5  17  13   -5.70    4.11
   4 -17 -13   80.49   15.61
  -4  17  13   21.67   16.59
  -4  17  13   57.33   17.84
   3 -17 -13  -30.26   13.13
  -3  17  13   -6.75    4.27
  -3  17  13   -5.88    5.01
   2 -17 -13   -4.60    2.26
   2 -17 -13   -4.31   13.02
  -2  17  13    2.88    4.27
  -2  17  13    4.95    4.09
   1 -17 -13    1.00   13.65
   1 -17 -13    2.64    2.26
  -1  17  13   -2.18    4.07
  -1  17  13    4.90    3.93
   0 -17 -13    7.34   14.58
   0 -17 -13    0.61    2.23
   0  17  13    3.53    3.88
   0  17  13   -1.93    4.06
  -1 -17 -13   12.40   15.05
  -1 -17 -13    0.99    2.28
   1  17  13   -0.17    3.93
  -2 -17 -13    6.26    3.30
  -2 -17 -13    4.81   15.14
   2  17  13   16.29    4.70
  -3 -17 -13    7.65   15.26
   8 -18 -13    1.29    2.57
  -8  18  13    4.23    7.53
   7 -18 -13   -3.96    2.63
   7 -18 -13  -21.78   12.40
  -7  18  13    6.96    4.61
  -7  18  13  -11.62    8.10
   6 -18 -13   -3.55   12.34
   6 -18 -13    2.29    2.63
  -6  18  13    2.81    4.66
  -6  18  13    9.91    6.78
   5 -18 -13   -0.89    2.46
   5 -18 -13   15.37   13.68
  -5  18  13   -2.54    6.03
  -5  18  13    3.73    4.63
   4 -18 -13   -1.65    2.47
   4 -18 -13  -11.67   13.67
  -4  18  13   -3.35    4.39
  -4  18  13    0.20    5.60
   3 -18 -13    0.13    2.55
   3 -18 -13   -1.00   13.67
  -3  18  13    1.71    4.34
  -3  18  13  -13.18    5.37
   2 -18 -13   -0.13    2.40
   2 -18 -13   -9.24   14.41
  -2  18  13    3.68    4.43
  -2  18  13   -2.53    4.93
   1 -18 -13   -3.20    2.45
   1 -18 -13  -13.32   15.10
  -1  18  13   10.03    4.31
  -1  18  13   -2.16    4.70
   0 -18 -13  -23.03   16.13
   0 -18 -13   -9.87    2.72
   0  18  13   -3.10    4.55
   0  18  13    2.38    4.32
  -1 -18 -13    7.12    2.75
  -1 -18 -13    1.40   16.18
   1  18  13   -3.07    4.36
   1  18  13    7.32    4.61
  -2 -18 -13    3.18    2.60
  -2 -18 -13   -3.50   16.70
   2  18  13   -0.58    4.42
  -3 -18 -13  -10.31   16.49
   3  18  13    0.40    4.25
   3 -19 -13    0.14    2.80
  -3  19  13    4.62    5.69
   2 -19 -13    0.14    2.79
  -2  19  13    0.21    5.43
   1 -19 -13    0.15    2.75
  -1  19  13    0.61    5.33
   0 -19 -13   -0.15    2.77
   0  19  13    3.94    5.19
  -1 -19 -13    0.15    2.82
   1   0 -14   -0.53    2.20
   0  -1  14   -0.26    1.00
  -1   0  14    0.78    0.95
  -1   0  14    0.31    0.84
   1  -1 -14   10.71    3.56
   1   1 -14    9.12    3.59
  -1   1  14    9.83    2.65
  -1   1  14   10.69    2.74
  -1  -1  14    7.55    2.64
  -1  -1  14    7.11    2.77
   2   1 -14    0.77    2.28
  -1   2  14   -2.04    0.92
  -2  -1  14    0.61    0.75
  -2  -1  14    2.01    0.99
   2   0 -14   -0.76    2.33
   0   2 -14   -0.89    2.48
  -2   0  14    2.06    0.79
  -2   0  14    2.17    1.03
   0  -2  14   -0.13    1.11
   2  -1 -14   -4.99    2.34
   1   2 -14   -0.06    2.38
  -2   1  14   -0.39    1.06
  -1  -2  14    1.25    1.08
  -1  -2  14    0.38    0.90
  -2   1  14    0.19    0.76
   2   2 -14   -0.48    2.39
   2  -2 -14    6.83    2.60
  -2  -2  14    0.57    1.14
  -2   2  14    1.07    1.22
  -2  -2  14    0.91    0.87
  -2   2  14    2.17    0.83
   3   2 -14   -1.01    2.04
   2  -3 -14   -3.77    2.18
  -3  -2  14   -0.43    0.95
  -2   3  14    0.10    1.01
  -2   3  14   -0.16    0.62
  -3  -2  14    0.16    0.68
   3   1 -14   -3.56    2.37
  -3  -1  14   -0.45    0.70
  -3  -1  14   -0.69    0.98
  -1   3  14   -4.02    1.04
   0   3 -14   -1.34    2.51
   3   0 -14   -4.56    2.35
  -3   0  14   -1.97    1.08
  -3   0  14   -0.74    0.69
   1   3 -14   -2.24    2.71
  -3   1  14   -0.70    1.00
  -1  -3  14   -0.87    1.12
  -3   1  14   -0.58    0.67
   2   3 -14    0.22    2.30
   3  -2 -14    0.12    1.84
  -2  -3  14   -0.21    1.03
  -3   2  14   -0.33    0.56
  -3   2  14   -0.43    0.93
  -2  -3  14   -0.77    0.79
   3  -3 -14    6.03    2.75
   3  -3 -14    7.27    1.93
   3   3 -14    7.35    2.98
   3  -3 -14    6.40    3.35
  -3  -3  14    4.53    1.93
  -3  -3  14    7.34    2.09
  -3   3  14    6.83    2.19
  -3   3  14    7.83    1.88
  -3   3  14    5.22    2.13
   4   3 -14   11.04    3.84
   3  -4 -14   16.70    3.66
  -4  -3  14    8.34    2.92
  -3   4  14    9.22    2.92
  -3   4  14   16.82    3.15
  -4  -3  14    6.71    3.07
   4   2 -14   -1.07    2.07
  -2   4  14   -0.15    0.59
  -4  -2  14   -0.14    0.61
  -4  -2  14   -0.04    0.90
   4   1 -14   10.91    3.73
   1  -4 -14    7.44    4.36
  -4  -1  14   11.70    3.00
  -1   4  14   13.18    2.99
  -4  -1  14    8.17    2.82
   0   4 -14    1.60    2.62
   0  -4 -14    0.99    2.40
   4   0 -14   -0.25    1.97
   0  -4  14   -0.20    1.11
  -4   0  14   -0.34    0.53
   0  -4  14    0.36    1.09
  -4   0  14    0.42    0.88
   4  -1 -14   11.21    3.53
   1   4 -14   10.31    3.98
   4  -1 -14   10.15    2.62
  -4   1  14    8.58    2.87
  -1  -4  14    8.49    2.94
  -1  -4  14    7.93    2.81
  -4   1  14   10.06    2.68
   4  -2 -14    0.15    0.38
   4  -2 -14    0.55    0.41
   4  -2 -14   -0.46    1.83
   2   4 -14   -0.93    2.44
  -2  -4  14   -0.06    1.11
  -4   2  14   -0.08    0.82
  -4   2  14    0.26    0.47
   4  -3 -14    7.66    2.37
   3   4 -14    8.50    3.53
   4  -3 -14    8.16    2.50
   4  -3 -14    4.91    3.58
   4  -3 -14   11.06    3.21
  -4   3  14    7.82    2.56
  -4   3  14   10.07    2.68
  -3  -4  14    9.42    2.68
  -4   3  14    9.63    2.65
  -4   3  14    9.10    2.41
   4  -4 -14    7.14    2.41
   4  -4 -14   10.48    3.12
   4   4 -14   12.91    3.53
   4  -4 -14    9.11    2.31
  -4   4  14    9.96    2.56
  -4   4  14    7.22    2.34
  -4  -4  14    5.77    2.54
   4  -5 -14    2.43    0.84
   4  -5 -14    1.53    3.29
   5   4 -14    5.97    2.62
   4  -5 -14    2.69    0.97
  -4   5  14    2.32    1.23
  -4   5  14    3.05    0.85
  -5  -4  14    1.39    1.28
  -4   5  14    2.70    1.26
   5   3 -14    8.17    3.40
   3  -5 -14    5.52    4.36
   3  -5 -14    7.95    2.33
   5   3 -14    7.60    2.20
  -5  -3  14    6.92    2.46
  -5  -3  14    7.39    2.25
  -3   5  14   10.79    2.52
   5   2 -14    6.88    3.14
   2  -5 -14    7.46    4.46
   2  -5 -14    9.74    2.15
   5   2 -14    5.32    2.00
  -5  -2  14    6.81    2.03
  -5  -2  14    5.60    2.22
  -2   5  14    9.97    2.44
   5   1 -14   22.37    5.59
   1  -5 -14   16.51    6.58
  -5  -1  14   20.41    4.90
  -5  -1  14   15.40    4.63
  -1   5  14    9.21    5.46
   5   0 -14    0.42    0.46
   0   5 -14    0.08    2.61
   5   0 -14   -0.93    2.01
   0  -5 -14   -1.48    2.95
  -5   0  14   -0.58    0.54
   0  -5  14   -0.36    1.23
  -5   0  14    0.54    0.83
   0  -5  14    0.95    1.17
   5  -1 -14   27.19    5.84
   1   5 -14   15.47    6.20
  -1  -5  14   17.15    5.23
  -5   1  14   16.31    4.95
  -5   1  14   17.54    5.23
  -1  -5  14   17.38    5.08
   5  -2 -14    4.61    2.83
   5  -2 -14    8.31    1.86
   2   5 -14    3.06    3.22
  -5   2  14    5.59    1.89
  -2  -5  14    8.25    2.04
  -2  -5  14    6.82    2.26
  -5   2  14    6.73    2.15
   3   5 -14    7.49    3.58
   5  -3 -14    5.96    2.33
   5  -3 -14   10.40    3.18
  -5   3  14    9.17    2.36
  -3  -5  14   11.20    2.46
  -3  -5  14    8.38    2.63
  -5   3  14    7.17    2.59
   5  -4 -14    3.04    1.99
   4   5 -14    0.78    2.64
   5  -4 -14    2.38    0.88
  -5   4  14    2.77    0.89
  -5   4  14    2.22    1.18
  -4  -5  14    2.58    1.36
  -4  -5  14    3.98    1.07
   5  -5 -14    8.37    3.59
   5  -5 -14   11.21    2.86
   5   5 -14   15.16    4.16
   5  -5 -14   -0.66    4.89
   5   5 -14   11.46    2.77
   5  -5 -14    9.65    2.93
  -5  -5  14    7.92    3.08
  -5   5  14   14.66    3.11
  -5  -5  14   11.28    2.83
  -5   5  14    9.33    2.86
   5  -6 -14    3.86    3.78
   6   5 -14    0.34    0.60
   6   5 -14   -2.02    2.80
   5  -6 -14    0.54    0.75
  -6  -5  14    0.04    0.72
  -5   6  14   -0.10    1.23
  -6  -5  14   -0.52    1.03
  -5   6  14   -1.87    1.47
   4  -6 -14    7.55    2.46
   4  -6 -14    5.82    4.51
   6   4 -14   15.74    3.73
  -6  -4  14    5.50    2.58
  -4   6  14    8.49    2.63
  -4   6  14   10.16    2.70
   3  -6 -14    9.27    2.35
   6   3 -14    7.99    2.19
   3  -6 -14    1.62    4.88
   6   3 -14   11.28    3.43
  -6  -3  14    7.65    2.26
  -3   6  14    8.91    2.52
  -6  -3  14    6.79    2.45
   6   2 -14    9.20    3.17
   2  -6 -14    8.38    4.85
   6   2 -14    5.84    1.96
   2  -6 -14    5.44    2.12
  -2   6  14    7.83    2.36
  -6  -2  14    6.22    2.21
  -6  -2  14    8.86    2.02
   1  -6 -14    2.39    4.33
   6   1 -14    2.94    0.83
   6   1 -14    6.52    2.27
   1  -6 -14    3.00    1.02
  -6  -1  14    1.36    0.89
  -1   6  14    2.26    1.44
  -6  -1  14    1.45    1.11
   0  -6 -14    3.75    4.07
   6   0 -14    5.74    1.55
   6   0 -14    8.72    2.71
   0   6 -14    5.90    3.35
   0  -6  14    3.59    1.97
  -6   0  14    5.85    1.60
  -6   0  14    4.92    1.81
   0  -6  14    4.08    1.91
   6  -1 -14    2.22    2.09
   1   6 -14    0.87    2.87
   6  -1 -14    1.54    0.73
  -1  -6  14    4.25    1.43
  -6   1  14    1.79    0.79
  -6   1  14    1.32    1.05
  -1  -6  14    2.91    1.22
   6  -2 -14   10.91    2.93
   2   6 -14    4.59    3.41
   6  -2 -14    7.25    1.92
  -6   2  14    7.87    2.16
  -2  -6  14    5.72    2.10
  -6   2  14    5.58    1.94
  -2  -6  14    6.14    2.28
   6  -3 -14    5.23    2.13
   6  -3 -14    9.38    3.06
   3   6 -14    8.07    3.60
  -3  -6  14    8.02    2.47
  -3  -6  14   10.62    2.24
  -6   3  14    7.40    2.16
  -6   3  14    5.34    2.38
   6  -4 -14   10.90    2.48
   6  -4 -14   11.59    3.30
   4   6 -14    5.99    3.78
  -4  -6  14    9.64    2.53
  -6   4  14    6.73    2.51
  -4  -6  14    9.14    2.76
  -6   4  14    7.55    2.73
   5   6 -14    1.61    2.87
   6  -5 -14    0.46    0.48
   5   6 -14    1.04    0.62
  -5  -6  14    0.84    1.14
  -6   5  14   -0.13    0.56
  -5  -6  14   -0.26    0.70
  -6   5  14   -0.56    0.91
   6   6 -14    2.44    1.04
   6   6 -14    3.74    3.09
  -6  -6  14    3.69    1.13
  -6  -6  14    2.14    1.43
   6  -7 -14   -0.40    4.47
   7   6 -14    0.41    0.74
   7   6 -14   -2.17    3.23
   6  -7 -14    0.35    0.87
  -7  -6  14   -1.68    1.25
  -7  -6  14    0.72    0.82
   7   5 -14   -0.06    1.53
   5  -7 -14    6.50    1.66
   7   5 -14    1.68    3.41
  -7  -5  14    7.83    1.58
  -5   7  14    6.15    2.34
  -5   7  14    4.60    1.97
  -7  -5  14    4.63    1.85
   4  -7 -14    2.54    4.22
   4  -7 -14    0.65    0.81
   7   4 -14    0.26    0.73
  -4   7  14    0.34    1.45
  -7  -4  14    2.00    1.03
  -4   7  14   -0.21    1.27
   3  -7 -14   11.16    3.19
   7   3 -14    9.30    3.03
   3  -7 -14    4.44    5.74
  -7  -3  14   14.42    3.09
  -3   7  14   10.90    3.39
  -7  -3  14   15.25    3.27
  -3   7  14    8.52    3.41
   7   2 -14    4.71    1.57
   2  -7 -14    4.42    1.73
   2  -7 -14   -0.95    5.24
  -7  -2  14    5.73    1.80
  -7  -2  14    7.96    1.64
  -2   7  14    4.87    2.01
   7   1 -14   12.07    3.86
   1  -7 -14   12.45    6.84
   1  -7 -14   14.92    4.09
  -7  -1  14   17.37    4.16
  -1   7  14   11.25    4.48
  -7  -1  14   16.06    3.93
   7   0 -14    0.23    0.56
   0   7 -14    3.05    3.03
   0  -7 -14    1.74    4.50
   0  -7  14   -0.15    1.35
  -7   0  14    0.30    0.88
  -7   0  14   -0.46    0.61
   0  -7  14   -0.07    1.30
   0   7  14    0.49    1.43
   0  -7  14    0.58    1.06
   7  -1 -14   16.21    3.93
   1   7 -14   12.45    5.45
  -1  -7 -14   11.10    5.95
  -7   1  14   15.57    4.23
  -7   1  14   11.01    3.98
  -1  -7  14   13.14    4.29
  -1  -7  14   19.68    4.11
   2   7 -14    2.23    3.46
   7  -2 -14    5.84    1.69
  -7   2  14    6.06    1.72
  -2  -7  14    8.43    1.89
  -7   2  14    5.15    1.89
  -2  -7  14    4.15    2.07
   3   7 -14   11.57    4.27
   7  -3 -14   10.48    2.81
  -7   3  14    9.98    2.87
  -7   3  14    9.84    3.08
  -3  -7  14    8.77    3.10
  -3  -7  14    8.79    2.86
   7  -4 -14    1.48    0.71
   4   7 -14    0.89    0.75
   4   7 -14    3.35    3.11
  -4  -7  14    1.70    1.35
  -4  -7  14    2.31    0.98
  -7   4  14    1.11    1.00
  -7   4  14    1.95    0.76
   5   7 -14   10.13    4.02
   5   7 -14    9.77    2.30
  -5  -7  14    7.51    2.32
  -7   5  14    7.81    2.49
  -5  -7  14    7.38    2.60
   6   7 -14    1.64    3.26
   6   7 -14    0.49    0.76
  -6  -7  14   -1.51    1.34
  -6  -7  14    0.09    0.87
   7   7 -14   -2.16    3.57
   7   7 -14    4.12    1.18
  -7  -7  14    4.27    1.58
  -7  -7  14    1.56    1.15
   8   7 -14   -0.70    3.55
  -8  -7  14    1.01    1.34
   6  -8 -14    1.92    1.10
   8   6 -14    2.27    0.90
   6  -8 -14    3.80    5.05
  -8  -6  14    0.06    1.25
  -6   8  14    0.24    2.46
  -8  -6  14    0.90    0.95
  -6   8  14    0.83    1.63
   5  -8 -14   -6.39    4.52
   5  -8 -14    0.21    0.96
  -8  -5  14   -1.11    1.15
  -5   8  14   -0.26    2.05
  -5   8  14    1.04    1.49
   4  -8 -14   20.07    8.55
   4  -8 -14   46.87   10.27
  -8  -4  14   35.94    8.56
  -4   8  14   17.91    8.93
  -8  -4  14   36.17    8.36
   3  -8 -14    1.51    1.00
   8   3 -14    2.52    0.77
   3  -8 -14   -7.68    5.89
  -3   8  14    1.82    1.48
  -8  -3  14    2.42    0.93
  -3   8  14    0.41    1.51
  -8  -3  14    0.69    1.10
   2  -8 -14    9.95    3.27
   2  -8 -14    6.57    6.56
   8   2 -14   12.60    3.09
  -2   8  14    8.19    3.55
  -8  -2  14   13.56    3.18
  -8  -2  14   12.32    3.35
   1  -8 -14    0.63    0.92
   1  -8 -14   -2.03    5.66
   8   1 -14    0.42    0.59
  -8  -1  14    0.56    0.75
  -8  -1  14   -0.84    0.96
  -1   8  14    0.30    1.38
   8   0 -14   12.79    3.26
   0  -8 -14   14.03    6.69
   0  -8 -14   10.16    3.46
   0   8 -14   13.14    4.96
   0  -8  14   11.54    3.55
   0   8  14    5.44    3.86
   0  -8  14   11.62    3.59
  -8   0  14   13.26    3.35
  -8   0  14   14.61    3.49
   1   8 -14    2.50    3.32
  -1  -8 -14    1.88    4.91
   8  -1 -14   -0.21    0.63
  -1  -8  14   -0.29    1.33
  -1  -8  14    0.59    1.22
  -8   1  14    0.46    0.74
  -8   1  14    1.26    0.93
   2   8 -14   10.30    4.96
   8  -2 -14   14.18    3.36
  -8   2  14    9.84    3.40
  -2  -8  14    8.82    3.67
  -2  -8  14   12.94    3.44
  -8   2  14   14.65    3.61
   8  -3 -14    1.09    0.71
   3   8 -14   -0.89    3.29
  -3  -8  14    2.79    1.02
  -8   3  14    0.87    1.05
  -3  -8  14    0.61    1.44
   4   8 -14   32.60    8.60
   4   8 -14   26.45    6.92
  -4  -8  14   22.05    6.99
  -8   4  14   24.16    7.64
  -4  -8  14   25.84    7.43
   5   8 -14    0.34    0.82
   5   8 -14   -1.23    3.36
  -5  -8  14   -0.07    1.46
  -5  -8  14    0.05    0.85
   6   8 -14   -0.18    0.89
   6   8 -14   -2.39    3.74
  -6  -8  14    0.39    1.42
  -6  -8  14    2.48    0.89
   7   8 -14    0.86    3.65
   7   8 -14   -0.07    1.04
  -7  -8  14    5.59    1.08
  -7  -8  14    0.07    1.50
   9   8 -14    0.08    0.95
  -9  -8  14   -1.17    1.41
  -9  -8  14    1.51    1.16
   9   7 -14   -0.81    0.93
  -9  -7  14   -0.88    1.08
   6  -9 -14    0.07    5.37
   6  -9 -14    0.86    1.24
  -6   9  14    2.66    1.95
  -6   9  14    3.85    2.90
   5  -9 -14    3.60    1.23
   5  -9 -14    0.85    4.98
  -5   9  14    3.62    2.46
  -5   9  14    2.47    1.82
  -9  -5  14    0.06    1.34
   4  -9 -14    3.62    5.26
   4  -9 -14    0.95    1.07
   9   4 -14    0.06    0.84
  -9  -4  14    0.98    0.95
  -4   9  14   -0.27    1.67
  -4   9  14    0.40    1.93
  -9  -4  14    1.83    1.07
   3  -9 -14   12.52    4.11
   3  -9 -14    8.21    7.33
   9   3 -14   12.87    3.91
  -9  -3  14   17.40    4.14
  -3   9  14   17.03    4.40
  -9  -3  14   17.07    4.01
  -3   9  14   11.81    4.47
   9   2 -14   -0.85    0.73
   2  -9 -14   -0.49    1.02
  -9  -2  14    0.11    0.92
  -9  -2  14   -0.76    1.07
  -2   9  14   -0.75    1.49
   9   1 -14    7.93    2.08
   1  -9 -14  -11.04    7.18
   1  -9 -14    8.16    2.24
  -9  -1  14    6.17    2.24
  -1   9  14    6.96    2.58
  -9  -1  14    8.25    2.14
   0   9 -14    0.91    3.47
   0  -9 -14    1.57    1.12
   0  -9  14    0.86    1.32
   0   9  14   -0.38    1.76
   0  -9  14    0.92    1.40
   1   9 -14    7.33    4.40
  -1  -9 -14   16.56    6.46
   9  -1 -14    5.87    2.29
  -9   1  14    8.79    2.47
  -1  -9  14   11.36    2.53
  -1  -9  14    8.72    2.72
   1   9  14    3.29    2.97
   2   9 -14   -2.92    3.68
  -2  -9  14    0.44    1.48
  -9   2  14   -1.28    1.03
  -2  -9  14    1.23    1.07
   3   9 -14   11.44    5.35
  -3  -9  14   14.27    4.07
  -3  -9  14   11.89    3.66
  -9   3  14   13.39    3.95
   4   9 -14    2.23    0.88
   4   9 -14    1.87    3.50
  -9   4  14    0.37    1.08
  -4  -9  14    0.92    1.72
  -4  -9  14    1.14    1.01
   5   9 -14    1.95    1.02
   5   9 -14    1.24    3.58
  -5  -9  14    2.69    1.05
  -5  -9  14    0.28    1.65
   6   9 -14    0.30    3.90
   6   9 -14    4.10    1.24
  -6  -9  14    3.60    1.30
  -6  -9  14    2.98    1.87
  -8  -9  14    9.02    2.73
   9   9 -14   -0.33    1.03
   9   9 -14   -1.46    4.15
  -9  -9  14    1.10    1.19
  -9  -9  14   -0.07    1.51
  10   9 -14    0.36    1.14
 -10  -9  14   -0.70    1.56
 -10  -9  14   -0.99    1.24
  10   8 -14    0.34    1.06
 -10  -8  14   -0.07    1.39
 -10  -8  14   -0.73    1.17
  10   7 -14    0.16    1.00
   7 -10 -14    1.66    1.39
 -10  -7  14    2.18    1.22
 -10  -7  14    0.06    1.30
   6 -10 -14    6.44    5.87
   6 -10 -14    0.11    1.19
  10   6 -14   -0.86    0.89
  -6  10  14   -0.37    1.93
 -10  -6  14    0.31    1.23
 -10  -6  14   -1.83    1.07
  -6  10  14    0.51    3.22
   5 -10 -14    0.61    1.20
   5 -10 -14    6.45    5.61
  -5  10  14    1.23    1.92
  -5  10  14    2.04    2.68
   4 -10 -14    5.27    1.91
   4 -10 -14    7.56    6.18
  -4  10  14    5.81    2.37
  -4  10  14    2.23    2.71
   3 -10 -14    1.65    1.20
   3 -10 -14    4.39    6.56
 -10  -3  14    0.17    1.20
  -3  10  14    1.98    1.83
  -3  10  14    1.64    1.96
  10   2 -14    3.82    1.12
   2 -10 -14    2.49    1.36
   2 -10 -14    0.17    7.17
 -10  -2  14    1.45    1.37
  -2  10  14    4.50    1.92
   1 -10 -14    0.12    1.05
   1 -10 -14   -5.51    7.54
  -1  10  14    1.03    1.76
 -10  -1  14   -0.52    1.03
   0 -10 -14   -0.31    1.09
   0 -10 -14   -2.74    7.44
   0  10  14   -1.10    1.85
 -10   0  14   -0.05    0.99
   0 -10  14   -0.24    1.48
   1  10 -14   -1.08    3.86
  -1 -10 -14    3.68    6.90
  -1 -10  14    0.25    1.66
   1  10  14   -4.15    1.96
  -1 -10  14    2.61    1.29
   2  10 -14    4.33    3.90
  -2 -10 -14    3.37    6.18
  -2 -10  14    1.97    1.72
  -2 -10  14    2.48    1.38
   3  10 -14    2.04    3.78
  -3 -10  14    2.56    1.67
  -3 -10  14    0.92    1.07
   4  10 -14    5.75    2.05
   4  10 -14    5.01    4.28
  -4 -10  14    8.70    2.08
  -4 -10  14    5.63    2.54
   5  10 -14    0.77    0.84
   5  10 -14    5.39    3.97
  -5 -10  14   -4.69    1.75
  -5 -10  14    1.58    0.96
   7  10 -14    0.51    1.03
  -7 -10  14    2.66    1.13
   8  10 -14   -0.59    4.33
   8  10 -14    0.08    1.03
  -8 -10  14    0.52    1.10
  -8 -10  14   -5.01    1.82
   9  10 -14    0.78    1.17
   9  10 -14    6.11    4.46
  -9 -10  14   -0.66    1.22
  -9 -10  14   -0.08    1.69
  10  10 -14    2.16    1.19
 -10 -10  14   -0.08    1.29
 -10 -10  14    0.07    1.63
 -11 -10  14    0.08    1.62
   7 -11 -14   -0.13    1.46
  -7  11  14    2.74    4.13
  -7  11  14    5.36    2.29
   6 -11 -14  -11.48    7.10
   6 -11 -14    1.72    1.44
  -6  11  14   -0.10    2.14
  -6  11  14    0.81    3.61
   5 -11 -14   -2.24    1.48
  -5  11  14    1.84    2.25
  -5  11  14    1.00    3.22
   4 -11 -14   14.86    6.88
   4 -11 -14    0.43    1.31
  -4  11  14    0.35    2.65
  -4  11  14   -0.79    2.09
   3 -11 -14    4.78    7.28
   3 -11 -14    2.16    1.31
  -3  11  14   -0.08    2.14
  -3  11  14    0.94    2.29
   2 -11 -14    0.36    1.20
   2 -11 -14  -10.35    8.17
  -2  11  14    3.19    2.09
   1 -11 -14   14.22    8.32
   1 -11 -14    0.71    1.37
   1 -11  14    2.23    1.84
   1 -11  14    2.24    1.82
  -1  11  14    3.66    2.06
   0 -11 -14    0.07    1.24
   0 -11 -14   -0.69    8.16
   0  11  14   -2.89    2.04
   0 -11  14    0.24    1.48
   1  11 -14    5.23    4.12
  -1 -11 -14    1.94    1.45
  -1 -11  14    1.75    1.53
   1  11  14    2.46    2.23
  -1 -11  14    1.56    1.79
   2  11 -14    8.85    4.03
  -2 -11  14    0.67    1.25
  -2 -11  14    0.08    1.70
   3  11 -14   -2.79    3.96
  -3 -11  14    1.11    1.07
  -3 -11  14    1.16    1.82
   4  11 -14   -2.13    4.13
   4  11 -14    1.38    0.92
  -4 -11  14    0.05    0.94
  -4 -11  14    0.67    1.81
  -5 -11  14   -0.08    1.90
   6  11 -14    1.60    1.09
   7  11 -14    0.44    4.54
   7  11 -14    0.24    1.06
  -7 -11  14    0.25    1.83
  -7 -11  14    0.24    1.08
   8  11 -14   -0.63    4.71
   8  11 -14    0.08    1.12
  -8 -11  14   -1.70    1.23
  -8 -11  14   -2.37    1.92
   9  11 -14   -1.82    4.77
   9  11 -14    0.74    1.14
  -9 -11  14    1.01    1.81
  -9 -11  14    0.46    1.33
  10  11 -14   -1.77    1.27
  10  11 -14    1.40    4.91
 -10 -11  14    0.90    1.77
 -11 -11  14    4.54    2.65
   7 -12 -14    7.30    7.79
   7 -12 -14   14.31    4.10
  -7  12  14   31.31    6.01
   6 -12 -14    1.00    7.10
   1 -12  14    0.36    1.78
   0 -12  14   -0.23    1.51
   1  12 -14    3.51    4.23
  -1 -12  14   -0.61    1.41
  -1 -12  14   -0.28    1.84
  -2 -12 -14  -11.11    8.64
   2  12 -14   -5.27    4.45
  -2 -12  14   -0.18    1.22
  -2 -12  14   -3.22    1.96
   2  12  14    5.23    2.30
   3  12 -14    7.67    4.97
   3  12 -14    6.33    1.86
  -3 -12  14    1.51    2.54
  -3 -12  14    6.43    1.87
   5  12 -14   -0.07    0.96
   6  12 -14    0.08    1.07
   6  12 -14    4.26    4.71
  -6 -12  14    0.06    1.07
  -6 -12  14    0.18    2.04
   7  12 -14   -0.08    1.08
   7  12 -14    3.33    4.86
  -7 -12  14    0.65    2.11
  -7 -12  14   -1.09    1.18
   8  12 -14    6.10    5.05
   8  12 -14    1.26    1.27
  -8 -12  14    1.30    1.33
  -8 -12  14    1.30    2.16
   9  12 -14    8.77    5.46
   9  12 -14    0.29    1.71
  -9 -12  14    1.45    2.43
  -9 -12  14    8.71    1.82
  10  12 -14    2.75    1.36
  10  12 -14    1.38    5.30
 -10 -12  14   -0.09    2.06
  11  12 -14   -1.92    5.33
 -11 -12  14    0.09    1.92
   7 -13 -14  -15.47    7.68
   7 -13 -14   -3.43    1.69
  -7  13  14   -4.24    5.03
  -7  13  14    2.01    2.73
   6 -13 -14   19.41    8.03
   6 -13 -14    6.14    2.20
  -6  13  14    1.00    4.45
  -6  13  14    1.25    3.13
   5 -13 -14    0.88    7.70
   5 -13 -14    1.01    1.61
  -5  13  14    0.77    3.72
  -5  13  14   -0.23    2.51
   4 -13 -14   -1.54    8.01
   4 -13 -14    0.15    1.56
  -4  13  14   -4.86    3.42
  -4  13  14    1.34    2.52
   3 -13 -14    0.54    1.59
   3 -13 -14    9.62    9.20
  -3  13  14   -4.63    3.00
  -3  13  14   -0.33    2.56
   2 -13 -14    0.08    1.55
   2 -13 -14    1.23    9.64
  -2  13  14   -1.98    2.57
  -2  13  14    3.46    2.65
   1 -13 -14    4.91   10.61
   1 -13 -14    1.82    1.54
  -1  13  14   -2.12    2.66
   0 -13 -14   -3.41   10.35
   0 -13 -14   -1.78    1.53
   0  13  14   -2.02    2.46
  -1 -13 -14   -0.69    1.55
  -1 -13 -14    2.10   10.02
   1  13  14    5.55    2.62
  -2 -13 -14    6.55    9.62
   2  13 -14    5.65    4.40
   2  13  14   -3.21    2.61
   4  13 -14    1.38    1.06
   5  13 -14    0.84    1.06
   5  13 -14   -1.31    4.83
  -5 -13  14    0.17    1.03
  -5 -13  14    4.45    2.25
   6  13 -14    5.55    4.97
   6  13 -14    2.79    1.27
  -6 -13  14    1.17    1.28
  -6 -13  14    0.50    2.26
   7  13 -14   -8.18    5.47
   7  13 -14   -2.81    1.35
  -7 -13  14   -0.40    2.20
  -7 -13  14    0.07    1.15
   8  13 -14    1.32    1.24
   8  13 -14   -5.42    5.38
  -8 -13  14   -0.71    2.31
  -8 -13  14   -2.83    1.40
   9  13 -14   -1.47    1.36
   9  13 -14    0.21    5.42
  -9 -13  14    4.43    1.43
  -9 -13  14    0.10    2.29
  10  13 -14   -0.12    1.41
  10  13 -14   -3.02    5.48
 -10 -13  14    2.64    2.09
  11  13 -14   -7.66    5.58
 -11 -13  14    2.41    2.08
   8 -14 -14    2.32    1.97
   7 -14 -14   -1.69    8.62
   7 -14 -14    4.94    2.15
  -7  14  14    1.92    3.31
  -7  14  14    9.15    5.42
   6 -14 -14    0.09    1.76
   6 -14 -14  -17.62    8.60
  -6  14  14   -0.70    2.99
  -6  14  14    4.34    4.70
   5 -14 -14   -3.79    1.79
  -5  14  14    1.70    2.87
  -5  14  14    4.10    4.27
   4 -14 -14   -3.01    8.89
   4 -14 -14    0.09    1.76
  -4  14  14    5.24    3.71
  -4  14  14    3.12    2.91
   3 -14 -14   -2.13    1.75
   3 -14 -14   -3.99    9.77
  -3  14  14   -0.12    3.43
  -3  14  14   -0.37    2.92
   2 -14 -14    1.86    1.66
   2 -14 -14    2.73   10.42
  -2  14  14   -1.63    2.74
  -2  14  14   -3.39    2.92
   1 -14 -14   -1.32    1.63
   1 -14 -14   -1.60   11.33
  -1  14  14    1.42    2.84
   0 -14 -14   -1.88    1.75
   0 -14 -14   -9.18   11.52
   0  14  14    2.48    2.81
  -1 -14 -14    2.87   11.11
  -1 -14 -14    2.07    1.67
   1  14  14   -2.69    2.81
  -2 -14 -14   -7.30   10.64
   2  14  14    0.52    2.74
   8  14 -14   -0.90    1.29
   9  14 -14    2.70    5.74
   9  14 -14    0.22    1.35
  10  14 -14   22.33    6.54
 -10 -14  14    2.88    3.24
  11  14 -14    7.48    6.04
 -11 -14  14    1.47    2.47
   8 -15 -14   -4.97    2.26
   7 -15 -14    5.52    2.20
   7 -15 -14    2.11    8.73
  -7  15  14    1.15    3.45
  -7  15  14   -5.74    5.80
   6 -15 -14   -0.87    9.39
   6 -15 -14    0.67    2.02
  -6  15  14   -0.69    5.26
  -6  15  14    3.72    3.41
   5 -15 -14    2.02    1.96
   5 -15 -14   -1.60    9.58
  -5  15  14   -1.03    3.24
  -5  15  14    0.32    4.62
   4 -15 -14   -1.42    1.94
   4 -15 -14   -0.96    9.53
  -4  15  14   -0.28    3.94
  -4  15  14    0.56    3.13
   3 -15 -14   -8.65   10.66
   3 -15 -14    1.42    1.88
  -3  15  14   -3.67    3.54
  -3  15  14   -0.69    3.30
  -2  15  14   -0.13    3.36
  -2  15  14   -0.75    3.47
  -1 -15 -14   63.08   20.23
  -2 -15 -14  -24.51   12.48
   2  15  14   -4.98    3.16
   8 -16 -14   -5.05    2.26
  -8  16  14   -7.31    6.59
  -8  16  14    3.03    3.60
   7 -16 -14   -2.97    2.18
  -7  16  14    4.45    6.09
  -7  16  14   -1.09    3.74
  -6  16  14  -15.82    6.12
  -6  16  14   -7.27    4.39
   5 -16 -14    1.92   10.80
   5 -16 -14   -0.11    2.08
  -5  16  14   -0.17    4.95
  -5  16  14    2.16    3.61
   4 -16 -14   -8.47    2.21
   4 -16 -14   15.43   10.91
  -4  16  14    2.99    3.71
  -4  16  14   -1.11    4.64
   3 -16 -14   -2.41    2.01
   3 -16 -14   27.28   11.74
  -3  16  14   -4.30    4.16
  -3  16  14   -2.29    3.58
   2 -16 -14    0.43    2.19
   2 -16 -14   13.53   12.39
  -2  16  14    2.84    3.62
  -2  16  14   11.14    4.05
   1 -16 -14   -1.85    2.05
   1 -16 -14  -15.97   13.13
  -1  16  14   -5.62    3.72
  -1  16  14    1.70    3.53
   0 -16 -14   -3.74    2.07
   0 -16 -14  -36.27   13.63
   0  16  14    4.30    3.54
  -1 -16 -14    2.17    2.16
  -1 -16 -14   18.66   13.78
   1  16  14    2.28    3.60
  -2 -16 -14    2.04    2.11
  -2 -16 -14    5.20   13.58
   2  16  14   -1.58    3.37
   8 -17 -14   -9.03    2.58
  -8  17  14    0.63    4.12
  -8  17  14   -5.02    6.96
   7 -17 -14   -2.44   11.03
   7 -17 -14   -3.49    2.43
  -7  17  14   -2.42    4.20
  -7  17  14   -9.97    6.90
   6 -17 -14   -2.62   11.65
   6 -17 -14    3.60    2.40
  -6  17  14   -5.32    6.23
  -6  17  14    2.15    4.22
   5 -17 -14   11.16   12.41
   5 -17 -14   -1.62    2.29
  -5  17  14   -1.11    4.16
  -5  17  14    8.40    5.57
   4 -17 -14  -11.13    2.51
  -4  17  14    3.74    5.04
  -4  17  14    0.70    4.23
  -2  17  14  -16.65    4.67
  -2  17  14  -13.52    5.32
   1 -17 -14   -3.98    2.53
  -1  17  14   -6.22    4.57
  -1  17  14   -1.76    4.11
   0 -17 -14  -28.37   15.30
   0 -17 -14   -6.49    2.55
   0  17  14   -8.29    4.27
   0  17  14    0.94    4.03
  -1 -17 -14  -10.01    2.55
  -1 -17 -14  -29.73   16.05
   1  17  14  -16.13    4.57
   8 -18 -14    3.47    2.64
  -8  18  14    7.53    7.57
  -8  18  14   -6.51    3.68
   7 -18 -14    2.31    2.74
   7 -18 -14   17.26   12.33
  -7  18  14   -0.22    4.62
  -7  18  14   -0.23    6.86
   6 -18 -14   20.78   12.97
   6 -18 -14    2.96    2.63
  -6  18  14   -5.68    4.78
  -6  18  14    1.76    6.35
   5 -18 -14    0.13    2.64
   5 -18 -14   -5.28   13.42
  -5  18  14   -4.98    4.60
  -5  18  14   17.64    6.19
   4 -18 -14   19.51   13.74
   4 -18 -14   -4.13    2.65
  -4  18  14   15.95    4.70
  -4  18  14    1.77    5.68
   3 -18 -14    0.13    2.48
   3 -18 -14   -5.08   13.70
  -3  18  14    3.00    5.17
  -3  18  14   -8.96    4.47
   2 -18 -14   10.72   14.53
   2 -18 -14    0.52    2.47
  -2  18  14   -0.36    4.85
  -2  18  14    0.75    4.41
   1 -18 -14   26.58   15.23
   1 -18 -14   -4.66    2.43
  -1  18  14    3.08    4.58
  -1  18  14   -1.27    4.35
   0 -18 -14   -3.05    2.56
   0 -18 -14   -6.01   16.01
   0  18  14   -2.40    4.57
   0  18  14    2.75    4.11
  -1 -18 -14    9.01   16.09
  -1 -18 -14   -1.83    2.51
   1  18  14   -3.27    4.18
   1  18  14   -8.74    4.70
  -2 -18 -14    1.85   16.89
   2  18  14    6.54    4.68
   1   0 -15   27.29    8.11
  -1   0  15   23.60    7.01
   1   1 -15   -0.85    2.43
   1  -1 -15   -4.32    2.35
  -1   1  15   -0.43    0.85
  -1  -1  15    0.74    1.12
  -1  -1  15    0.23    0.92
  -1   1  15   -0.48    1.09
   1  -2 -15    0.06    2.16
   1  -2 -15    1.70    1.85
   2   1 -15    1.62    2.44
  -2  -1  15    0.50    0.99
  -1   2  15    0.31    0.87
  -2  -1  15   -1.09    0.86
   2   0 -15   -0.12    1.09
   2   0 -15   -1.24    2.30
  -2   0  15   -0.40    0.76
  -2   0  15   -0.60    1.02
   2  -1 -15    1.09    1.76
   2  -1 -15    2.19    2.29
   1   2 -15    0.47    2.50
  -2   1  15    0.09    0.76
  -1  -2  15    0.12    1.13
  -2   1  15    0.22    1.06
  -1  -2  15    1.77    1.04
   2  -2 -15   -1.94    2.30
   2   2 -15   -0.24    2.37
   2  -2 -15    1.21    2.33
  -2   2  15   -0.32    1.03
  -2  -2  15    0.06    1.09
  -2   2  15   -0.76    0.73
  -2  -2  15   -0.30    0.85
   2  -3 -15    0.77    2.26
   3   2 -15    1.32    2.37
  -3  -2  15   -0.32    1.07
  -2   3  15    0.33    0.71
  -3  -2  15    0.52    0.73
  -2   3  15    0.54    1.07
   3   1 -15    7.09    3.13
  -3  -1  15    7.49    2.17
  -3  -1  15    6.91    2.36
  -1   3  15    8.94    2.29
   0   3 -15   -2.42    2.57
   3   0 -15    0.10    2.18
  -3   0  15    0.75    0.98
  -3   0  15    0.31    0.69
   0  -3  15    0.22    1.22
   3  -1 -15    5.75    2.88
   1   3 -15    5.83    3.31
  -3   1  15    3.56    2.11
  -3   1  15    7.10    1.90
  -1  -3  15    3.82    2.15
  -1  -3  15   11.29    2.06
   3  -2 -15   -4.04    2.10
   2   3 -15   -1.05    2.53
  -3   2  15   -0.23    0.63
  -3   2  15   -0.44    0.97
  -2  -3  15    0.16    0.91
  -2  -3  15   -0.58    1.08
   3   3 -15    0.66    2.44
   3  -3 -15    2.12    2.77
   3  -3 -15    1.56    2.08
  -3   3  15    0.19    1.04
  -3   3  15    0.34    0.57
  -3  -3  15    0.44    1.09
  -3  -3  15    0.05    0.81
   3  -4 -15    5.33    2.38
   4   3 -15   -0.05    2.48
  -3   4  15    3.17    1.25
  -4  -3  15    2.96    1.03
  -3   4  15    1.82    0.88
  -4  -3  15    2.43    1.27
   4   2 -15    7.86    3.60
   2  -4 -15   12.80    3.71
  -2   4  15   10.04    2.73
  -2   4  15   13.40    2.97
  -4  -2  15    9.05    2.86
  -4  -2  15    7.42    2.68
   1  -4 -15    1.13    3.26
   4   1 -15    2.92    2.41
  -1   4  15    3.82    1.21
  -4  -1  15    2.71    1.05
  -4  -1  15    3.26    1.32
   0   4 -15    0.70    2.62
   4   0 -15   -2.55    2.08
  -4   0  15    0.03    0.63
   0  -4  15   -0.45    1.24
  -4   0  15   -0.14    0.99
   4  -1 -15    5.32    2.27
   1   4 -15    1.07    2.91
  -4   1  15    3.09    1.25
  -4   1  15    2.16    0.96
  -1  -4  15    2.03    1.38
   4  -2 -15    7.01    2.15
   2   4 -15    9.14    3.60
   4  -2 -15   10.25    3.17
  -4   2  15    9.33    2.48
  -2  -4  15    3.80    2.49
  -4   2  15    7.81    2.21
   4  -3 -15    2.40    0.84
   3   4 -15    2.85    2.67
   4  -3 -15    2.77    2.14
  -4   3  15    3.07    0.92
  -3  -4  15    1.71    1.34
  -4   3  15    3.80    1.25
   4  -4 -15   -3.32    2.08
   4  -4 -15   -0.11    0.39
   4   4 -15    1.02    2.52
  -4   4  15    0.48    0.99
  -4  -4  15   -0.71    1.02
  -4   4  15   -0.02    0.46
   5   4 -15    3.91    1.11
   5   4 -15   -0.45    2.90
   4  -5 -15   -0.28    3.56
   4  -5 -15    3.62    1.07
   4  -5 -15    1.99    1.19
   4  -5 -15    4.37    2.28
  -5  -4  15    4.76    1.51
  -4   5  15    7.65    1.49
  -4   5  15    3.50    1.09
   5   3 -15    2.77    0.65
   3  -5 -15    0.52    2.24
   3  -5 -15    1.70    3.72
   5   3 -15   -0.97    2.57
   3  -5 -15    0.86    0.74
  -3   5  15    0.73    0.60
  -3   5  15    0.22    1.08
  -5  -3  15    0.95    0.75
  -5  -3  15    3.10    1.11
   5   2 -15    2.82    0.94
   2  -5 -15    1.86    3.99
   2  -5 -15    0.70    1.08
   5   2 -15    4.85    2.59
  -2   5  15    2.97    1.42
  -2   5  15    2.16    0.99
  -5  -2  15    4.15    1.32
  -5  -2  15    4.11    1.01
   5   1 -15    6.18    1.45
   5   1 -15    7.18    2.75
   1  -5 -15    2.58    3.97
  -5  -1  15    3.11    1.50
  -5  -1  15    7.40    1.82
  -1   5  15    4.23    1.67
   0  -5 -15    1.99    3.24
   0   5 -15    2.26    3.00
   5   0 -15    3.20    1.05
   5   0 -15    2.26    2.44
  -5   0  15    3.43    1.12
  -5   0  15    4.34    1.36
   0  -5  15    4.50    1.57
   5  -1 -15    6.45    1.43
   1   5 -15    3.20    3.32
   5  -1 -15    4.13    2.64
  -1  -5  15    4.30    1.78
  -5   1  15    4.08    1.48
  -5   1  15    4.54    1.75
  -1  -5  15    5.96    1.94
   2   5 -15    0.41    3.00
   5  -2 -15    4.23    0.96
   5  -2 -15    5.72    2.28
  -5   2  15    2.30    1.38
  -5   2  15    2.88    1.02
  -2  -5  15    1.32    1.45
  -2  -5  15    2.89    1.32
   5  -3 -15   -0.32    2.05
   3   5 -15    0.73    2.73
   5  -3 -15    1.56    0.56
  -3  -5  15    0.42    1.23
  -5   3  15    1.42    0.59
  -5   3  15    1.03    1.00
  -3  -5  15    0.80    0.93
   4   5 -15    4.38    2.94
   5  -4 -15    5.21    2.28
   5  -4 -15    3.56    1.10
  -5   4  15    4.21    1.44
  -5   4  15    3.70    1.11
  -4  -5  15    1.89    1.56
  -4  -5  15    3.38    1.27
   5   5 -15   -2.83    2.92
   5   5 -15    0.05    0.61
  -5   5  15    0.05    0.49
  -5   5  15    0.04    1.00
  -5  -5  15    0.62    0.81
  -5  -5  15    0.29    1.20
   6   5 -15    4.52    3.90
  -6  -5  15    9.20    2.56
  -6  -5  15    8.14    2.27
   6   4 -15    8.70    2.09
   4  -6 -15    5.40    4.46
   4  -6 -15    5.50    2.21
   6   4 -15   11.87    3.68
  -4   6  15    6.62    2.42
  -6  -4  15    9.21    2.39
  -6  -4  15    7.28    2.14
  -4   6  15    6.97    2.38
   3  -6 -15    4.77    4.55
   6   3 -15    5.70    1.39
   3  -6 -15    5.07    1.51
   6   3 -15    2.93    2.97
  -3   6  15    4.80    1.71
  -6  -3  15    2.60    1.68
  -6  -3  15    4.98    1.45
   2  -6 -15    7.88    3.03
   2  -6 -15    7.87    5.63
   6   2 -15   10.98    4.10
   6   2 -15   10.53    2.83
  -2   6  15   13.03    3.33
  -6  -2  15    7.88    2.89
  -6  -2  15   15.81    3.15
   6   1 -15    3.83    1.10
   6   1 -15    2.65    2.66
   1  -6 -15    6.21    4.53
  -1   6  15    1.35    1.72
  -6  -1  15    3.98    1.46
  -6  -1  15    3.87    1.17
   0   6 -15    0.92    2.90
   6   0 -15    1.15    2.23
   0  -6 -15    0.25    3.75
   6   0 -15   -0.25    0.55
  -6   0  15   -0.55    0.94
  -6   0  15   -0.07    0.58
   0  -6  15    0.08    1.25
   6  -1 -15    5.39    1.28
   6  -1 -15    2.68    2.63
   1   6 -15    6.56    3.37
  -6   1  15    5.80    1.59
  -1  -6  15    5.22    1.83
  -6   1  15    3.03    1.29
  -1  -6  15    2.91    1.64
   6  -2 -15   11.36    2.66
   2   6 -15   11.22    4.31
   6  -2 -15   10.41    3.73
  -6   2  15   10.13    2.70
  -2  -6  15    6.80    2.82
  -2  -6  15    6.46    3.06
  -6   2  15   10.03    3.01
   6  -3 -15    4.12    1.23
   6  -3 -15    2.46    2.46
   3   6 -15    9.80    3.21
  -6   3  15    3.57    1.54
  -3  -6  15    2.48    1.69
  -3  -6  15    2.46    1.42
  -6   3  15    4.72    1.24
   4   6 -15    6.50    3.76
   6  -4 -15    6.34    2.10
   6  -4 -15    8.70    3.09
  -4  -6  15    8.04    2.19
  -6   4  15    8.61    2.39
  -4  -6  15    7.26    2.46
  -6   4  15    6.93    2.12
   5   6 -15   11.01    4.04
   5   6 -15    6.21    2.25
  -6   5  15    7.04    2.31
  -5  -6  15    9.24    2.62
  -5  -6  15    9.09    2.32
   6   6 -15   -0.88    0.82
  -6  -6  15   -1.81    1.44
  -6  -6  15   -2.47    0.98
   7   6 -15    0.88    3.60
   7   6 -15    3.22    1.23
  -7  -6  15    1.89    1.68
  -7  -6  15    4.85    1.29
   5  -7 -15   -0.18    0.88
   5  -7 -15   -8.21    4.26
  -7  -5  15   -5.68    1.62
   4  -7 -15    3.43    1.24
   7   4 -15    5.63    1.14
   4  -7 -15   -9.64    4.63
  -4   7  15    3.15    1.66
  -7  -4  15    1.85    1.23
  -4   7  15    3.84    1.60
   3  -7 -15    1.94    5.10
   7   3 -15    8.17    2.89
   7   3 -15    3.16    1.20
   3  -7 -15    2.53    1.33
  -7  -3  15    6.38    1.56
  -3   7  15    3.28    1.63
  -7  -3  15    4.32    1.28
   7   2 -15   13.51    5.01
   2  -7 -15   11.87    3.93
   7   2 -15   12.68    3.72
   2  -7 -15   13.54    6.96
  -2   7  15   12.51    4.22
  -7  -2  15   17.47    3.78
  -7  -2  15   13.75    4.02
   1  -7 -15    0.24    0.95
   7   1 -15    1.74    0.70
   1  -7 -15    1.92    5.08
  -1   7  15   -0.44    1.43
  -7  -1  15    1.61    0.77
  -7  -1  15    1.69    1.05
   7   0 -15    5.39    2.20
   0  -7 -15   14.16    5.18
   0   7 -15   12.62    4.09
   0  -7  15    4.90    2.56
  -7   0  15    8.57    2.47
  -7   0  15    8.96    2.25
   7  -1 -15    1.12    0.66
   1   7 -15    2.21    3.23
  -7   1  15    2.78    1.04
  -1  -7  15    2.07    1.51
  -7   1  15    0.58    0.75
  -1  -7  15    2.89    1.32
   2   7 -15   15.23    5.29
   7  -2 -15   12.79    3.74
  -7   2  15   15.98    4.07
  -2  -7  15   16.07    4.10
  -7   2  15   10.28    3.78
  -2  -7  15   13.65    3.86
   3   7 -15    3.98    3.26
   7  -3 -15    3.46    1.09
  -7   3  15    1.36    1.38
  -3  -7  15    3.45    1.68
  -3  -7  15    5.02    1.37
  -7   3  15    3.17    1.15
   7  -4 -15    3.47    2.54
   4   7 -15   -4.81    3.71
   7  -4 -15    5.45    1.33
  -4  -7  15    4.48    1.49
  -7   4  15    4.75    1.34
  -4  -7  15    2.89    1.85
  -7   4  15    4.59    1.64
   5   7 -15   -0.90    0.80
  -5  -7  15   -0.68    0.99
   6   7 -15    2.63    1.09
   6   7 -15    4.48    3.65
  -6  -7  15    0.07    1.65
  -6  -7  15    3.48    1.16
   7   7 -15    1.29    3.69
   7   7 -15    2.90    1.04
  -7  -7  15    3.64    1.17
  -7  -7  15    0.19    1.48
   8   6 -15    1.26    3.36
  -8  -6  15   -0.06    1.27
   5  -8 -15   14.54    5.00
   5  -8 -15    7.48    1.93
  -8  -5  15    1.29    2.07
  -5   8  15    7.08    2.29
  -5   8  15    4.22    2.59
   8   4 -15    1.37    0.79
   4  -8 -15   -2.73    4.84
   4  -8 -15    2.65    1.01
  -8  -4  15    0.20    0.98
  -8  -4  15    1.73    1.18
  -4   8  15    1.83    1.63
  -4   8  15    1.68    1.51
   8   3 -15   15.36    3.61
   3  -8 -15   15.03    3.83
   3  -8 -15    2.67    6.94
  -8  -3  15   14.77    3.71
  -3   8  15    9.74    4.07
  -3   8  15   13.18    4.09
  -8  -3  15   15.06    3.89
   2  -8 -15    2.22    1.12
   2  -8 -15  -10.10    6.60
   8   2 -15    0.94    0.84
  -2   8  15    2.33    1.57
  -8  -2  15    2.60    1.20
  -8  -2  15    3.04    0.97
   1  -8 -15    8.46    2.70
   8   1 -15    7.60    2.52
   1  -8 -15    0.28    6.65
  -1   8  15    7.60    3.12
  -8  -1  15   11.39    2.79
  -8  -1  15   11.20    2.60
   8   0 -15   -0.37    0.67
   0   8 -15   -4.50    3.47
   0  -8 -15   -2.12    5.44
  -8   0  15   -0.78    1.03
   0  -8  15   -0.49    1.41
  -8   0  15   -1.10    0.79
   0   8  15   -0.69    1.60
   1   8 -15    8.76    4.74
   8  -1 -15    9.09    2.76
  -1  -8 -15    0.72    5.81
  -8   1  15   10.39    2.83
  -8   1  15   10.41    3.01
  -1  -8  15   13.55    3.01
  -1  -8  15   10.58    3.17
   2   8 -15    4.50    3.86
   8  -2 -15    2.72    0.92
  -8   2  15    1.47    0.99
  -2  -8  15    0.89    1.59
  -2  -8  15    4.53    1.37
  -8   2  15    1.51    1.22
   3   8 -15   13.71    5.20
   8  -3 -15   12.49    3.58
  -8   3  15   12.23    3.89
  -3  -8  15    7.72    3.92
  -8   3  15   13.27    3.62
  -3  -8  15   14.84    3.62
   4   8 -15    3.73    3.47
   4   8 -15    0.65    0.90
  -4  -8  15    1.06    1.59
  -4  -8  15    0.94    1.00
  -8   4  15    1.20    1.09
   5   8 -15    0.07    3.88
   5   8 -15    6.09    1.75
  -5  -8  15    6.49    1.74
  -5  -8  15    4.24    2.22
   6   8 -15    1.98    0.92
   6   8 -15    0.15    3.71
  -6  -8  15    1.08    0.98
  -6  -8  15    3.60    1.66
   8   8 -15    0.66    0.89
  -8  -8  15   -0.07    1.31
  -8  -8  15    0.24    1.08
   9   8 -15    0.95    1.01
   9   8 -15   -2.59    4.22
  -9  -8  15   -0.69    1.26
  -9  -8  15    0.21    1.55
   9   7 -15    0.68    0.91
  -9  -7  15   -0.32    1.27
  -9  -7  15   -0.59    1.11
   9   6 -15    0.93    0.96
  -9  -6  15   -0.38    1.05
   5  -9 -15    1.70    1.22
   5  -9 -15    6.27    5.07
  -5   9  15    1.15    2.24
  -5   9  15    1.38    1.85
   4  -9 -15    7.07    2.32
   4  -9 -15   10.26    5.90
  -4   9  15    7.40    2.84
  -9  -4  15    4.84    2.38
  -4   9  15   10.97    2.79
   3  -9 -15    0.44    1.03
   9   3 -15   -0.25    0.83
   3  -9 -15    5.90    6.20
  -3   9  15    0.40    1.67
  -9  -3  15   -0.79    0.95
  -3   9  15   -0.12    1.59
  -9  -3  15    1.09    1.17
   9   2 -15   11.42    3.06
   2  -9 -15   10.90    3.24
   2  -9 -15   14.27    7.65
  -2   9  15    8.62    3.57
  -9  -2  15   12.03    3.27
  -9  -2  15   11.10    3.17
   9   1 -15    0.80    0.68
   1  -9 -15   -7.64    6.79
   1  -9 -15   -0.73    1.08
  -9  -1  15   -1.09    0.95
  -9  -1  15   -0.47    1.12
  -1   9  15   -1.27    1.60
   0   9 -15    2.99    3.51
   0  -9 -15    1.67    1.13
   0  -9 -15   -3.45    6.54
   9   0 -15    0.62    0.78
  -9   0  15    1.23    0.93
   0   9  15    0.16    1.75
   0  -9  15    0.42    1.71
  -9   0  15    1.33    1.06
   1   9 -15   -0.45    3.64
   9  -1 -15   -0.19    0.70
  -1  -9 -15   -1.74    5.88
  -9   1  15    0.65    1.07
  -1  -9  15   -0.78    1.28
  -1  -9  15   -0.25    1.66
   9  -2 -15   12.66    3.10
   2   9 -15   13.22    5.12
  -9   2  15   12.59    3.31
  -2  -9  15    5.42    3.48
  -2  -9  15    9.96    3.17
   3   9 -15   -0.08    3.86
  -3  -9  15   -1.21    1.11
  -9   3  15   -1.13    1.08
  -3  -9  15   -0.46    1.62
   4   9 -15    4.93    1.87
   4   9 -15    2.39    4.24
  -4  -9  15    2.67    2.58
  -9   4  15    9.93    2.21
   5   9 -15    1.51    1.02
   5   9 -15    2.88    3.94
  -5  -9  15    2.01    1.12
  -5  -9  15    0.83    1.75
   7   9 -15    2.12    0.99
  -7  -9  15    0.23    1.15
   8   9 -15   -1.00    4.71
   8   9 -15   -0.08    1.00
  -8  -9  15   -0.23    1.68
  -8  -9  15   -0.82    1.22
   9   9 -15    0.17    4.33
   9   9 -15   -1.01    1.09
  -9  -9  15    0.08    1.52
  -9  -9  15   -1.07    1.19
  10   9 -15    0.19    1.19
 -10  -9  15    0.30    1.58
 -10  -9  15    1.97    1.38
  10   8 -15    0.18    1.05
 -10  -8  15    0.08    1.23
 -10  -8  15   -0.21    1.56
  10   7 -15    0.42    0.97
 -10  -7  15    0.44    1.17
 -10  -7  15   -0.92    1.36
  10   6 -15    1.52    1.05
   6 -10 -15   -0.06    1.37
 -10  -6  15    0.06    1.37
 -10  -6  15   -0.07    1.14
   5 -10 -15    2.82    1.37
   5 -10 -15    1.02    5.71
 -10  -5  15    3.02    1.46
  -5  10  15    2.82    2.53
  -5  10  15    1.64    2.05
   4 -10 -15   -5.21    6.16
   4 -10 -15    0.82    1.13
  10   4 -15   -0.07    0.85
 -10  -4  15    0.07    1.01
  -4  10  15    0.55    1.85
  -4  10  15    0.44    2.14
   3 -10 -15    7.55    7.04
   3 -10 -15    5.68    1.88
  -3  10  15    2.73    2.43
  -3  10  15    6.74    2.43
   2 -10 -15    2.52    7.43
   2 -10 -15    0.06    1.11
 -10  -2  15    0.39    1.16
  -2  10  15   -0.07    1.75
   1 -10 -15    1.26    1.19
  10   1 -15    0.43    0.90
   1 -10 -15  -10.74    7.68
  -1  10  15   -0.65    1.87
 -10  -1  15    2.19    1.19
   0 -10 -15    1.89    1.23
   0 -10 -15    4.19    7.56
   0 -10  15    1.52    1.74
 -10   0  15    1.61    1.27
   0  10  15    1.42    1.94
   1  10 -15   -3.15    3.98
  -1 -10 -15   -4.62    6.86
   1  10  15    0.28    1.87
 -10   1  15    1.76    1.16
  -1 -10  15    1.04    1.67
  -1 -10  15    0.65    1.41
   2  10 -15    2.08    3.96
 -10   2  15    1.42    1.16
  -2 -10  15    0.46    1.25
  -2 -10  15    0.50    1.69
   3  10 -15   13.03    4.79
 -10   3  15    5.24    2.57
  -3 -10  15   10.04    2.57
  -3 -10  15   10.29    3.01
   4  10 -15    1.85    0.93
   4  10 -15   -2.37    4.00
  -4 -10  15    1.98    1.82
 -10   4  15    0.05    1.14
  -4 -10  15   -0.06    1.06
  -5 -10  15   -0.08    1.79
   6  10 -15   -0.07    0.91
   7  10 -15    0.23    1.06
   7  10 -15   -5.83    4.62
  -7 -10  15   -0.33    1.94
  -7 -10  15    0.06    1.05
   8  10 -15    2.41    4.74
   8  10 -15   -0.25    1.12
  -8 -10  15   -0.17    1.83
  -8 -10  15   -0.07    1.19
   9  10 -15   -1.28    4.67
   9  10 -15   -1.07    1.20
  -9 -10  15   -0.08    1.70
  -9 -10  15   -1.64    1.27
  10  10 -15    1.77    4.69
  10  10 -15    0.69    1.16
 -10 -10  15   -0.82    1.40
 -10 -10  15    0.57    1.66
 -11 -10  15   -0.08    1.63
  11   9 -15   -1.55    1.24
 -11  -9  15    0.08    1.56
  11   8 -15    1.57    1.17
 -11  -8  15   -0.07    1.55
  11   7 -15   -1.78    1.07
 -11  -7  15   -0.07    1.43
  -6  11  15    0.33    3.36
   5 -11 -15    0.25    1.37
  -5  11  15   -1.60    2.95
  -5  11  15   -0.18    2.09
   4 -11 -15    0.31    1.42
  -4  11  15    0.53    2.23
  -4  11  15   -2.52    2.62
   3 -11 -15    1.22    1.29
   3 -11 -15  -12.76    7.65
  -3  11  15    0.51    2.01
  -3  11  15    0.31    2.13
   2 -11 -15    1.62    1.24
   2 -11 -15   -2.27    8.24
  -2  11  15   -1.05    2.01
   1 -11 -15    1.07    8.42
   1 -11 -15    1.53    1.37
  -1  11  15    2.33    2.07
   1  11 -15    1.01    4.20
  -1 -11  15   -1.01    1.82
  -1 -11  15    2.54    1.43
   1  11  15   -0.10    2.15
   2  11 -15    0.10    4.27
  -2 -11  15    0.59    1.32
  -2 -11  15   -1.07    1.78
   3  11 -15   -3.66    4.25
  -3 -11  15   -1.93    1.93
   5  11 -15   -0.07    0.94
   6  11 -15    0.45    1.08
   6  11 -15   -4.71    4.56
  -6 -11  15   -0.76    1.05
  -6 -11  15    0.09    2.01
   7  11 -15    1.70    1.07
   7  11 -15    1.02    4.77
  -7 -11  15    0.09    2.01
  -7 -11  15   -0.06    1.20
   8  11 -15    3.61    4.85
   8  11 -15    0.61    1.21
  -8 -11  15    0.09    1.95
  -8 -11  15    0.07    1.21
   9  11 -15   -0.10    1.15
   9  11 -15   -3.18    5.22
  -9 -11  15    0.18    1.98
  -9 -11  15   -0.23    1.29
  10  11 -15   11.76    5.60
  10  11 -15    0.94    1.44
 -10 -11  15    2.56    1.64
 -10 -11  15    0.97    2.01
  11  11 -15    5.16    6.17
 -11 -11  15    2.17    2.06
   6 -12 -15   -1.29    7.19
  -6  12  15   -0.11    2.47
   0 -12 -15   12.83   10.11
   1  12 -15   -2.00    4.78
  -1 -12 -15  -23.54    9.61
  -1 -12  15    6.01    1.56
  -1 -12  15   -2.52    2.27
   2  12 -15    3.76    4.65
  -2 -12  15    1.14    2.02
   4  12 -15   -1.10    1.02
  -4 -12  15   -0.06    1.10
   5  12 -15   -5.45    4.85
   5  12 -15    0.38    1.01
  -5 -12  15    0.83    1.03
  -5 -12  15   -2.23    2.11
   6  12 -15   -0.16    1.15
   6  12 -15    1.34    4.82
  -6 -12  15    0.36    1.13
  -6 -12  15   -1.36    2.12
   7  12 -15   -0.09    1.26
   7  12 -15    7.60    5.19
  -7 -12  15    1.25    1.29
  -7 -12  15    0.10    2.09
   8  12 -15   -0.18    1.26
   8  12 -15   -8.75    5.39
  -8 -12  15    0.10    2.13
  -8 -12  15   -0.44    1.32
   9  12 -15    1.51    1.29
   9  12 -15   -1.34    5.45
  -9 -12  15   -1.94    2.28
  -9 -12  15    0.91    1.36
  10  12 -15    0.89    1.27
  10  12 -15    6.89    5.65
 -10 -12  15   -1.24    1.45
 -10 -12  15   -0.86    2.21
  11  12 -15    2.35    5.80
 -11 -12  15    0.19    2.02
   6 -13 -15    2.66    7.97
   6 -13 -15    1.65    1.68
  -6  13  15   -0.50    2.75
  -6  13  15    0.54    4.16
   5 -13 -15   -1.18    1.61
   5 -13 -15    7.28    7.49
  -5  13  15   -4.03    3.58
  -5  13  15   -0.94    2.67
   4 -13 -15    4.84    1.95
   4 -13 -15   -4.04    8.20
  -4  13  15    9.85    3.32
  -4  13  15    1.13    2.94
   3 -13 -15   -0.74    8.92
   3 -13 -15    2.26    1.58
  -3  13  15   -1.09    2.72
  -3  13  15   -3.10    2.83
   2 -13 -15    0.08    1.48
   2 -13 -15    6.93    9.95
  -2  13  15   -2.22    2.62
  -2  13  15    1.28    2.63
   1 -13 -15    0.08    1.49
   1 -13 -15   -4.24   10.49
  -1  13  15   -0.97    2.39
   0 -13 -15   -4.28   10.31
   0 -13 -15    0.58    1.58
   0  13  15    2.86    2.63
  -1 -13 -15   -2.33    1.57
  -1 -13 -15    4.83   10.07
   1  13  15    0.58    2.62
  -2 -13 -15    7.04    9.79
   3  13 -15    0.08    1.14
  -3 -13  15    0.68    1.23
   4  13 -15    1.50    4.73
   4  13 -15    1.87    1.06
  -4 -13  15   -1.22    2.23
  -4 -13  15    1.14    1.19
   5  13 -15   -0.16    1.15
   5  13 -15   -0.79    4.99
  -5 -13  15   -1.99    1.07
  -5 -13  15   -3.25    2.39
   6  13 -15   -3.53    5.12
   6  13 -15    0.76    1.18
  -6 -13  15    0.11    2.44
  -6 -13  15    1.77    1.24
   7  13 -15    0.28    1.37
   7  13 -15  -13.68    5.95
  -7 -13  15   -1.81    2.59
  -7 -13  15   -6.41    1.48
   8  13 -15   -0.29    1.29
   8  13 -15   -6.06    5.59
  -8 -13  15   -5.56    2.49
  -8 -13  15   -0.08    1.36
   9  13 -15   -0.98    5.58
   9  13 -15    0.95    1.43
  -9 -13  15   -1.38    2.30
  -9 -13  15    2.82    1.54
  10  13 -15    6.86    5.82
  10  13 -15    2.38    1.67
 -10 -13  15    0.21    2.37
  11  13 -15   -1.69    6.10
 -11 -13  15    0.83    2.32
   7 -14 -15   15.29    8.98
   6 -14 -15   -4.27    8.38
   6 -14 -15    0.70    1.90
  -6  14  15    2.87    4.52
  -6  14  15    0.56    3.08
   5 -14 -15    0.17    1.77
   5 -14 -15  -17.89    9.42
  -5  14  15   -2.97    3.97
  -5  14  15    1.19    3.08
   4 -14 -15    2.22    1.88
   4 -14 -15   -4.25   10.17
  -4  14  15   -0.63    3.13
  -4  14  15    6.28    3.72
   3 -14 -15    1.56    1.76
   3 -14 -15  -10.89    9.98
  -3  14  15    0.99    2.90
  -3  14  15    3.42    3.25
   2 -14 -15   -4.06    1.72
   2 -14 -15   -6.28   10.62
  -2  14  15   -1.77    2.96
  -2  14  15    0.44    3.10
   1 -14 -15    0.09    1.70
   1 -14 -15    3.64   11.25
  -1  14  15   -0.88    2.81
   0 -14 -15   -2.86    1.73
   0 -14 -15    9.37   11.55
   0  14  15   -0.47    2.80
  -1 -14 -15    0.14   10.95
  -1 -14 -15   -4.31    1.75
   1  14  15    2.50    2.92
  -2 -14 -15    5.09   10.96
   7  14 -15    0.48    1.32
   8  14 -15    0.21    1.34
   8  14 -15   -0.11    5.68
  -8 -14  15   -1.27    2.50
   9  14 -15    0.68    1.47
   9  14 -15   -0.23    6.02
  -9 -14  15    1.27    2.55
  -9 -14  15   -3.58    1.50
  10  14 -15    1.12    1.60
  10  14 -15   -0.58    6.13
 -10 -14  15    0.46    2.61
  11  14 -15   -2.85    6.37
 -11 -14  15    4.15    2.62
   7 -15 -15   -0.10    1.99
   7 -15 -15   -3.84    9.24
   6 -15 -15   -4.01    9.42
   6 -15 -15   -1.06    1.93
  -6  15  15    1.66    4.95
  -6  15  15    0.47    3.46
   5 -15 -15    6.81    9.98
   5 -15 -15   -0.10    2.00
  -5  15  15    0.44    3.46
  -5  15  15    2.12    4.27
   4 -15 -15    6.79    9.89
   4 -15 -15    7.89    2.27
  -4  15  15   -1.53    4.22
  -4  15  15    0.43    3.51
   3 -15 -15    1.93   10.83
   3 -15 -15   -1.83    1.94
  -3  15  15   -1.53    3.31
  -3  15  15    6.97    3.54
   2 -15 -15   -1.35    1.94
   2 -15 -15   18.85   11.49
  -2  15  15    2.94    3.23
  -2  15  15    7.61    3.38
   1 -15 -15  -14.28   12.55
   1 -15 -15    0.20    1.87
  -1  15  15    1.05    3.29
  -1  15  15   -0.62    3.16
   0 -15 -15    2.56   12.68
   0 -15 -15    2.04    2.02
   0  15  15    3.97    3.21
  -1 -15 -15  -11.44   12.69
  -1 -15 -15   -4.95    1.91
   1  15  15   -0.28    3.11
  -2 -15 -15   20.06   13.20
   7 -16 -15  -17.46    9.97
   7 -16 -15    0.11    2.19
  -7  16  15    0.20    6.03
  -7  16  15    2.01    3.85
  -6  16  15  -17.24    6.14
  -6  16  15   -5.58    4.41
  -5  16  15   -4.98    4.18
  -5  16  15   -6.11    5.12
   4 -16 -15   -1.09   11.01
   4 -16 -15    1.28    2.10
  -4  16  15    0.16    3.59
  -4  16  15   -0.62    4.34
   3 -16 -15    1.83   11.48
   3 -16 -15   -0.64    2.02
  -3  16  15   -3.08    4.15
  -3  16  15    1.09    3.72
   2 -16 -15   -3.21    2.15
   2 -16 -15   -7.80   12.87
  -2  16  15    2.27    3.69
  -2  16  15   -0.60    3.48
   1 -16 -15    2.12    2.33
   1 -16 -15   -1.58   13.51
  -1  16  15    8.19    3.70
  -1  16  15    3.60    3.82
   0 -16 -15    0.57    2.06
   0 -16 -15   -2.33   13.55
   0  16  15    5.38    3.65
  -1 -16 -15    6.32   13.57
  -1 -16 -15    1.05    2.02
   1  16  15    2.01    3.56
  -2 -16 -15    0.84   13.60
   2  16  15   -0.32    3.49
   7 -17 -15    5.95   10.92
   7 -17 -15   -2.23    2.31
  -7  17  15   -1.22    4.24
  -7  17  15    0.42    6.21
   6 -17 -15   -0.12    2.47
   6 -17 -15    9.01   12.10
  -6  17  15    7.94    5.84
  -6  17  15    2.34    4.29
   5 -17 -15    3.15    2.46
   5 -17 -15   -1.11   12.59
  -5  17  15   -1.13    4.16
  -5  17  15   -0.74    5.35
   4 -17 -15    1.41    2.49
   4 -17 -15    0.91   11.85
  -4  17  15    7.85    5.13
  -4  17  15    6.07    4.32
   3 -17 -15    0.12    2.27
  -3  17  15   -5.98    4.55
  -3  17  15   -1.91    4.08
  -2  17  15  -12.48    4.67
   7 -18 -15   -3.50    2.69
  -7  18  15  -11.55    6.85
  -7  18  15    3.62    4.77
   6 -18 -15    5.66    2.77
   6 -18 -15   11.76   13.06
  -6  18  15   -0.88    4.86
  -6  18  15   -2.63    6.42
   5 -18 -15    4.95    2.87
   5 -18 -15    5.48   13.62
  -5  18  15   -5.67    4.97
  -5  18  15   10.54    6.05
   4 -18 -15   -4.72   13.17
   4 -18 -15   -1.98    2.57
  -4  18  15    0.40    4.44
  -4  18  15  -11.34    5.57
   3 -18 -15  -18.78   13.99
   3 -18 -15   -3.44    2.58
  -3  18  15    6.38    4.55
  -3  18  15    7.31    5.15
   2 -18 -15   -1.08    2.52
   2 -18 -15    3.40   15.11
  -2  18  15   -4.10    4.95
  -2  18  15    1.32    4.58
   1 -18 -15    1.23    2.57
   1 -18 -15  -13.60   15.40
  -1  18  15    0.18    4.28
  -1  18  15    4.71    4.89
   0 -18 -15    5.24   15.97
   0 -18 -15   -0.14    2.63
   0  18  15    5.04    4.42
   0  18  15    4.61    4.75
  -1 -18 -15    0.15    2.47
  -1 -18 -15   11.64   17.02
   1  18  15    0.39    4.54
  -2 -18 -15   17.35   16.77
   2  18  15    0.80    4.56
   1   0 -16   -0.42    2.63
  -1   0  16    0.07    1.17
  -1   0  16   -0.54    0.99
   1   1 -16   15.18    6.91
   1  -1 -16   25.98    6.90
  -1  -1  16   24.16    6.03
  -1   1  16   17.17    5.85
  -1  -1  16   22.22    5.81
   2   1 -16    1.15    2.57
  -2  -1  16    1.58    1.14
  -2  -1  16    1.33    0.97
  -1   2  16   -0.11    0.92
   2   0 -16   -1.13    2.69
  -2   0  16    2.45    0.97
  -2   0  16    1.02    1.24
   2  -1 -16    0.87    2.53
   1   2 -16    1.24    2.84
  -1  -2  16    1.96    1.13
  -2   1  16    0.65    0.83
  -2   1  16   -0.06    1.17
  -1  -2  16    0.68    1.19
   2   2 -16    4.04    2.84
   2  -2 -16    2.32    2.58
  -2   2  16    2.64    1.08
  -2  -2  16    3.41    1.41
  -2   2  16    1.97    1.40
  -2  -2  16    2.14    1.16
   3   2 -16   13.23    5.26
   2  -3 -16   17.67    5.40
  -2   3  16   16.70    4.38
  -2   3  16   15.98    4.64
  -3  -2  16   18.48    4.54
  -3  -2  16   13.40    4.32
   3   1 -16   -2.43    2.44
  -1   3  16    0.42    0.92
  -3  -1  16    0.58    0.86
  -3  -1  16    0.06    1.07
   3   0 -16   -1.88    2.33
  -3   0  16   -0.34    0.79
  -3   0  16   -0.50    1.13
   3  -1 -16    4.02    2.37
   1   3 -16    1.42    2.91
  -3   1  16    0.20    0.78
  -1  -3  16    1.45    1.36
  -1  -3  16    1.84    1.16
  -3   1  16    1.31    1.14
   3  -2 -16   14.55    4.79
   2   3 -16   12.93    5.06
  -3   2  16    9.88    4.09
  -2  -3  16   18.61    3.82
  -2  -3  16    5.97    4.01
  -3   2  16   16.00    3.79
   3   3 -16    9.42    2.83
   3  -3 -16    4.49    2.48
  -3  -3  16    1.32    1.31
  -3   3  16    2.25    1.30
  -3   3  16    0.92    0.85
  -3  -3  16    1.88    1.06
   4   3 -16    0.47    2.68
   3  -4 -16    0.79    2.41
  -3   4  16   -0.05    1.18
  -3   4  16    0.52    0.61
  -4  -3  16   -1.65    1.17
  -4  -3  16    0.68    0.84
   2  -4 -16    0.04    3.49
   2  -4 -16   -1.33    2.42
   4   2 -16    4.77    2.58
  -2   4  16    0.22    0.76
  -2   4  16    0.30    1.16
  -4  -2  16    0.73    0.74
  -4  -2  16    0.87    1.12
   1  -4 -16    8.08    4.31
   4   1 -16    6.67    3.63
  -4  -1  16   10.37    2.75
  -4  -1  16    9.28    2.53
  -1   4  16    8.90    2.69
   4   0 -16    2.18    2.39
   0   4 -16    2.42    2.81
  -4   0  16    1.92    1.18
  -4   0  16    1.18    0.80
   1   4 -16    3.78    3.87
   4  -1 -16    9.49    3.38
  -4   1  16    8.41    2.30
  -4   1  16    9.95    2.55
  -1  -4  16    5.58    2.62
   4  -2 -16    0.51    2.24
   2   4 -16    0.07    2.97
  -2  -4  16    0.92    1.26
  -4   2  16    0.55    0.64
  -4   2  16    0.70    1.14
   4  -3 -16    5.82    2.20
   4  -3 -16   -0.03    0.46
   3   4 -16   -1.38    2.78
  -4   3  16    0.30    1.10
  -4   3  16   -0.23    0.54
  -3  -4  16   -0.25    1.25
   4   4 -16    3.66    2.73
   4  -4 -16    0.99    0.49
   4  -4 -16   -0.31    2.22
  -4   4  16    0.95    0.62
  -4   4  16    0.79    1.17
  -4  -4  16    1.25    1.21
   5   4 -16    8.45    2.97
   5   4 -16    2.09    0.90
  -4   5  16    2.86    1.24
  -5  -4  16    1.74    0.95
  -4   5  16    1.34    0.74
  -5  -4  16    2.51    1.37
   3  -5 -16    3.03    3.88
   5   3 -16    0.57    0.64
   5   3 -16    5.80    2.80
   3  -5 -16    1.30    0.75
  -3   5  16    0.05    1.20
  -5  -3  16    1.11    1.19
  -5  -3  16    0.89    0.82
  -3   5  16   -0.32    0.57
   5   2 -16   14.28    4.58
   2  -5 -16   12.53    5.71
   5   2 -16   12.70    3.31
  -2   5  16    5.80    4.01
  -5  -2  16   10.14    3.40
  -2   5  16   15.62    3.51
  -5  -2  16   14.20    3.66
   1  -5 -16    2.94    3.81
   5   1 -16    0.46    0.56
   5   1 -16    1.37    2.56
  -5  -1  16   -0.47    1.07
  -5  -1  16    0.27    0.69
  -1   5  16   -0.76    0.91
   0   5 -16   -0.78    2.96
   5   0 -16   -2.41    2.46
   0  -5 -16   -2.27    3.10
   5   0 -16   -0.16    0.52
  -5   0  16    0.35    1.08
  -5   0  16    0.14    0.62
   0  -5  16    1.90    1.37
   1   5 -16    4.16    3.14
   5  -1 -16   -0.69    0.49
   5  -1 -16    1.87    2.30
  -5   1  16   -0.27    0.59
  -1  -5  16    0.66    1.41
  -1  -5  16    0.21    1.23
  -5   1  16   -0.20    1.06
   5  -2 -16   20.78    4.59
   2   5 -16   14.24    5.04
  -2  -5  16    6.48    3.67
  -5   2  16   13.57    3.58
  -2  -5  16   11.18    3.88
  -5   2  16   14.91    3.87
   5  -3 -16    0.35    0.50
   5  -3 -16    1.67    2.19
   3   5 -16   -0.20    2.94
  -3  -5  16    0.59    1.36
  -5   3  16    0.09    0.54
  -5   3  16   -0.24    1.06
  -3  -5  16    2.12    0.99
   4   5 -16   -2.71    2.99
   5  -4 -16    2.35    2.22
   5  -4 -16    2.31    0.65
  -5   4  16    1.30    1.17
  -5   4  16    1.62    0.70
  -4  -5  16    0.15    0.99
  -4  -5  16    1.88    1.32
   5   5 -16    1.24    3.13
  -5  -5  16    1.17    1.40
  -5  -5  16    2.16    0.99
   6   4 -16   -2.26    3.04
   6   4 -16    1.51    0.75
  -6  -4  16   -0.23    1.32
  -6  -4  16    1.15    0.85
   6   3 -16    5.97    1.61
   3  -6 -16    5.32    1.72
   3  -6 -16    0.19    4.82
   6   3 -16    7.40    3.42
  -3   6  16    4.86    1.94
  -6  -3  16    5.05    1.97
  -6  -3  16    6.36    1.67
   2  -6 -16   -0.20    4.86
   6   2 -16    2.62    0.87
   6   2 -16    2.21    2.74
   2  -6 -16    3.23    1.05
  -6  -2  16    1.76    0.94
  -6  -2  16    4.55    1.39
  -2   6  16    1.04    1.45
   6   1 -16    6.53    1.74
   6   1 -16    3.84    3.25
   1  -6 -16   12.59    4.92
  -6  -1  16    6.38    2.07
  -6  -1  16    5.29    1.80
   6   0 -16    2.74    2.79
   0   6 -16    3.93    3.33
   0  -6 -16    5.28    4.05
   6   0 -16    3.64    1.10
  -6   0  16    4.66    1.51
  -6   0  16    2.33    1.18
   0  -6  16    5.89    1.81
   6  -1 -16    8.58    3.02
   6  -1 -16    4.41    1.58
   1   6 -16    1.33    3.73
  -6   1  16    5.31    1.62
  -1  -6  16    9.18    2.03
  -1  -6  16    7.42    2.16
  -6   1  16    3.27    1.92
   6  -2 -16    1.75    0.74
   2   6 -16    4.10    3.37
   6  -2 -16   -1.88    2.46
  -6   2  16    2.47    0.77
  -2  -6  16    1.62    1.34
  -2  -6  16    0.28    1.50
  -6   2  16    1.55    1.22
   6  -3 -16    4.60    2.82
   6  -3 -16    5.47    1.56
   3   6 -16    6.05    3.57
  -6   3  16    5.10    1.91
  -3  -6  16    4.39    2.06
  -6   3  16    4.41    1.59
  -3  -6  16    7.70    1.80
   4   6 -16   -1.56    3.21
   6  -4 -16   -0.76    2.26
   6  -4 -16    0.68    0.56
  -6   4  16    1.20    0.57
  -6   4  16   -0.05    1.06
  -4  -6  16    0.10    0.91
  -4  -6  16   -0.13    1.50
   5   6 -16    0.21    4.32
   5   6 -16    2.46    1.07
  -5  -6  16    1.49    1.32
  -5  -6  16    0.85    1.79
   6   6 -16   -1.47    3.60
   6   6 -16    0.58    0.95
  -6  -6  16    3.45    1.52
  -6  -6  16    3.58    1.10
   7   6 -16    3.58    1.15
   7   6 -16    0.07    3.68
  -7  -6  16    0.07    1.62
  -7  -6  16    4.65    1.22
   7   5 -16    4.84    3.57
  -7  -5  16    0.06    1.41
   4  -7 -16    3.82    1.50
   7   4 -16    3.57    3.60
   7   4 -16    3.28    1.39
  -7  -4  16    6.45    1.79
  -7  -4  16    4.86    1.48
   3  -7 -16    4.51    1.90
   7   3 -16    9.58    1.79
   3  -7 -16    0.66    5.57
  -3   7  16    8.74    2.22
  -7  -3  16    5.18    2.14
  -7  -3  16    3.39    1.82
   7   2 -16    5.53    3.58
   2  -7 -16    5.71    2.07
   7   2 -16    6.24    1.88
   2  -7 -16    0.06    5.70
  -2   7  16    4.64    2.40
  -7  -2  16    9.46    2.20
  -7  -2  16    8.22    1.95
   7   1 -16    3.06    1.18
   7   1 -16    5.56    2.97
   1  -7 -16   -0.06    5.35
  -1   7  16    1.56    1.83
  -7  -1  16    5.11    1.23
  -7  -1  16    2.87    1.53
   0  -7 -16    1.71    4.56
   7   0 -16   -3.12    2.59
   7   0 -16   -0.20    0.63
   0   7 -16   -1.40    3.18
  -7   0  16    0.05    1.08
   0  -7  16    2.13    1.46
  -7   0  16   -0.16    0.66
   7  -1 -16    5.31    1.53
   7  -1 -16   10.60    3.03
   1   7 -16   -0.09    3.86
  -7   1  16    4.66    1.58
  -1  -7  16    7.26    2.00
  -1  -7  16    4.11    2.09
  -7   1  16    5.16    1.83
   7  -2 -16    8.35    3.32
   2   7 -16    6.44    4.15
   7  -2 -16    7.90    1.94
  -7   2  16    6.62    1.97
  -7   2  16    5.93    2.27
  -2  -7  16    5.54    2.15
  -2  -7  16    6.06    2.45
   3   7 -16    6.04    4.21
   7  -3 -16    8.40    1.98
   7  -3 -16   14.53    3.37
  -7   3  16    7.16    2.02
  -7   3  16    4.01    2.30
  -3  -7  16    3.12    2.43
  -3  -7  16    6.25    2.18
   4   7 -16   -2.53    3.77
   7  -4 -16    2.75    2.82
   7  -4 -16    5.49    1.55
  -7   4  16    5.98    1.93
  -4  -7  16    4.46    2.10
  -7   4  16    4.65    1.58
  -4  -7  16    8.69    1.74
   5   7 -16   -0.95    3.69
   5   7 -16    0.65    0.86
  -5  -7  16    2.40    1.12
  -5  -7  16    2.51    1.59
   6   7 -16   -1.57    3.68
   6   7 -16   -0.92    0.75
  -6  -7  16    0.07    1.59
  -6  -7  16    2.21    0.92
   8   7 -16   -0.42    0.88
  -8  -7  16   -1.06    1.08
  -8  -7  16   -0.07    1.30
   8   5 -16   -1.70    3.52
  -8  -5  16   -0.06    1.34
   4  -8 -16    3.66    1.60
   4  -8 -16    5.40    5.26
   8   4 -16    2.89    3.58
   8   4 -16    2.82    1.49
  -8  -4  16    7.36    1.59
  -8  -4  16    7.09    1.85
   3  -8 -16    1.55    1.02
   8   3 -16    2.28    0.92
   3  -8 -16   -3.99    5.76
   8   3 -16    0.26    3.20
  -8  -3  16    1.50    1.25
  -8  -3  16    1.58    0.99
  -3   8  16    1.24    1.49
   2  -8 -16    7.30    2.84
   8   2 -16   12.13    2.71
   2  -8 -16    7.55    6.64
  -8  -2  16    9.35    2.93
  -8  -2  16   12.17    2.74
  -2   8  16    7.06    3.15
   1  -8 -16   -7.98    6.16
   1  -8 -16   -1.04    1.00
   8   1 -16    0.22    0.69
  -1   8  16    0.14    1.56
  -8  -1  16   -0.66    0.82
  -8  -1  16    0.16    1.10
   0  -8 -16   -2.75    5.59
   8   0 -16    2.07    0.81
  -8   0  16    1.70    1.18
   0  -8  16    0.78    1.57
  -8   0  16    1.42    0.88
   8  -1 -16    0.38    0.71
  -1  -8 -16   -4.04    5.00
   1   8 -16    2.64    3.81
  -8   1  16   -0.32    0.82
  -1  -8  16    0.60    1.35
  -8   1  16    2.24    1.11
  -1  -8  16   -0.41    1.59
   8  -2 -16    6.93    2.26
   2   8 -16    2.32    4.54
  -2  -8  16    6.31    2.77
  -2  -8  16   10.39    2.51
  -8   2  16    9.35    2.58
  -8   2  16    7.66    2.33
   3   8 -16   -1.03    3.72
   8  -3 -16    1.75    0.88
  -3  -8  16    2.49    1.26
  -8   3  16    1.79    0.93
  -3  -8  16   -0.54    1.69
  -8   3  16    3.00    1.19
   4   8 -16   -1.24    3.81
   8  -4 -16    1.72    1.14
  -4  -8  16    2.97    1.35
  -4  -8  16    4.17    1.94
  -8   4  16    5.73    1.53
   5   8 -16   -0.13    0.81
   5   8 -16   -0.70    3.80
  -5  -8  16    0.15    1.69
  -5  -8  16   -0.71    1.01
   7   8 -16    0.50    1.04
  -7  -8  16    1.73    1.08
   8   8 -16   -7.84    4.53
   8   8 -16   -0.54    1.09
  -8  -8  16   -1.79    1.64
  -8  -8  16    0.25    1.10
   9   8 -16    0.17    4.43
   9   8 -16    2.51    1.09
  -9  -8  16    0.84    1.23
  -9  -8  16    0.07    1.61
   9   7 -16   -1.94    4.18
   9   7 -16    0.38    1.01
  -9  -7  16   -1.67    1.56
  -9  -7  16    0.81    1.14
   9   6 -16   -0.46    3.77
   9   6 -16    1.38    0.95
  -9  -6  16    0.06    1.38
  -9  -6  16    0.45    1.06
   4  -9 -16    7.86    5.55
   4  -9 -16    0.82    1.05
  -4   9  16   -0.48    1.72
  -4   9  16    0.07    1.72
   3  -9 -16    9.33    3.10
   3  -9 -16   25.87    7.24
  -3   9  16    7.97    3.48
  -3   9  16    9.84    3.43
  -9  -3  16   11.89    3.21
   9   2 -16    1.02    0.86
   2  -9 -16    1.40    1.07
   2  -9 -16   -0.23    6.72
  -9  -2  16    1.40    1.18
  -9  -2  16    0.51    1.03
  -2   9  16   -0.06    1.57
   9   1 -16    0.69    0.77
   1  -9 -16   -2.93    6.97
   1  -9 -16    0.52    1.15
  -9  -1  16    4.56    1.29
  -9  -1  16    1.75    1.02
  -1   9  16    0.72    1.73
   9   0 -16    0.50    0.80
   0  -9 -16   -5.30    6.50
  -9   0  16   -0.22    1.14
   0   9  16   -0.34    1.70
  -9   0  16   -0.99    0.96
   0  -9  16   -0.45    1.62
   9  -1 -16    1.58    0.91
   1   9 -16    3.74    3.95
  -1  -9 -16    7.30    5.91
  -9   1  16    2.18    1.25
  -1  -9  16    0.61    1.56
  -1  -9  16    2.36    1.74
  -9   1  16    1.08    1.00
   2   9 -16    0.73    4.11
   9  -2 -16   -0.19    0.83
  -2  -9  16    3.35    1.34
  -9   2  16    1.74    1.19
  -2  -9  16    1.42    1.74
   3   9 -16    5.18    4.80
  -9   3  16    8.95    3.01
  -3  -9  16    5.72    3.22
  -3  -9  16   13.43    2.83
   4   9 -16    2.46    1.03
   4   9 -16   -0.33    3.92
  -4  -9  16   -0.16    1.82
  -9   4  16    0.88    1.34
  -4  -9  16    3.28    1.16
   6   9 -16   -0.07    0.98
  -6  -9  16   -0.06    1.03
   7   9 -16    2.60    4.74
   7   9 -16    0.45    1.04
  -7  -9  16    0.08    1.86
  -7  -9  16    0.44    1.21
   8   9 -16    0.98    1.28
   8   9 -16   -4.55    4.66
  -8  -9  16    4.85    1.33
  -8  -9  16    0.89    1.91
   9   9 -16   -2.64    4.51
   9   9 -16    0.26    1.10
  -9  -9  16   -0.08    1.81
  -9  -9  16    2.42    1.36
  10   9 -16    0.85    1.22
  10   9 -16   -1.31    4.64
 -10  -9  16    0.90    1.46
 -10  -9  16   -2.32    1.76
  10   8 -16    0.27    1.14
  10   8 -16   -3.01    4.41
 -10  -8  16   -1.34    1.35
 -10  -8  16    0.44    1.62
  10   7 -16    0.34    1.03
 -10  -7  16   -0.07    1.40
 -10  -7  16   -0.23    1.30
  10   6 -16   -0.08    1.07
 -10  -6  16   -0.07    1.42
 -10  -6  16   -1.38    1.25
  10   5 -16    1.01    0.93
   5 -10 -16    0.61    1.28
 -10  -5  16   -0.58    1.34
  10   4 -16    0.07    1.16
   4 -10 -16   12.47    6.31
   4 -10 -16    4.73    1.33
 -10  -4  16    1.67    1.51
  -4  10  16    3.13    2.09
  -4  10  16    3.33    2.11
 -10  -4  16    1.21    1.30
   3 -10 -16   -7.04    7.26
   3 -10 -16    0.49    1.08
  10   3 -16   -0.07    0.89
  -3  10  16   -0.08    1.90
  -3  10  16    0.20    1.81
 -10  -3  16   -0.59    1.04
   2 -10 -16   -4.87    7.69
   2 -10 -16    1.86    1.16
  -2  10  16    2.47    1.85
   1 -10 -16   10.61    7.90
   1 -10 -16    0.50    1.17
  -1  10  16    0.16    1.93
 -10  -1  16    1.73    1.19
   0 -10 -16    0.28    1.23
  10   0 -16   -0.58    0.86
   0 -10 -16    6.18    7.53
   0  10  16   -1.86    1.94
   0 -10  16    2.43    1.64
 -10   0  16   -2.43    1.26
   1  10 -16   -5.14    4.08
  -1 -10 -16    5.59    7.00
  -1 -10  16   -1.93    1.79
  -1 -10  16    0.77    1.39
 -10   1  16    0.06    1.23
   2  10 -16   -0.39    4.20
  -2 -10  16   -0.28    1.39
  -2 -10  16    1.60    1.81
 -10   2  16    2.53    1.25
   3  10 -16   -1.28    4.28
  -3 -10  16    0.44    1.85
 -10   3  16   -0.27    1.18
 -10   4  16    2.64    1.46
   5  10 -16   -0.07    1.00
   6  10 -16   -2.27    1.15
  -6 -10  16   -1.37    1.11
   7  10 -16   -2.03    4.69
   7  10 -16    1.66    1.10
  -7 -10  16   -2.91    1.94
  -7 -10  16   -0.65    1.26
   8  10 -16   -0.85    4.82
   8  10 -16    1.29    1.14
  -8 -10  16    1.18    1.24
   9  10 -16    0.39    4.94
   9  10 -16    0.55    1.29
  -9 -10  16   -0.53    1.88
  -9 -10  16   -0.08    1.30
  10  10 -16    1.58    5.12
  10  10 -16   -0.60    1.36
 -10 -10  16   -0.51    1.51
 -10 -10  16   -2.85    1.87
  11  10 -16   -9.12    5.18
  11  10 -16   -1.01    1.38
 -11 -10  16   -3.52    1.87
  11   9 -16    0.53    1.32
 -11  -9  16    0.08    1.69
  11   8 -16    1.82    1.23
 -11  -8  16   -0.68    1.65
  11   7 -16    0.38    1.09
 -11  -7  16   -0.07    1.43
 -11  -6  16   -0.07    1.45
   5 -11 -16    0.69    1.41
 -11  -5  16    0.20    1.41
  11   4 -16    0.17    0.96
   4 -11 -16   -0.06    1.39
 -11  -4  16   -0.52    1.42
  -4  11  16    1.26    2.14
  -4  11  16   -0.40    2.38
   3 -11 -16    1.66    1.41
  11   3 -16    0.17    1.05
 -11  -3  16   -0.06    1.34
  -3  11  16    1.73    2.31
  -3  11  16    3.39    2.29
   2 -11 -16   25.73    8.50
   2 -11 -16   -0.71    1.34
 -11  -2  16    0.06    1.25
  -2  11  16   -0.61    2.08
   0 -11 -16   -1.33    1.40
   0 -11  16    3.88    1.70
   0  11  16   -0.47    2.11
   1  11 -16   -2.22    4.48
  -1 -11  16    0.78    1.99
   2  11 -16   -1.32    4.56
  -2 -11  16    0.38    1.84
   4  11 -16    0.37    1.02
  -4 -11  16    2.38    1.28
   5  11 -16   -3.29    4.77
   5  11 -16    0.92    1.07
  -5 -11  16   -0.09    2.11
  -5 -11  16    0.91    1.13
   6  11 -16    1.92    1.18
   6  11 -16   -0.48    4.86
  -6 -11  16    0.76    2.13
  -6 -11  16    1.88    1.27
   7  11 -16    1.08    5.04
   7  11 -16   -0.17    1.05
  -7 -11  16    2.76    1.21
  -7 -11  16   -0.10    2.00
   8  11 -16    1.09    1.28
   8  11 -16   -0.50    5.33
  -8 -11  16    1.24    2.17
  -8 -11  16    3.25    1.37
   9  11 -16    5.56    5.43
   9  11 -16    0.29    1.32
  -9 -11  16   -0.33    1.52
  -9 -11  16   -4.83    2.10
  10  11 -16    1.62    1.40
  10  11 -16    0.10    5.42
 -10 -11  16   -0.19    2.19
 -10 -11  16   -0.09    1.51
  11  11 -16   -3.00    5.66
  11  11 -16    1.19    1.41
 -11 -11  16    0.75    1.99
   5 -12 -16    6.52    7.15
  -5  12  16    4.29    2.70
   2 -12 -16   17.76   11.75
   1 -12 -16   -0.77    9.64
   0 -12 -16   13.64    4.11
   0 -12 -16   -3.01   10.40
   0  12  16   18.70    4.69
  -1 -12 -16  -15.41    9.29
   1  12  16    5.05    2.50
  -3 -12  16    2.26    1.48
   4  12 -16   -0.47    1.02
   4  12 -16    8.51    4.86
  -4 -12  16   -0.77    1.25
  -4 -12  16    1.81    2.17
   5  12 -16   -0.49    4.98
   5  12 -16    0.63    1.15
  -5 -12  16    0.21    2.24
  -5 -12  16    2.13    1.27
   6  12 -16   -1.32    5.13
   6  12 -16   -0.25    1.13
  -6 -12  16    1.14    2.33
  -6 -12  16   -0.06    1.18
   7  12 -16   -5.86    5.28
   7  12 -16   -0.36    1.24
  -7 -12  16    3.56    1.35
  -7 -12  16   -0.10    2.28
   8  12 -16   -0.67    1.35
   8  12 -16  -16.18    5.86
  -8 -12  16    1.88    2.37
  -8 -12  16   -3.38    1.30
   9  12 -16    0.31    1.40
   9  12 -16   -0.44    5.77
  -9 -12  16    0.10    2.17
  -9 -12  16   -4.30    1.58
  10  12 -16    0.46    1.44
  10  12 -16    5.44    5.75
 -10 -12  16   -0.28    1.58
 -10 -12  16    0.10    2.21
  11  12 -16    0.38    1.50
  11  12 -16    0.79    5.73
 -11 -12  16   -0.41    2.23
   5 -13 -16    2.81    1.62
   5 -13 -16   -7.89    7.84
  -5  13  16    4.40    3.52
  -5  13  16    0.35    2.72
   4 -13 -16   -8.58    8.55
   4 -13 -16    1.09    1.54
  -4  13  16    0.57    2.68
  -4  13  16    0.52    2.93
   3 -13 -16  -19.58    9.15
   3 -13 -16   -1.85    1.55
  -3  13  16    0.11    2.71
  -3  13  16   -0.10    2.68
   2 -13 -16   12.17   10.46
   2 -13 -16    0.08    1.62
  -2  13  16    0.87    2.70
  -2  13  16   -2.65    2.71
   1 -13 -16    9.52   10.43
   1 -13 -16    0.49    1.55
  -1  13  16   -3.77    2.55
   0 -13 -16    0.09    1.89
   0 -13 -16   17.87   10.79
   0 -13  16   11.94    2.11
   0  13  16   -2.33    2.81
  -1 -13 -16    5.45    9.94
  -1 -13  16    3.28    1.52
   1  13  16   -3.19    2.58
   2  13 -16   24.87    5.27
  -2 -13 -16   -3.82    9.98
  -2 -13  16    8.64    2.84
  -2 -13  16    3.63    2.35
   3  13 -16   -4.75    5.11
   3  13 -16    2.01    1.22
  -3 -13  16   -1.17    2.25
  -3 -13  16    3.67    1.35
   4  13 -16    1.45    1.13
   4  13 -16    0.32    5.00
  -4 -13  16   -1.07    2.24
  -4 -13  16   -0.98    1.25
   5  13 -16   -4.07    5.26
   5  13 -16    0.58    1.17
  -5 -13  16    0.46    1.24
  -5 -13  16   -1.77    2.44
  -6 -13  16   23.14    7.06
  -6 -13  16   38.23    7.85
   7  13 -16   -0.48    1.31
   7  13 -16    1.54    5.85
  -7 -13  16    2.59    1.34
  -7 -13  16   -1.02    2.56
   8  13 -16    1.02    5.96
   8  13 -16    1.31    1.37
  -8 -13  16    1.21    1.44
  -8 -13  16    0.23    2.49
   9  13 -16   -0.44    1.39
   9  13 -16   -2.65    6.00
  -9 -13  16   -0.68    2.51
  -9 -13  16    1.22    1.56
  10  13 -16    0.12    1.46
  10  13 -16  -13.71    6.37
 -10 -13  16   -2.57    1.73
 -10 -13  16    0.11    2.51
  11  13 -16  -10.27    6.30
 -11 -13  16   -0.88    2.44
   6 -14 -16    7.30    8.86
   5 -14 -16    0.09    1.73
   5 -14 -16    1.51    8.48
  -5  14  16   -0.26    3.73
  -5  14  16   -0.40    3.15
   4 -14 -16    0.43    1.74
  -4  14  16   -1.03    3.12
  -4  14  16   -4.17    3.46
   2 -14 -16   -7.59    2.01
  -2  14  16   -1.08    3.05
  -2  14  16   -4.02    3.05
   1 -14 -16   -4.63    1.79
  -1  14  16   -4.01    3.00
   0 -14 -16   -3.40   11.33
   0 -14 -16   -3.12    1.81
   0  14  16   -3.20    2.91
  -1 -14 -16   -7.66   11.48
   1  14  16   -0.13    2.87
  -2 -14 -16  -10.99   11.08
   5  14 -16    2.93    1.46
   6  14 -16    0.56    5.73
   6  14 -16    1.57    1.30
   7  14 -16    3.92    5.83
   7  14 -16    1.40    1.33
  -7 -14  16    1.47    2.77
  -7 -14  16    0.53    1.45
   8  14 -16   -4.52    6.29
   8  14 -16   -2.35    1.38
  -8 -14  16    0.17    1.45
  -8 -14  16    0.12    2.65
   9  14 -16    2.99    2.43
   9  14 -16   18.01    7.09
  -9 -14  16    7.33    3.57
  10  14 -16   -8.86    6.41
  10  14 -16    1.29    1.56
 -10 -14  16    4.56    2.75
  11  14 -16    2.89    6.59
 -11 -14  16    1.56    2.68
   6 -15 -16    0.49    1.97
   6 -15 -16    3.39    9.40
   5 -15 -16   -0.10    1.92
   5 -15 -16    8.59    9.79
  -5  15  16    2.40    3.34
  -5  15  16   -2.48    4.25
   4 -15 -16    1.82    1.91
   4 -15 -16   -9.93   10.44
  -4  15  16    2.30    3.71
  -4  15  16   -0.29    3.37
   3 -15 -16   17.42   11.18
   3 -15 -16    0.68    1.90
  -3  15  16    0.99    3.39
  -3  15  16   -2.18    3.44
   2 -15 -16   -2.28    1.89
   2 -15 -16   -3.79   12.28
  -2  15  16    1.35    3.38
  -2  15  16    7.74    3.46
   1 -15 -16    4.11   12.40
   1 -15 -16   -5.53    1.97
  -1  15  16   -1.20    3.36
  -1  15  16   -0.13    3.32
   0 -15 -16   -3.02    1.84
   0 -15 -16   18.38   12.78
   0  15  16    0.13    3.07
  -1 -15 -16   -7.37   12.78
  -1 -15 -16   -1.31    1.88
   1  15  16   -1.14    3.08
  -2 -15 -16    1.52   12.38
   6 -16 -16  -16.80   11.07
   6 -16 -16   -1.07    2.18
  -6  16  16   -0.18    4.96
   5 -16 -16   18.26   15.40
  -5  16  16   -4.36    4.25
  -4  16  16   -5.51    4.31
   3 -16 -16  -17.50   12.14
   3 -16 -16   -1.30    2.10
  -3  16  16   -8.36    4.06
  -3  16  16   -0.16    3.70
   2 -16 -16    3.42    2.14
   2 -16 -16  -18.44   12.75
  -2  16  16   -1.30    3.80
  -2  16  16   -3.63    3.68
   1 -16 -16   -1.78    2.14
   1 -16 -16    6.78   13.81
  -1  16  16    1.02    3.64
  -1  16  16   -9.39    3.68
   0 -16 -16    4.84    2.23
   0 -16 -16  -12.82   13.81
   0  16  16    0.15    3.76
  -1 -16 -16    0.24    2.15
  -1 -16 -16   19.82   14.08
   1  16  16    1.11    3.47
  -2 -16 -16    2.84   13.47
   6 -17 -16   -2.50   11.81
   6 -17 -16   -0.12    2.37
  -6  17  16   -5.11    4.34
  -6  17  16   -7.85    5.79
   5 -17 -16    3.88   12.52
   5 -17 -16    2.85    2.46
  -5  17  16   -2.85    4.35
  -5  17  16    5.27    5.26
   4 -17 -16   12.92   12.53
   4 -17 -16   -8.46    2.45
  -4  17  16    0.36    4.21
  -4  17  16   -2.24    4.82
   3 -17 -16   -1.56    2.34
   3 -17 -16    6.44   13.26
  -3  17  16    6.50    4.56
  -3  17  16    3.51    4.25
   2 -17 -16    8.44    2.61
   2 -17 -16   -5.89   13.78
  -2  17  16    2.63    4.49
  -2  17  16   -3.25    3.94
   1 -17 -16    3.16    2.39
   1 -17 -16  -27.34   14.75
  -1  17  16   -4.04    4.14
  -1  17  16    9.00    4.26
   0 -17 -16   -4.98    2.38
   0 -17 -16   -7.01   15.32
   0  17  16   -0.48    3.90
   0  17  16   -1.40    4.04
  -1 -17 -16   10.13   14.97
  -1 -17 -16    0.27    2.31
   1  17  16    1.07    4.01
  -2 -17 -16   16.91   15.78
   6 -18 -16    4.26    3.08
   6 -18 -16    7.82   13.06
  -6  18  16   10.46    6.41
  -6  18  16    4.45    5.00
   5 -18 -16    9.06   14.20
   5 -18 -16   -7.30    2.72
  -5  18  16   12.98    5.87
  -5  18  16   -0.85    4.83
   4 -18 -16    0.68   13.52
   4 -18 -16   -9.02    2.68
  -4  18  16    1.02    4.86
  -4  18  16   -4.47    5.37
   3 -18 -16   -0.52   14.05
   3 -18 -16   -5.17    2.59
  -3  18  16    0.75    4.95
  -3  18  16    0.20    4.79
   2 -18 -16    0.14    2.47
   2 -18 -16   -5.75   14.96
  -2  18  16   -5.72    4.57
  -2  18  16   -3.55    4.90
   1 -18 -16   17.55   15.92
   1 -18 -16    0.42    2.71
  -1  18  16   11.01    4.79
  -1  18  16    1.46    4.48
   0 -18 -16    2.71   16.28
   0 -18 -16    1.13    2.51
   0  18  16    2.99    4.37
   0  18  16   -0.40    4.70
  -1 -18 -16   -5.90   16.61
  -1 -18 -16   -0.74    2.55
   1  18  16   -3.02    4.54
  -2 -18 -16   19.52   17.82
   1   0 -17   48.72   13.91
  -1   0  17   41.94   12.77
   1  -1 -17    1.35    2.59
   1   1 -17    0.23    2.86
  -1  -1  17   -0.07    1.23
  -1   1  17    0.37    1.05
  -1  -1  17   -0.40    1.09
   2   1 -17   -2.16    2.89
  -2  -1  17    0.06    0.95
  -2  -1  17   -0.07    1.22
  -1   2  17    0.66    1.03
   2   0 -17   -4.05    2.90
  -2   0  17   -0.11    0.94
  -2   0  17    0.07    1.29
   2  -1 -17    1.08    2.69
   1   2 -17    1.18    2.93
  -1  -2  17    0.22    1.28
  -2   1  17    1.03    0.93
  -1  -2  17    0.14    1.19
  -2   1  17    0.46    1.26
   2  -2 -17    3.40    2.69
   2   2 -17    0.14    2.86
  -2  -2  17    0.13    1.32
  -2   2  17   -0.13    1.25
  -2   2  17   -0.53    0.92
  -2  -2  17   -1.44    1.00
   3   2 -17    7.62    3.63
   2  -3 -17    8.49    3.61
  -3  -2  17    8.87    2.57
  -2   3  17    8.19    2.58
  -3  -2  17    6.88    2.33
  -2   3  17    7.94    2.35
   3   1 -17    4.49    3.02
  -3  -1  17    5.60    1.57
  -1   3  17    4.92    1.72
  -3  -1  17    3.16    1.84
   3   0 -17    4.02    2.79
  -3   0  17    2.99    1.37
  -3   0  17    5.11    1.69
   1   3 -17    6.19    3.40
   3  -1 -17    3.51    2.99
  -3   1  17    4.50    1.84
  -3   1  17    4.01    1.53
  -1  -3  17    4.35    1.79
  -1  -3  17    7.14    1.95
   2   3 -17    0.22    3.80
   3  -2 -17    8.20    3.43
  -3   2  17    4.76    2.39
  -2  -3  17    6.06    2.40
  -2  -3  17    7.89    2.22
  -3   2  17    9.70    2.09
   3  -3 -17    1.75    2.62
   3   3 -17    0.91    2.87
  -3  -3  17   -0.21    0.95
  -3  -3  17    0.46    1.28
  -3   3  17    0.42    1.26
  -3   3  17    0.26    0.72
   3  -4 -17    0.52    2.78
   4   3 -17   -2.00    3.04
  -3   4  17    3.12    1.09
  -4  -3  17    5.46    1.26
  -3   4  17    2.66    1.53
  -4  -3  17    3.11    1.57
   2  -4 -17   19.76    5.97
   4   2 -17   14.49    5.85
  -4  -2  17   17.00    5.01
  -4  -2  17   15.48    4.72
  -2   4  17   18.37    4.86
   4   1 -17    3.73    2.79
   1  -4 -17    5.23    3.56
  -4  -1  17    2.12    1.41
  -4  -1  17    4.30    1.19
  -1   4  17    0.95    1.32
   4   0 -17    4.20    2.58
  -4   0  17   -0.25    0.75
  -4   0  17    0.29    1.21
   4  -1 -17    0.48    2.57
   1   4 -17    1.32    3.30
  -4   1  17    2.18    0.98
  -4   1  17    3.06    1.35
  -1  -4  17    3.35    1.62
   4  -2 -17   20.80    6.12
   2   4 -17   18.57    6.47
  -2  -4  17   16.92    5.40
  -4   2  17   16.38    5.49
  -4   2  17   20.45    5.14
   3   4 -17    1.17    3.19
   4  -3 -17    1.75    2.52
  -3  -4  17   -0.06    1.17
  -3  -4  17    4.85    1.54
  -4   3  17    2.13    0.91
  -4   3  17    4.11    1.42
   4   4 -17   -3.61    3.07
   4  -4 -17    2.08    2.39
   4  -4 -17    0.10    0.46
  -4   4  17    0.11    1.24
  -4   4  17    0.27    0.59
  -4  -4  17    0.58    1.38
  -4  -4  17    0.31    0.96
   5   4 -17    1.11    0.65
   5   4 -17    0.27    3.05
  -5  -4  17   -1.95    1.40
  -5  -4  17   -0.24    0.87
   5   3 -17   12.57    3.08
   5   3 -17    8.69    4.40
  -3   5  17   13.35    3.54
  -3   5  17   10.16    3.18
  -5  -3  17   11.41    3.16
  -5  -3  17   11.60    3.42
   5   2 -17    1.66    0.79
   5   2 -17    3.00    2.83
   2  -5 -17   -0.80    4.30
  -5  -2  17    1.64    1.26
  -2   5  17    1.22    0.94
  -5  -2  17    2.89    0.95
   5   1 -17    8.60    3.67
   5   1 -17    7.83    2.29
   1  -5 -17    0.04    4.70
  -5  -1  17    9.61    2.35
  -1   5  17    8.21    2.57
  -5  -1  17   10.27    2.64
   5   0 -17    4.39    2.53
   5   0 -17   -0.04    0.58
  -5   0  17   -0.17    1.14
  -5   0  17   -0.04    0.71
   5  -1 -17    6.37    2.24
   5  -1 -17    6.83    3.56
   1   5 -17    9.30    4.15
  -1  -5  17    5.48    2.56
  -5   1  17   12.15    2.64
  -5   1  17    9.01    2.33
  -1  -5  17    8.29    2.76
   5  -2 -17    1.46    2.51
   5  -2 -17    1.33    0.60
   2   5 -17   -3.50    3.53
  -5   2  17    0.85    0.71
  -2  -5  17    1.59    1.17
  -5   2  17    0.48    1.19
  -2  -5  17    0.95    1.52
   5  -3 -17    8.78    2.67
   3   5 -17   15.89    4.37
   5  -3 -17    9.63    3.89
  -3  -5  17    8.07    3.10
  -5   3  17    9.64    2.72
  -3  -5  17    8.90    2.82
  -5   3  17    8.90    3.10
   5  -4 -17    0.98    0.52
   4   5 -17   -0.14    3.25
   5  -4 -17    1.79    2.35
  -5   4  17    0.62    1.16
  -5   4  17    0.38    0.58
  -4  -5  17    0.48    1.43
   6   5 -17   -4.54    3.66
  -6  -5  17   -2.33    1.41
   6   4 -17    0.61    1.02
  -6  -4  17   -1.95    1.16
   6   2 -17   11.81    2.68
   2  -6 -17    0.83    5.89
   6   2 -17   14.63    4.34
  -6  -2  17   11.92    3.12
  -6  -2  17    9.95    2.77
  -2   6  17    3.65    3.34
   6   1 -17    1.16    2.86
   6   1 -17    0.10    0.67
   1  -6 -17    1.96    4.71
  -6  -1  17    0.41    0.75
  -6  -1  17    0.06    1.22
   0  -6 -17   -7.80    4.00
   6   0 -17   -0.11    2.75
   6   0 -17   -0.27    0.58
  -6   0  17   -0.17    1.13
   0  -6  17    0.98    1.49
  -6   0  17    0.61    0.68
   6  -1 -17    7.45    2.71
   1   6 -17    0.27    3.54
   6  -1 -17   -0.48    0.57
  -6   1  17    0.15    0.66
  -1  -6  17    0.32    1.49
  -6   1  17    0.11    1.21
  -1  -6  17    1.28    1.28
   6  -2 -17    9.65    4.31
   6  -2 -17   10.63    3.10
   2   6 -17    9.90    5.01
  -6   2  17   11.42    3.13
  -6   2  17    9.53    3.50
  -2  -6  17   11.67    3.55
  -2  -6  17   15.16    3.29
   6  -3 -17   -0.04    0.56
   6  -3 -17   -4.75    2.50
  -6   3  17   -0.17    0.62
  -3  -6  17   -2.28    1.54
  -3  -6  17   -1.62    1.17
  -6   3  17   -0.48    1.27
   6  -4 -17    4.83    2.70
   6  -4 -17    4.64    1.16
  -4  -6  17    3.42    1.49
  -6   4  17    3.82    1.60
  -4  -6  17    0.43    2.03
  -6   4  17    3.62    1.19
   5   6 -17   -2.80    3.66
   5   6 -17   -0.42    0.86
  -5  -6  17    0.77    1.56
  -5  -6  17    1.06    1.05
   6   6 -17    1.18    0.95
   6   6 -17    0.90    3.68
  -6  -6  17    0.07    1.55
  -6  -6  17    3.04    1.05
   7   5 -17   -1.10    3.64
  -7  -5  17   -0.53    1.40
   7   4 -17    8.05    3.69
   7   4 -17    0.71    0.88
  -7  -4  17   -0.05    0.89
  -7  -4  17    0.13    1.41
   7   3 -17    8.94    5.23
   7   3 -17   10.47    3.65
  -7  -3  17   16.74    3.72
  -7  -3  17   17.42    4.01
   2  -7 -17   -0.28    0.89
   2  -7 -17  -12.71    5.73
   7   2 -17   -1.12    0.80
  -7  -2  17   -0.36    0.94
  -2   7  17    2.32    1.43
  -7  -2  17   -1.17    1.38
   7   1 -17    2.77    3.65
   7   1 -17    6.08    1.48
  -7  -1  17    7.43    1.93
  -7  -1  17    2.43    1.56
   7   0 -17    1.71    1.15
  -7   0  17    3.97    1.27
   0  -7  17    3.35    1.96
  -7   0  17    4.15    1.76
   7  -1 -17    7.40    3.27
   1   7 -17    8.15    4.16
   7  -1 -17    4.74    1.46
  -1  -7  17    3.03    2.12
  -7   1  17    5.51    1.52
  -1  -7  17    3.36    1.99
  -7   1  17    2.87    1.87
   7  -2 -17    0.87    0.66
   7  -2 -17    3.00    2.82
   2   7 -17   -3.32    3.88
  -7   2  17    0.79    0.77
  -2  -7  17   -0.08    1.62
  -2  -7  17    1.70    1.29
  -7   2  17    1.41    1.22
   3   7 -17    4.36    4.82
   7  -3 -17   15.12    4.21
   7  -3 -17    9.87    2.79
  -3  -7  17    4.72    3.30
  -3  -7  17   10.31    2.92
  -7   3  17   11.43    2.82
  -7   3  17    7.97    3.28
   7  -4 -17   -0.58    0.63
   7  -4 -17    0.58    2.60
   4   7 -17   -2.56    3.71
  -4  -7  17    1.00    1.14
  -7   4  17    0.20    0.72
  -7   4  17    1.28    1.20
  -4  -7  17    2.05    1.62
   5   7 -17    0.82    0.83
   5   7 -17   -0.86    4.00
  -5  -7  17    3.81    1.10
  -5  -7  17   -0.75    1.63
   7   7 -17    1.11    0.90
  -7  -7  17    0.69    1.06
   8   7 -17    0.59    4.41
   8   7 -17    0.07    1.03
  -8  -7  17    0.53    1.71
  -8  -7  17    0.06    1.14
   8   6 -17    1.91    0.98
  -8  -6  17    0.59    1.04
  -8  -6  17   -0.07    1.37
   8   4 -17    2.08    3.67
  -8  -4  17   -5.20    1.42
   3  -8 -17    1.87    5.93
   8   3 -17   -0.07    3.51
   8   3 -17    2.08    1.02
   3  -8 -17    1.34    1.11
  -8  -3  17    2.54    1.11
  -8  -3  17    4.52    1.53
   8   2 -17    1.05    3.51
   8   2 -17    4.68    1.14
   2  -8 -17    7.83    6.54
   2  -8 -17    2.15    1.29
  -8  -2  17    2.12    1.49
  -8  -2  17    2.79    1.17
  -2   8  17    2.78    1.76
   8   1 -17    2.10    0.80
   8   1 -17    4.57    3.12
   1  -8 -17   12.83    6.14
  -1   8  17   -0.22    1.63
  -8  -1  17   -1.33    0.89
  -8  -1  17    1.84    1.22
   8   0 -17   -0.51    0.73
   8   0 -17   -0.36    2.94
   0  -8 -17    3.26    5.64
  -8   0  17   -1.63    1.16
   0  -8  17    1.10    1.70
  -8   0  17   -0.43    0.90
   8  -1 -17    0.92    2.88
   8  -1 -17    0.61    0.75
   1   8 -17   -4.45    3.88
  -8   1  17    0.38    0.78
  -8   1  17   -0.56    1.18
  -1  -8  17    0.09    1.68
  -1  -8  17   -0.63    1.45
   8  -2 -17    5.31    2.96
   8  -2 -17    1.95    1.04
   2   8 -17    1.20    4.20
  -2  -8  17    3.05    1.61
  -8   2  17    2.93    1.11
  -8   2  17    3.76    1.50
  -2  -8  17    1.09    1.90
   8  -3 -17    1.97    2.80
   8  -3 -17    1.97    0.84
   3   8 -17   -0.86    3.83
  -8   3  17    2.04    1.32
  -3  -8  17    1.55    1.28
  -8   3  17    2.12    0.94
  -3  -8  17    0.08    1.78
   4   8 -17    0.90    4.08
   8  -4 -17    0.69    0.77
  -4  -8  17   -1.38    1.75
  -8   4  17   -0.05    0.78
  -4  -8  17    6.84    1.26
  -8   4  17    1.53    1.27
   6   8 -17    1.11    0.91
  -6  -8  17   -0.06    1.01
   7   8 -17    1.24    0.95
   7   8 -17   -3.20    4.36
  -7  -8  17    0.08    1.84
  -7  -8  17   -1.67    1.13
   8   8 -17    1.89    1.07
   8   8 -17    0.09    4.59
  -8  -8  17    0.40    1.83
  -8  -8  17   -0.39    1.22
   9   8 -17    2.37    1.13
   9   8 -17    6.11    4.61
  -9  -8  17   -0.16    1.83
  -9  -8  17   -1.47    1.30
   9   7 -17   -0.86    4.47
   9   7 -17   -0.64    1.09
  -9  -7  17    0.70    1.22
  -9  -7  17   -1.28    1.66
  -9  -6  17    0.07    1.11
  -9  -6  17    0.07    1.53
   9   5 -17    4.66    3.74
   9   5 -17    0.51    0.87
  -9  -5  17    0.60    1.43
  -9  -5  17   -0.06    1.05
   9   4 -17    4.72    1.37
  -9  -4  17    2.59    1.57
   3  -9 -17    2.75    1.29
   3  -9 -17    3.60    6.60
  -3   9  17    2.70    1.76
  -3   9  17    1.95    1.89
   2  -9 -17    1.39    1.11
   2  -9 -17    4.84    6.98
  -9  -2  17    1.00    1.31
  -2   9  17    0.27    1.65
   9   1 -17   -0.84    0.82
   1  -9 -17    0.18    1.12
   1  -9 -17   -0.88    6.99
  -9  -1  17   -0.57    0.98
  -9  -1  17    0.06    1.24
  -1   9  17   -0.85    1.73
   9   0 -17    1.01    0.80
   0  -9 -17    1.67    6.73
   0  -9  17   -1.52    1.75
  -9   0  17    0.50    0.94
  -9   0  17    0.06    1.21
   9  -1 -17    1.78    0.84
   1   9 -17    1.83    4.16
  -1  -9 -17    2.13    5.85
  -1  -9  17    1.20    1.71
  -9   1  17    1.19    1.23
  -9   1  17   -0.66    0.96
  -1  -9  17   -0.48    1.51
   2   9 -17    0.77    4.16
   9  -2 -17    0.71    0.87
  -2  -9  17    0.73    1.42
  -9   2  17   -0.06    1.26
  -2  -9  17    1.33    1.90
  -9   2  17    2.76    0.96
   3   9 -17   -0.92    4.26
   9  -3 -17    2.06    1.02
  -9   3  17    3.46    1.40
  -3  -9  17    1.13    1.91
   5   9 -17    0.71    0.99
  -5  -9  17   -0.06    1.10
   6   9 -17   -0.82    1.12
   6   9 -17   -3.97    4.91
  -6  -9  17   -1.08    1.19
  -6  -9  17    0.09    2.04
   7   9 -17   -2.32    1.13
   7   9 -17    0.83    4.72
  -7  -9  17    0.09    1.93
  -7  -9  17    1.31    1.15
   8   9 -17   -1.23    4.76
   8   9 -17   -0.17    1.19
  -8  -9  17   -0.09    1.94
  -8  -9  17    0.07    1.24
   9   9 -17    0.18    1.20
   9   9 -17   -0.67    4.92
  -9  -9  17    0.84    1.39
  -9  -9  17   -2.94    1.93
  10   9 -17    0.49    5.02
  10   9 -17    1.76    1.26
 -10  -9  17   -0.75    1.46
 -10  -9  17   -0.35    1.90
  10   8 -17   -0.65    1.18
  10   8 -17    1.78    4.69
 -10  -8  17   -0.88    1.39
 -10  -8  17    0.40    1.73
  10   7 -17    2.49    4.41
  10   7 -17   -0.44    1.09
 -10  -7  17   -0.38    1.29
 -10  -7  17    0.07    1.54
 -10  -6  17   -0.28    1.44
  10   5 -17    1.04    0.98
 -10  -5  17   -0.35    1.19
 -10  -5  17    0.07    1.32
  10   4 -17   -1.00    0.98
 -10  -4  17   -0.07    1.21
 -10  -4  17    0.32    1.36
  10   3 -17    0.75    1.35
   3 -10 -17   12.77    7.61
   3 -10 -17    5.28    1.59
 -10  -3  17    0.14    1.44
  -3  10  17    3.46    2.06
  -3  10  17    3.70    2.17
 -10  -3  17    8.80    1.68
  10   2 -17   -0.07    0.90
   2 -10 -17    0.26    7.87
   2 -10 -17    0.06    1.20
 -10  -2  17   -0.07    1.07
  -2  10  17    1.30    1.83
   1 -10 -17   -5.20    7.80
   1 -10 -17    1.42    1.17
  -1  10  17    0.74    1.94
   0 -10 -17    0.99    7.49
   0 -10  17    3.63    1.85
   0  10  17    1.47    2.04
 -10   0  17    1.25    1.40
   1  10 -17   -0.21    4.42
  -1 -10 -17   -6.65    6.88
  10  -1 -17    0.82    0.90
 -10   1  17   -1.35    1.20
  -1 -10  17    0.10    1.81
  -2 -10  17   -0.09    1.81
 -10   2  17    0.76    1.29
 -10   3  17    5.26    1.95
   4  10 -17   -0.74    0.98
  -4 -10  17   -0.45    1.27
   5  10 -17   -1.50    1.09
  -5 -10  17   -2.34    1.30
  -5 -10  17   -5.13    2.31
   6  10 -17    3.16    4.95
   6  10 -17    1.24    1.09
  -6 -10  17   -0.19    2.04
  -6 -10  17    0.26    1.13
   7  10 -17    0.88    5.19
   7  10 -17   -0.25    1.15
  -7 -10  17    0.62    1.31
  -7 -10  17    0.09    2.10
   8  10 -17    0.82    1.20
   8  10 -17   -1.40    4.98
  -8 -10  17    1.28    1.31
  -8 -10  17   -0.09    1.95
   9  10 -17   -2.36    5.27
   9  10 -17    0.85    1.30
  -9 -10  17   -2.89    1.43
  -9 -10  17   -3.90    2.03
  10  10 -17    2.62    5.39
  10  10 -17    1.76    1.30
 -10 -10  17   -5.36    1.95
 -10 -10  17   -1.43    1.62
  11  10 -17    0.91    1.31
  11  10 -17   -1.18    5.38
 -11 -10  17   -0.10    1.66
 -11 -10  17    0.55    2.03
  11   9 -17   -0.43    1.38
  11   9 -17    1.12    5.00
 -11  -9  17    0.09    1.84
 -11  -9  17    2.29    1.59
  11   8 -17    3.39    4.97
  11   8 -17    0.41    1.27
 -11  -8  17   -0.79    1.38
 -11  -8  17    0.08    1.69
  11   7 -17    0.58    1.19
 -11  -7  17    0.08    1.43
 -11  -7  17    0.53    1.62
 -11  -6  17    0.07    1.50
  11   5 -17   -1.61    1.07
 -11  -5  17    0.39    1.25
 -11  -5  17   -1.68    1.47
   2 -11 -17    0.13    1.42
  11   2 -17   -0.59    1.06
 -11  -2  17   -2.53    1.41
  -2  11  17   -3.95    2.20
   1 -11 -17    2.75    1.50
  -1  11  17    1.49    2.26
 -11  -1  17    0.13    1.35
 -11   2  17   -1.45    1.39
  -3 -11  17   -2.28    1.33
  -3 -11  17   -0.10    1.50
 -11   3  17    0.18    1.31
   4  11 -17    0.10    4.76
   4  11 -17    0.39    1.12
  -4 -11  17   -1.86    1.30
  -4 -11  17   -2.78    2.10
   5  11 -17    1.68    4.95
   5  11 -17   -0.08    1.09
  -5 -11  17    0.52    1.23
  -5 -11  17   -1.72    2.21
   6  11 -17    1.11    5.07
   6  11 -17    0.33    1.19
  -6 -11  17    2.64    2.36
  -6 -11  17    2.57    1.29
   7  11 -17   -0.18    1.27
   7  11 -17   -7.10    5.29
  -7 -11  17    0.36    1.25
  -7 -11  17    0.20    2.26
   8  11 -17   -0.19    1.21
   8  11 -17   -3.19    5.52
  -8 -11  17   -0.69    1.42
  -8 -11  17    1.42    2.20
   9  11 -17    0.41    1.26
   9  11 -17   -4.25    5.68
  -9 -11  17    0.67    1.50
  -9 -11  17   -1.82    2.28
  10  11 -17    8.56    5.78
  10  11 -17   -2.30    1.41
 -10 -11  17   -0.10    2.11
 -10 -11  17   -1.86    1.58
  11  11 -17    4.99    5.70
  11  11 -17    0.73    1.51
 -11 -11  17   -0.30    2.27
   4 -12 -17    3.38    7.94
  -4  12  17    2.28    2.60
   3 -12 -17    6.21    9.26
  -3  12  17   -0.30    2.49
   2 -12 -17   -7.84    9.39
   1 -12 -17   16.70    3.75
   1 -12 -17  -12.50   10.56
  -1  12  17   12.38    4.25
   0 -12 -17    2.80    9.33
   0 -12 -17   -1.24    1.48
   0  12  17   -3.06    2.41
   0 -12  17   -0.10    1.89
  -1 -12 -17    4.24    9.57
  -1 -12  17    6.00    2.57
   2  12 -17   -1.24    4.82
  -2 -12  17    0.16    1.47
  -2 -12  17    1.49    2.16
   3  12 -17    3.32    5.29
  -3 -12  17    2.00    2.21
  -3 -12  17    2.79    1.55
   4  12 -17    0.65    1.22
   4  12 -17   -2.70    5.20
  -4 -12  17    2.90    1.42
  -4 -12  17    2.44    2.29
   5  12 -17   -1.61    1.25
   5  12 -17   -5.23    5.19
  -5 -12  17   -0.44    2.40
  -5 -12  17    0.07    1.31
   6  12 -17   -3.74    5.39
   6  12 -17    0.62    1.23
  -6 -12  17   -2.75    2.49
  -6 -12  17   -0.14    1.32
   7  12 -17   38.58    7.21
   7  12 -17    1.99    3.36
  -7 -12  17   10.78    4.34
  -7 -12  17   15.70    3.44
   8  12 -17    0.40    1.38
   8  12 -17   -0.91    5.89
  -8 -12  17    3.72    1.54
  -8 -12  17    0.11    2.33
   9  12 -17    2.04    1.54
   9  12 -17   -3.22    5.99
  -9 -12  17    0.11    2.37
  -9 -12  17    2.84    1.64
  10  12 -17    1.16    1.49
  10  12 -17    5.29    6.16
 -10 -12  17   -0.19    1.63
 -10 -12  17   -0.66    2.30
  11  12 -17    5.82    2.90
  11  12 -17   43.30    7.34
 -11 -12  17    1.84    3.41
   4 -13 -17    0.47    1.60
  -4  13  17    1.28    2.83
  -4  13  17    0.41    2.85
   3 -13 -17    4.90    9.33
   3 -13 -17    1.65    1.66
  -3  13  17    0.10    2.77
  -3  13  17   -0.56    2.75
   2 -13 -17   -5.56   10.55
   2 -13 -17    1.98    1.64
  -2  13  17    2.35    2.77
  -2  13  17    0.69    2.54
   1 -13 -17    2.58   10.49
   1 -13 -17    0.08    1.57
  -1  13  17   -7.24    2.68
   0 -13 -17   -7.67   10.30
   0 -13 -17    0.36    1.67
   0 -13  17    3.92    1.96
   0  13  17    4.88    2.74
  -1 -13 -17    5.09   10.05
  -1 -13  17   -5.51    1.66
   2  13 -17   -0.71    5.02
  -2 -13  17    1.88    1.48
  -2 -13  17   -1.01    2.25
   3  13 -17    1.98    5.39
   3  13 -17    0.09    1.24
  -3 -13  17    0.67    2.28
  -3 -13  17    1.29    1.38
   4  13 -17   -1.12    1.27
   4  13 -17  -12.92    5.66
  -4 -13  17   -0.07    1.38
  -4 -13  17    1.92    2.34
  -5 -13  17   19.87    5.63
  -5 -13  17   22.97    6.43
   6  13 -17   -2.61    5.66
   6  13 -17   -0.18    1.33
  -6 -13  17   -0.12    2.60
  -6 -13  17   -3.61    1.36
   7  13 -17  -11.64    5.88
   7  13 -17   -2.28    1.46
  -7 -13  17   -0.12    2.64
  -7 -13  17    0.08    1.38
   8  13 -17    1.69    1.45
   8  13 -17  -14.14    6.04
  -8 -13  17    0.49    1.45
  -8 -13  17    0.36    2.56
   9  13 -17    4.87    6.43
   9  13 -17    0.45    1.49
  -9 -13  17   -2.20    1.64
  -9 -13  17    1.55    2.51
  10  13 -17   -0.37    1.70
  10  13 -17  -22.81    7.06
 -10 -13  17    0.20    1.95
 -10 -13  17    0.94    2.76
  11  13 -17    4.05    6.57
  11  13 -17   -2.86    1.77
 -11 -13  17   -0.35    2.46
   4 -14 -17    5.96    9.32
   4 -14 -17    4.57    1.97
  -4  14  17    0.13    3.19
  -4  14  17    0.35    3.33
   3 -14 -17   -1.82   10.15
   3 -14 -17   -3.42    1.71
  -3  14  17   -0.56    3.02
  -3  14  17   -0.51    3.10
   2 -14 -17   -2.57    1.75
  -2  14  17   -4.25    2.99
  -2  14  17   -0.86    3.11
   1 -14 -17  -11.03   12.17
   1 -14 -17   -8.47    1.99
  -1  14  17    0.71    2.94
   0 -14 -17   -2.06    1.80
   0 -14 -17   18.27   11.91
   0  14  17   -2.13    2.92
  -1 -14 -17    7.13   11.66
   1  14  17   -1.72    2.92
   4  14 -17    1.82    1.36
   5  14 -17   -3.22    5.57
   5  14 -17    2.19    1.29
  -5 -14  17   -1.24    2.55
   6  14 -17    0.83    5.99
   6  14 -17    2.54    1.38
  -6 -14  17    1.79    2.87
  -6 -14  17   -1.22    1.51
   7  14 -17    0.53    1.38
   7  14 -17    1.34    6.38
  -7 -14  17    0.63    1.42
  -7 -14  17   -0.13    2.85
   8  14 -17  -21.12    7.17
   8  14 -17   -2.74    1.69
  -8 -14  17   -0.13    2.96
   9  14 -17   -3.35    1.62
   9  14 -17   10.42    6.48
  -9 -14  17   -8.26    1.83
  -9 -14  17   -1.67    2.92
  10  14 -17    6.90    6.80
  10  14 -17    0.13    1.69
 -10 -14  17    0.51    2.84
 -10 -14  17    2.35    1.83
  11  14 -17   -3.72    7.02
 -11 -14  17   -8.20    2.93
   5 -15 -17    3.80    2.15
   5 -15 -17   -1.50    9.72
   4 -15 -17   -2.62    1.98
   4 -15 -17   -0.12   10.46
  -4  15  17   -3.05    3.67
  -4  15  17   -2.34    3.41
   3 -15 -17    2.05    1.92
   3 -15 -17   -8.54   11.05
  -3  15  17   -8.70    3.37
  -3  15  17    1.29    3.52
   2 -15 -17    5.10   11.70
   2 -15 -17    5.19    2.06
  -2  15  17    1.93    3.50
  -2  15  17   -4.71    3.30
   1 -15 -17   10.31   12.41
   1 -15 -17    1.03    1.88
  -1  15  17   -0.14    3.46
  -1  15  17   -4.97    3.40
   0 -15 -17    0.11    1.86
   0 -15 -17    0.15   12.91
   0  15  17   -1.54    3.31
  -1 -15 -17  -11.01   12.58
   1  15  17    2.32    3.23
   5 -16 -17    3.12    2.12
   5 -16 -17  -23.68   11.43
  -4  16  17  -12.56    4.92
  -3  16  17   15.04   15.90
  -2  16  17   -2.45    4.07
   1 -16 -17   -1.94    2.22
   1 -16 -17  -21.69   14.22
  -1  16  17    0.59    3.66
  -1  16  17   -2.13    3.76
   0 -16 -17  -34.10   14.30
   0 -16 -17    0.70    2.07
   0  16  17   -3.92    3.66
  -1 -16 -17   -9.47   14.21
   1  16  17   -4.35    3.62
   5 -17 -17   -5.56    2.47
   5 -17 -17   -0.16   12.46
  -5  17  17    0.90    4.97
  -5  17  17    2.11    4.37
   4 -17 -17   -1.45    2.42
   4 -17 -17   -8.60   12.46
  -4  17  17   -3.67    4.22
  -4  17  17   -0.86    4.54
   3 -17 -17    9.34   13.39
   3 -17 -17   -5.31    2.42
  -3  17  17    0.18    4.35
  -3  17  17   -4.15    4.58
   2 -17 -17   12.64   13.98
   2 -17 -17    5.13    2.63
  -2  17  17    2.25    4.21
  -2  17  17   -3.91    4.44
   1 -17 -17   -0.70   14.71
   1 -17 -17    3.93    2.39
  -1  17  17   -5.18    4.48
  -1  17  17    4.58    4.13
   0 -17 -17    9.88   14.91
   0 -17 -17    3.50    2.42
   0  17  17    3.90    4.16
   0  17  17   -2.45    4.14
  -1 -17 -17  -18.53   15.52
   1  17  17   -5.77    4.12
   5 -18 -17   -3.85    2.56
   5 -18 -17   -9.47   14.00
  -5  18  17   -4.94    4.71
  -5  18  17    0.40    5.46
   4 -18 -17   12.60   13.31
   4 -18 -17   -6.94    2.71
  -4  18  17   -9.59    4.87
  -4  18  17    4.68    5.34
   3 -18 -17    4.15   14.33
   3 -18 -17   -0.14    2.58
  -3  18  17  -12.88    5.26
  -3  18  17   -0.20    4.64
   2 -18 -17   14.07   14.94
   2 -18 -17    1.39    2.66
  -2  18  17   -8.13    5.06
  -2  18  17    9.61    4.83
   1 -18 -17   -4.29   15.56
   1 -18 -17   -2.80    2.69
  -1  18  17   -0.55    4.65
  -1  18  17    6.50    4.84
   0 -18 -17    0.14    2.50
   0 -18 -17    4.74   16.87
   0  18  17   -6.06    4.52
   0  18  17   -1.60    4.64
   1  18  17  -16.66    4.66
   1   0 -18   -2.11    2.86
  -1   0  18   -0.21    1.21
   1   1 -18   14.08    5.66
  -1   1  18   17.32    4.52
  -1  -1  18   15.29    4.69
  -1  -1  18   15.54    4.48
   2   1 -18    4.01    3.04
  -2  -1  18   -0.22    1.37
  -2  -1  18   -0.73    1.07
  -1   2  18   -0.26    1.16
   2   0 -18   -0.82    3.06
  -2   0  18    2.80    1.52
  -2   0  18    2.50    1.19
   1   2 -18    5.12    3.18
   2  -1 -18    2.92    2.95
  -2   1  18    0.56    1.04
  -2   1  18   -1.58    1.41
  -1  -2  18    0.31    1.39
  -1  -2  18   -0.43    1.31
   2  -2 -18    4.99    2.97
   2   2 -18   -0.08    3.16
  -2  -2  18    3.65    1.57
  -2   2  18    2.72    1.21
  -2   2  18    2.29    1.56
  -2  -2  18    1.23    1.23
   3   2 -18    0.35    3.01
   2  -3 -18    0.14    2.79
  -3  -2  18    0.68    1.35
  -3  -2  18    1.22    1.04
  -2   3  18    0.79    0.99
  -2   3  18    1.57    1.42
   3   1 -18    6.02    4.32
  -1   3  18    5.57    3.13
  -3  -1  18   13.49    3.00
  -3  -1  18   13.10    3.24
   3   0 -18    3.87    2.87
  -3   0  18    0.20    1.33
  -3   0  18    0.30    0.91
   1   3 -18    6.62    4.79
   3  -1 -18   14.58    4.63
  -3   1  18   10.23    3.60
  -1  -3  18   12.14    3.61
  -1  -3  18   12.55    3.48
  -3   1  18   13.29    3.35
   3  -2 -18    1.56    2.86
   2   3 -18    2.32    3.23
  -3   2  18   -0.04    0.82
  -2  -3  18    0.70    1.21
  -3   2  18    1.83    1.37
  -2  -3  18   -0.07    1.35
   3   3 -18    8.65    5.00
   3  -3 -18   12.81    4.94
  -3   3  18   12.36    3.71
  -3  -3  18   15.20    3.71
  -3   3  18   13.31    4.04
  -3  -3  18   14.40    3.98
   4   3 -18   22.65    6.03
   3  -4 -18   15.22    5.94
  -4  -3  18   16.01    5.01
  -3   4  18   17.83    5.14
  -4  -3  18   17.30    4.70
  -3   4  18   14.42    4.76
   4   2 -18   18.39    7.55
  -4  -2  18   23.65    6.63
  -2   4  18   18.91    6.51
  -4  -2  18   29.67    6.33
   4   1 -18    7.39    3.75
  -4  -1  18    7.54    2.70
  -4  -1  18    9.24    2.38
  -1   4  18    6.22    2.59
   4   0 -18   12.41    5.42
  -4   0  18   15.33    4.18
  -4   0  18   16.42    4.50
   1   4 -18    7.42    4.57
   4  -1 -18    5.02    3.99
  -4   1  18   11.68    2.87
  -4   1  18   10.01    3.16
  -1  -4  18   13.85    3.22
   4  -2 -18   18.50    7.04
   2   4 -18   20.06    7.44
  -2  -4  18   23.91    5.94
  -2  -4  18   23.31    6.24
  -4   2  18   17.60    5.96
  -4   2  18   25.97    6.39
   4  -3 -18   18.56    5.92
   3   4 -18   12.15    6.20
  -4   3  18   16.64    5.24
  -3  -4  18   20.35    5.15
  -3  -4  18   19.62    4.86
  -4   3  18   16.91    4.86
   4  -4 -18   14.62    4.11
   4  -4 -18    8.67    2.81
  -4  -4  18   10.65    2.98
  -4  -4  18    4.01    3.44
  -4   4  18   12.34    2.89
  -4   4  18    9.94    3.26
   5   4 -18   -1.63    0.95
  -5  -4  18   -4.40    1.41
   5   3 -18   -4.06    1.09
  -5  -3  18   -1.05    1.69
  -5  -3  18   -4.54    1.35
   5   2 -18   18.28    3.83
   5   2 -18    8.60    5.33
  -5  -2  18   12.90    3.92
  -5  -2  18   13.46    4.21
   5   1 -18    0.92    0.75
   1  -5 -18   -0.05    3.94
   5   1 -18    2.48    2.93
  -1   5  18    2.26    1.15
  -5  -1  18    0.50    1.36
  -5  -1  18    2.11    0.88
   5   0 -18    0.14    0.61
   5   0 -18   -0.42    2.90
  -5   0  18    0.71    0.78
  -5   0  18    0.37    1.30
   5  -1 -18    0.52    0.60
   5  -1 -18   -1.99    2.85
   1   5 -18    4.65    3.52
  -5   1  18    0.90    1.31
  -1  -5  18    2.04    1.43
  -5   1  18    0.94    0.75
  -1  -5  18    0.08    1.47
   5  -2 -18    7.93    4.65
   5  -2 -18   11.39    3.32
   2   5 -18    9.42    5.28
  -2  -5  18   12.95    3.53
  -5   2  18    8.43    3.82
  -2  -5  18   14.07    3.81
  -5   2  18   15.38    3.42
   5  -3 -18    1.67    2.76
   5  -3 -18    4.32    0.99
  -5   3  18    4.02    1.07
  -3  -5  18   -4.58    2.01
  -5   3  18    1.76    1.55
   5  -4 -18    0.05    2.67
   5  -4 -18    1.16    0.66
  -5   4  18    2.46    0.76
  -5   4  18    2.19    1.42
   5   5 -18    3.50    3.81
  -5  -5  18    2.80    1.79
   6   5 -18    0.30    3.80
  -6  -5  18   -2.65    1.57
   6   4 -18   11.51    3.77
   6   4 -18   -0.46    0.95
  -6  -4  18    4.59    1.72
  -6  -4  18    1.89    1.12
   6   3 -18   20.21    6.93
   6   3 -18   13.86    5.22
  -6  -3  18   24.89    5.73
  -6  -3  18   21.02    5.34
   6   2 -18   -0.93    0.91
  -6  -2  18   -3.37    1.22
  -6  -2  18   -5.80    1.78
   0  -6 -18   -0.20    4.18
   6   0 -18    1.60    0.91
  -6   0  18    2.19    1.57
  -6   0  18    2.64    0.99
   6  -1 -18    7.38    2.94
   1   6 -18    9.54    5.16
   6  -1 -18   23.03    4.61
  -6   1  18   11.64    3.50
  -1  -6  18   10.44    3.60
  -6   1  18    6.67    3.02
  -1  -6  18   12.75    3.32
   6  -2 -18    2.00    0.73
   6  -2 -18    0.44    2.84
  -2  -6  18   -1.31    1.79
  -6   2  18    1.59    1.35
  -6   2  18    2.16    0.82
  -2  -6  18    1.34    1.43
   3   6 -18    0.08    6.92
   6  -3 -18   20.22    5.17
   6  -3 -18   18.40    6.53
  -3  -6  18   21.31    5.65
  -6   3  18   19.54    5.23
  -3  -6  18   26.21    5.30
  -6   3  18   18.28    5.79
   4   6 -18    1.80    3.77
   6  -4 -18    0.86    0.74
   6  -4 -18    1.51    2.56
  -6   4  18    1.27    0.77
  -4  -6  18    3.05    1.22
  -6   4  18    0.74    1.46
  -4  -6  18    3.17    1.70
   5   6 -18    3.76    1.12
   5   6 -18    0.71    3.80
  -5  -6  18   -0.83    1.87
  -5  -6  18    4.62    1.35
   7   6 -18   -0.07    0.96
  -7  -6  18    0.06    1.05
   7   4 -18    1.63    3.80
  -7  -4  18    1.93    1.48
   7   3 -18   -1.01    0.82
   7   3 -18   -1.56    3.67
  -7  -3  18    2.13    1.49
  -7  -3  18   -0.39    0.96
   7   2 -18   11.88    3.10
   7   2 -18    2.44    5.01
  -7  -2  18   11.80    3.18
  -7  -2  18   14.67    3.49
   1  -7 -18   -6.21    5.54
   7   1 -18   -0.76    0.75
   7   1 -18    5.70    3.35
  -7  -1  18   -0.96    0.86
  -7  -1  18    2.99    1.38
   0  -7 -18   -1.37    4.80
   7   0 -18    0.44    3.19
   7   0 -18   -0.57    0.66
  -7   0  18    0.06    1.33
  -7   0  18    0.09    0.79
   7  -1 -18    1.19    3.05
   1   7 -18    2.65    3.84
   7  -1 -18    0.77    0.66
  -7   1  18    0.91    1.30
  -1  -7  18    0.09    1.58
  -7   1  18   -0.04    0.79
  -1  -7  18   -0.58    1.51
   7  -2 -18    9.52    2.48
   2   7 -18    2.52    4.84
   7  -2 -18   16.18    4.17
  -2  -7  18    0.09    3.01
  -7   2  18    7.38    2.52
  -7   2  18    8.87    3.02
  -2  -7  18   13.61    2.76
   7  -3 -18    0.30    0.67
   3   7 -18    1.23    3.82
   7  -3 -18   -0.87    2.85
  -3  -7  18    0.08    1.70
  -7   3  18    0.28    0.71
  -3  -7  18   -0.33    1.28
  -7   3  18    0.83    1.35
   4   7 -18    2.98    3.90
  -4  -7  18    0.73    1.83
  -7   4  18    1.53    0.76
  -7   4  18    1.98    1.44
  -4  -7  18   -0.06    1.10
   6   7 -18    0.90    0.99
  -6  -7  18    0.82    1.12
   7   7 -18    0.26    4.32
   7   7 -18   -0.44    1.13
  -7  -7  18    1.13    1.14
  -7  -7  18    2.90    1.92
   8   7 -18   -0.31    1.13
   8   7 -18   -2.41    4.81
  -8  -7  18    0.79    1.18
  -8  -7  18   -3.57    1.85
   8   6 -18   -5.26    4.38
  -8  -6  18    1.19    1.11
  -8  -6  18    0.08    1.66
   8   5 -18    0.55    1.13
   8   5 -18    5.31    3.90
  -8  -5  18    6.44    1.70
  -8  -3  18    2.99    1.73
   2  -8 -18    5.48    6.38
   8   2 -18   -0.93    0.91
   8   2 -18    0.84    3.55
   2  -8 -18   -0.54    1.05
  -8  -2  18    2.01    1.48
  -8  -2  18    2.10    0.98
   1  -8 -18   -7.83    6.31
   8   1 -18    0.13    3.42
   8   1 -18    0.65    0.77
  -8  -1  18    0.06    1.40
  -8  -1  18    0.90    0.90
   0  -8 -18    1.26    5.78
   8   0 -18    1.68    3.28
   8   0 -18    0.71    0.87
  -8   0  18   -0.29    0.92
  -8   0  18    2.37    1.40
   1   8 -18   -2.87    4.09
   8  -1 -18    1.30    3.22
   8  -1 -18    3.05    0.95
  -1  -8  18    1.01    1.64
  -8   1  18    2.72    1.02
  -8   1  18    1.24    1.47
  -1  -8  18    1.87    1.85
   2   8 -18    1.37    4.27
   8  -2 -18    0.57    0.79
   8  -2 -18   -0.89    3.11
  -2  -8  18    0.18    1.84
  -8   2  18   -0.05    0.90
  -2  -8  18    7.16    1.47
  -8   2  18    1.04    1.39
   8  -3 -18    4.83    3.06
   3   8 -18    1.67    4.28
   8  -3 -18    2.85    1.05
  -8   3  18    3.48    1.14
  -3  -8  18    0.09    1.84
  -8   3  18    1.52    1.59
   5   8 -18    0.70    0.95
  -5  -8  18   -0.88    1.21
   6   8 -18    1.61    1.06
   6   8 -18   -0.81    4.41
  -6  -8  18    0.09    1.85
  -6  -8  18   -0.06    1.18
   7   8 -18   -4.50    4.99
   7   8 -18   -0.31    1.09
  -7  -8  18    1.92    1.29
  -7  -8  18   -1.80    2.08
   8   8 -18    5.40    1.55
   8   8 -18    0.85    4.97
  -8  -8  18    0.34    2.22
  -8  -8  18    3.78    1.62
   9   8 -18   -0.18    1.14
   9   8 -18   -1.46    4.95
  -9  -8  18    3.61    1.87
  -9  -8  18    0.37    1.25
   9   7 -18   -4.30    4.62
   9   7 -18    0.50    1.07
  -9  -7  18    0.08    1.75
  -9  -7  18   -0.07    1.29
   9   6 -18    0.35    4.21
  -9  -6  18    1.07    1.70
   9   5 -18   -3.64    4.07
   9   5 -18    0.76    0.92
  -9  -5  18   -3.57    1.54
  -9  -5  18   -0.06    1.19
   9   4 -18    1.58    3.96
   9   4 -18    0.14    0.89
  -9  -4  18   -1.49    1.05
  -9  -4  18    0.07    1.44
   9   3 -18    0.56    0.85
  -9  -3  18   -0.06    1.04
   2  -9 -18    5.70    6.96
   2  -9 -18    0.40    1.12
  -2   9  18    0.36    1.77
   1  -9 -18  -10.96    7.14
   9   1 -18    0.28    3.46
  -1   9  18   -0.65    1.76
  -9  -1  18    1.70    1.37
   0  -9 -18    6.41    6.75
   9   0 -18    1.11    0.89
   9   0 -18   -0.87    3.36
  -9   0  18    1.61    1.39
  -9   0  18    0.69    1.02
   9  -1 -18   -1.68    3.25
   1   9 -18    0.75    4.35
   9  -1 -18    0.39    0.79
  -1  -9  18   -3.23    1.93
  -9   1  18    1.96    1.34
  -9   1  18    2.33    0.97
   9  -2 -18    1.10    0.91
   9  -2 -18    0.74    3.23
  -9   2  18    2.11    1.01
  -9   2  18    1.47    1.39
   9  -3 -18    5.29    3.16
   9  -3 -18    2.33    1.10
  -9   3  18    2.86    1.53
  -9   3  18    2.06    1.15
  -4  -9  18   -2.67    1.34
   5   9 -18    0.67    1.06
   5   9 -18   -7.02    4.94
  -5  -9  18    0.09    2.11
  -5  -9  18   -6.33    1.45
   6   9 -18    0.70    1.09
   6   9 -18    5.53    4.83
  -6  -9  18   -0.90    1.22
  -6  -9  18    0.09    2.18
   7   9 -18   -2.26    4.99
   7   9 -18    1.80    1.20
  -7  -9  18   -1.84    2.07
  -7  -9  18    0.80    1.29
   8   9 -18   -1.23    1.26
   8   9 -18    1.70    5.06
  -8  -9  18   -0.37    1.99
  -8  -9  18    0.79    1.33
   9   9 -18   -0.09    1.16
   9   9 -18   -1.64    5.19
  -9  -9  18    0.70    1.32
  -9  -9  18   -0.09    1.93
  10   9 -18    5.13    5.58
  10   9 -18    3.72    1.60
 -10  -9  18    3.23    1.82
 -10  -9  18    0.46    2.16
  10   8 -18    0.10    1.26
  10   8 -18   -0.80    4.96
 -10  -8  18    0.25    1.40
 -10  -8  18   -0.34    1.86
  10   7 -18    0.27    1.19
  10   7 -18    2.36    4.68
 -10  -7  18    0.08    1.66
 -10  -7  18   -1.60    1.47
  10   6 -18    0.99    4.39
 -10  -6  18    0.61    1.63
  10   5 -18   -2.31    4.20
  10   5 -18   -0.49    1.00
 -10  -5  18   -1.08    1.53
 -10  -5  18    0.07    1.31
  10   4 -18    0.47    1.05
 -10  -4  18    0.07    1.48
 -10  -4  18   -0.71    1.19
  10   3 -18   -0.78    1.00
 -10  -3  18    3.20    1.32
 -10  -3  18    2.58    1.46
   2 -10 -18   -1.48    1.24
  10   2 -18   -2.34    0.93
  -2  10  18    0.15    1.92
 -10  -2  18    3.52    1.32
 -10  -2  18   -2.92    1.10
   1 -10 -18    0.68    1.24
  10   1 -18    0.52    0.94
   1 -10 -18  -11.06    8.22
 -10  -1  18    0.07    1.10
  -1  10  18   -0.87    1.99
   0 -10 -18   -1.81    7.91
  -1 -10 -18   24.12    9.12
  10  -2 -18   -0.91    0.95
 -10   2  18   -1.17    1.42
  -2 -10  18   -0.48    1.53
   3  10 -18    9.86    4.84
 -10   3  18    3.45    2.13
  -3 -10  18   11.69    2.62
  -3 -10  18    4.36    2.13
   4  10 -18   -4.72    4.86
   4  10 -18    0.63    1.13
  -4 -10  18    1.77    2.25
  -4 -10  18    0.07    1.30
   5  10 -18   -1.09    4.89
   5  10 -18    0.95    1.15
  -5 -10  18   -0.79    2.09
  -5 -10  18   -0.54    1.25
   6  10 -18   -3.84    4.98
   6  10 -18    0.74    1.22
  -6 -10  18   -3.08    2.19
  -6 -10  18    2.41    1.31
   7  10 -18    1.98    5.12
   7  10 -18    1.38    1.21
  -7 -10  18    0.97    1.29
  -7 -10  18    0.10    2.15
   8  10 -18    1.59    5.45
   8  10 -18   -0.56    1.19
  -8 -10  18    0.10    2.17
  -8 -10  18    0.53    1.36
   9  10 -18    7.42    1.87
   9  10 -18    6.75    5.95
  -9 -10  18    3.03    1.99
  -9 -10  18    1.69    2.65
  10  10 -18   -6.01    5.63
  10  10 -18    2.12    1.32
 -10 -10  18    0.36    1.50
 -10 -10  18   -3.46    2.19
  11  10 -18    0.12    1.51
  11  10 -18   -3.64    5.80
 -11 -10  18    0.90    1.72
 -11 -10  18   -5.43    2.16
  11   9 -18    0.22    1.44
  11   9 -18   -2.05    5.58
 -11  -9  18    0.09    1.90
 -11  -9  18    2.30    1.62
  11   8 -18    0.41    5.24
  11   8 -18    1.68    1.35
 -11  -8  18    1.37    1.83
 -11  -8  18   -0.64    1.53
  11   7 -18    3.11    4.80
  11   7 -18    3.41    1.47
 -11  -7  18    0.08    1.86
 -11  -7  18    2.63    1.66
 -11  -6  18    0.08    1.62
  11   5 -18   -0.28    1.09
 -11  -5  18    0.41    1.35
 -11  -5  18    0.07    1.52
  11   4 -18    1.16    1.09
 -11  -4  18    0.39    1.34
 -11  -4  18    2.05    1.57
  11   3 -18   -2.43    1.14
   3 -11 -18   -2.02    1.35
 -11  -3  18    1.64    1.48
 -11  -3  18    1.06    1.28
  11   2 -18   -0.09    1.01
   2 -11 -18    1.30    1.34
  -2  11  18   -0.59    2.07
 -11  -2  18   -0.61    1.38
  11   1 -18    1.88    1.23
 -11  -1  18    1.73    1.54
   0 -11  18   -0.41    1.97
 -11   0  18    1.50    1.46
  -1 -11 -18    7.27    8.12
  -1 -11  18    0.99    1.93
   2  11 -18   -2.95    4.88
  -2 -11  18   -0.33    1.58
  -2 -11  18    0.11    2.17
   3  11 -18    4.99    5.15
  -3 -11  18   -0.84    1.37
  -3 -11  18   -0.21    2.07
 -11   3  18   -1.01    1.33
   4  11 -18   -1.98    1.27
   4  11 -18   -6.17    5.12
  -4 -11  18    0.31    2.26
  -4 -11  18   -3.84    1.40
   5  11 -18   -1.25    1.25
   5  11 -18    0.84    5.26
  -5 -11  18   -0.98    1.35
  -5 -11  18   -0.21    2.42
   6  11 -18    0.26    1.25
   6  11 -18   -5.02    5.40
  -6 -11  18    1.20    1.29
  -6 -11  18   -0.43    2.41
   7  11 -18   -1.55    5.66
   7  11 -18    3.71    1.45
  -7 -11  18    0.11    2.42
  -7 -11  18    1.79    1.47
   8  11 -18   -3.02    1.44
   8  11 -18  -20.04    6.20
  -8 -11  18   -9.70    2.43
  -8 -11  18   -3.77    1.40
   9  11 -18   -7.25    5.91
   9  11 -18    0.83    1.42
  -9 -11  18    3.34    1.64
  -9 -11  18    0.43    2.33
  10  11 -18    1.14    1.50
  10  11 -18   -8.60    6.01
 -10 -11  18   -0.43    2.38
 -10 -11  18    0.47    1.54
  11  11 -18    7.66    6.21
  11  11 -18    1.86    1.61
 -11 -11  18   -0.11    2.25
 -11 -11  18   -0.62    1.84
  12  11 -18    2.59    6.40
 -12 -11  18   -0.96    2.40
  12  10 -18    7.26    5.81
  12  10 -18    0.13    1.42
 -12 -10  18    0.10    2.04
  12   9 -18   -0.11    5.41
  12   9 -18   -1.10    1.50
 -12  -9  18    2.04    1.95
  12   8 -18    0.12    1.39
  12   8 -18   -3.40    5.36
 -12  -8  18   -1.99    1.84
  12   7 -18    3.21    1.62
 -12  -7  18    3.66    1.87
 -12  -6  18    0.39    1.75
 -12  -5  18   -0.76    1.52
   3 -12 -18   18.27    3.68
   3 -12 -18   -1.93    9.61
  -3  12  18   16.26    4.12
  -3  12  18    0.71    4.36
   2 -12 -18  -11.33    9.97
   2 -12 -18   10.08    2.57
  -2  12  18    8.05    3.11
   1 -12 -18    3.54    1.44
   1 -12 -18   -4.01    9.77
  -1  12  18   -3.82    2.37
   0 -12 -18   -2.93    9.39
   0 -12  18    0.92    2.13
   0  12  18    0.54    2.36
  -1 -12 -18   -0.56    9.14
   1  12 -18   -7.37    4.80
  -1 -12  18   -1.47    1.82
   2  12 -18    5.37    5.25
  -2 -12  18   -0.11    2.36
  -2 -12  18    1.34    1.70
   3  12 -18    3.52    5.59
  -3 -12  18   -1.11    2.62
  -3 -12  18    3.61    1.84
   4  12 -18    0.17    1.32
   4  12 -18    0.11    5.47
  -4 -12  18    1.26    1.42
  -4 -12  18    2.46    2.36
   5  12 -18   -0.54    1.21
   5  12 -18   -5.97    5.42
  -5 -12  18    0.11    2.33
  -5 -12  18   -1.30    1.37
   6  12 -18    1.41    1.71
  -6 -12  18   -3.14    2.75
  -6 -12  18    6.83    1.73
   7  12 -18   -0.97    1.34
   7  12 -18   -0.58    5.83
  -7 -12  18    1.29    2.65
  -7 -12  18    1.11    1.45
   8  12 -18    1.58    1.40
   8  12 -18    4.56    6.08
  -8 -12  18    1.17    2.53
  -8 -12  18    0.08    1.51
   9  12 -18    0.88    1.45
   9  12 -18   -5.97    6.30
  -9 -12  18    0.12    2.67
  -9 -12  18    0.09    1.64
  10  12 -18    3.73    6.60
  10  12 -18   -0.60    1.55
 -10 -12  18    0.35    2.55
 -10 -12  18    0.10    1.65
  11  12 -18   -0.26    1.49
  11  12 -18    6.99    6.62
 -11 -12  18    0.11    1.83
 -11 -12  18   -8.69    2.58
  12  12 -18   -6.09    6.83
 -12 -12  18    0.46    2.54
   3 -13 -18   -5.10    1.73
  -3  13  18   -0.89    2.72
  -3  13  18   -0.34    2.79
   2 -13 -18    0.08    1.62
   2 -13 -18  -12.19   10.54
  -2  13  18    0.11    2.81
  -2  13  18    0.82    2.66
   1 -13 -18   21.09   10.79
   1 -13 -18    7.49    2.33
  -1  13  18    1.11    3.16
   0 -13 -18  -13.15   11.24
   0 -13  18   -4.71    2.06
   0  13  18   -0.35    2.62
  -1 -13 -18   14.66   10.45
  -1 -13  18    3.23    2.25
   2  13 -18   -2.62    5.28
  -2 -13  18   -2.70    1.55
  -2 -13  18   -1.42    2.35
   3  13 -18   -6.02    5.83
   3  13 -18    0.82    1.36
  -3 -13  18   -2.49    2.64
  -3 -13  18    0.31    1.54
   4  13 -18   -1.83    1.41
   4  13 -18  -19.48    6.35
  -4 -13  18   -6.71    2.76
  -4 -13  18    1.60    1.52
   5  13 -18   -0.47    1.32
   5  13 -18   -0.96    5.73
  -5 -13  18    0.30    1.37
  -5 -13  18    0.12    2.72
   6  13 -18    0.78    1.29
   6  13 -18    0.36    6.04
  -6 -13  18    2.89    2.80
  -6 -13  18    0.15    1.41
   7  13 -18    0.31    1.46
   7  13 -18   -4.90    6.19
  -7 -13  18    2.11    1.55
  -7 -13  18   -1.27    2.80
   8  13 -18    7.21    6.47
   8  13 -18    0.99    1.43
  -8 -13  18   -4.69    2.83
  -8 -13  18   -0.09    1.55
   9  13 -18  -22.66    7.35
   9  13 -18   -1.88    1.74
  -9 -13  18    0.13    3.07
  -9 -13  18   -6.09    2.11
  10  13 -18   -0.51    1.73
  10  13 -18    2.89    6.89
 -10 -13  18   -0.52    1.89
 -10 -13  18    0.13    2.79
  11  13 -18    0.85    1.72
  11  13 -18   -4.02    6.96
 -11 -13  18    1.86    2.61
  12  13 -18   -2.88    7.09
 -12 -13  18    0.37    2.69
   3 -14 -18   -6.97   10.47
   3 -14 -18   -4.51    1.76
  -3  14  18   -1.93    3.00
  -3  14  18    0.26    2.98
   2 -14 -18    1.46    1.75
   2 -14 -18   -2.90   11.16
  -2  14  18    2.90    2.99
  -2  14  18   -0.62    3.16
   1 -14 -18   -4.23   12.22
   1 -14 -18   -3.03    1.78
  -1  14  18   -0.99    2.91
   0 -14 -18   -1.23   11.37
   0 -14 -18    1.00    1.77
   0  14  18   -1.68    2.87
  -1 -14 -18   -2.74   11.33
   3  14 -18    1.12    1.46
   3  14 -18    7.32    5.80
   4  14 -18   -0.85    1.30
   4  14 -18    0.26    5.98
  -4 -14  18   -1.14    2.58
  -4 -14  18    2.30    1.45
   5  14 -18    5.26    6.21
   5  14 -18    3.11    1.30
  -5 -14  18   -5.21    2.73
  -5 -14  18   -3.91    1.38
   6  14 -18   -0.21    1.45
   6  14 -18   -7.04    6.11
  -6 -14  18    1.16    1.42
  -6 -14  18    1.62    2.84
   7  14 -18   -6.99    6.67
   7  14 -18   -0.43    1.58
  -7 -14  18   -2.92    1.58
  -7 -14  18   -3.84    3.07
   8  14 -18    1.04    1.58
   9  14 -18   -0.12    1.59
   9  14 -18    2.04    6.93
  -9 -14  18   -4.50    3.02
  -9 -14  18   -1.69    1.79
  10  14 -18    1.08    1.74
  10  14 -18   -2.63    7.27
 -10 -14  18    0.54    2.87
 -10 -14  18    1.83    1.84
  11  14 -18    0.89    1.83
  11  14 -18   -3.51    7.28
 -11 -14  18    2.29    2.89
 -12 -14  18   -0.13    2.86
   4 -15 -18   -1.88   10.39
   4 -15 -18   -0.39    1.92
   3 -15 -18   13.13   11.07
   3 -15 -18    4.41    2.08
  -3  15  18   -0.44    3.68
  -3  15  18   -2.46    3.44
   2 -15 -18   -5.67    1.91
   2 -15 -18   -1.57   12.36
  -2  15  18   -0.26    3.34
  -2  15  18    2.07    3.38
   1 -15 -18   -9.67   12.92
   1 -15 -18    0.10    1.89
  -1  15  18   -0.68    3.26
   0 -15 -18    2.42    2.06
   0 -15 -18   10.38   12.84
   0  15  18   -1.58    3.25
  -1 -15 -18  -10.99   12.87
   4 -16 -18  -20.51   11.47
   4 -16 -18    3.71    2.24
   3 -16 -18   -2.34    2.14
  -3  16  18    0.81    3.84
  -3  16  18    4.43    4.06
  -2  16  18   -2.80    4.21
   1 -16 -18    2.79    2.61
  -1  16  18    4.55    4.02
  -1  16  18   -7.69    4.34
  -1 -16 -18  153.22   41.02
   4 -17 -18    3.39    2.60
   4 -17 -18  -17.32   12.69
  -4  17  18   11.78    4.80
   3 -17 -18    5.57   13.05
   3 -17 -18    1.36    2.28
  -3  17  18    0.72    4.20
  -3  17  18    0.67    4.40
   2 -17 -18   14.11   14.36
   2 -17 -18    0.89    2.36
  -2  17  18   -1.88    4.29
  -2  17  18   -1.40    4.26
   1 -17 -18    2.44    2.45
   1 -17 -18   -1.05   14.39
  -1  17  18   -3.57    4.30
  -1  17  18    6.13    4.18
   0 -17 -18   -0.94    2.34
   0 -17 -18  -10.09   15.72
   0  17  18    3.80    4.15
   0  17  18   -3.15    4.27
  -1 -17 -18   10.78   15.79
   4 -18 -18    1.24    2.71
  -4  18  18   -0.19    5.10
  -4  18  18  -11.36    4.93
   3 -18 -18    1.68    2.53
   3 -18 -18  -11.45   14.36
  -3  18  18   -4.42    4.95
  -3  18  18    2.61    4.95
   2 -18 -18    6.69   14.90
   2 -18 -18   -0.14    2.61
  -2  18  18    3.11    4.72
  -2  18  18    0.58    4.73
   1 -18 -18   -0.71    2.63
  -1  18  18   13.60    4.98
  -1  18  18    0.37    4.70
   0 -18 -18  -19.29   15.08
   0 -18 -18    0.30    2.63
   0  18  18   -1.44    4.80
  -1   0  19   12.46    3.67
   1   1 -19    0.71    3.22
  -1  -1  19   -1.34    1.39
  -1   1  19   -0.79    1.21
   2   1 -19    0.16    3.24
  -2  -1  19    0.57    1.19
  -1   2  19    0.14    1.21
  -2  -1  19   -0.55    1.52
   2   0 -19    0.56    3.14
  -2   0  19   -0.62    1.46
  -2   0  19   -0.88    1.24
   1   2 -19   -0.27    3.33
   2  -1 -19    0.63    3.11
  -2   1  19   -1.02    1.10
  -2   1  19   -0.39    1.49
  -1  -2  19    0.68    1.41
  -1  -2  19    0.85    1.32
   2   2 -19    2.75    3.39
   2  -2 -19    3.74    3.12
  -2  -2  19   -0.95    1.52
  -2   2  19   -0.17    1.04
  -2  -2  19    1.64    1.23
  -2   2  19   -0.47    1.52
   2  -3 -19   17.77    6.59
   3   2 -19   11.56    6.69
  -3  -2  19   22.88    5.60
  -2   3  19   15.97    5.43
  -3  -2  19   24.18    5.30
   3   1 -19    6.47    3.27
  -1   3  19    0.33    1.39
  -3  -1  19    2.85    1.60
  -3  -1  19    2.44    1.29
   3   0 -19    9.62    4.21
  -3   0  19    9.91    2.66
  -3   0  19    7.39    2.90
   3  -1 -19   -2.52    3.14
   1   3 -19   -2.02    3.40
  -1  -3  19    2.22    1.50
  -1  -3  19    1.03    1.58
  -3   1  19    2.22    1.45
  -3   1  19    1.40    1.06
   2   3 -19   14.53    6.66
   3  -2 -19   16.83    6.53
  -3   2  19   18.30    5.57
  -3   2  19   21.45    5.22
  -2  -3  19   22.17    5.19
  -2  -3  19   14.54    5.46
   3   3 -19   -0.87    3.43
   3  -3 -19    0.07    3.02
  -3   3  19    0.36    1.46
  -3  -3  19   -0.18    1.16
  -3  -3  19    1.06    1.53
  -3   3  19   -1.23    0.85
  -4  -3  19   75.93   19.30
  -4  -2  19    3.81    1.72
  -2   4  19    4.66    1.75
  -4  -2  19    9.06    2.15
   4   1 -19   10.87    5.58
  -4  -1  19   20.58    4.62
  -1   4  19    8.03    4.50
  -4  -1  19   19.09    4.28
   4   0 -19   -2.55    3.00
  -4   0  19    0.62    1.46
  -4   0  19   -1.59    0.95
   1   4 -19   11.66    6.10
   4  -1 -19   20.27    5.76
  -4   1  19   13.32    4.89
  -1  -4  19   16.41    4.68
  -1  -4  19   21.32    4.89
  -4   1  19   15.69    4.57
   2   4 -19   -3.17    3.89
   4  -2 -19    3.73    3.22
  -4   2  19    5.06    1.48
  -2  -4  19    3.44    2.03
  -4   2  19    4.65    1.96
  -2  -4  19    5.77    1.76
   4  -3 -19   19.18    9.19
  -4   3  19   15.27    8.39
  -4   3  19   20.22    7.84
  -3  -4  19   37.54    7.76
  -3  -4  19   45.86    8.23
   4  -4 -19   -4.42    2.96
   4   4 -19   -2.82    3.46
  -4   4  19    0.58    0.73
  -4  -4  19   -3.35    1.55
  -4  -4  19    0.36    1.11
  -4   4  19   -0.40    1.45
   5   4 -19    7.23    2.48
   5   4 -19   10.75    4.58
  -5  -4  19   11.24    2.96
  -5  -4  19    9.49    2.59
   5   3 -19   24.55    6.73
  -5  -3  19   21.20    5.60
  -5  -3  19   15.83    5.26
   5   2 -19   18.36    4.15
  -5  -2  19   15.40    4.27
  -5  -2  19   10.55    4.60
   5   1 -19    8.20    2.16
   5   1 -19    5.52    4.09
  -5  -1  19    7.54    2.21
  -5  -1  19    6.70    2.61
   5   0 -19   11.57    3.91
  -5   0  19   15.50    4.53
  -5   0  19   16.18    4.07
   1   5 -19   18.03    4.65
   5  -1 -19    4.89    2.01
   5  -1 -19    2.21    3.79
  -5   1  19    7.77    2.11
  -1  -5  19    8.55    2.71
  -5   1  19    8.27    2.52
   5  -2 -19   12.46    3.31
   5  -2 -19   11.80    4.88
   2   5 -19   -0.82    5.46
  -2  -5  19    7.07    3.89
  -5   2  19   16.07    3.94
  -5   2  19   15.70    3.44
   5  -3 -19   17.96    4.40
   5  -3 -19   13.88    5.74
   3   5 -19   12.56    6.35
  -5   3  19   13.85    4.51
  -3  -5  19   17.69    4.86
  -5   3  19   18.99    5.00
   5  -4 -19    4.65    1.74
   4   5 -19    5.80    4.23
  -5   4  19    6.00    1.82
  -4  -5  19   11.25    2.47
  -5   4  19    4.13    2.30
   5   5 -19   -0.06    0.89
   5   5 -19    0.08    3.88
  -5  -5  19   -0.62    1.71
   6   4 -19   -0.06    0.99
   6   4 -19    2.79    3.68
  -6  -4  19    5.44    1.69
   6   3 -19    6.20    1.62
   6   3 -19   -7.69    4.10
  -6  -3  19    7.80    1.68
  -6  -3  19    2.63    2.07
   6   2 -19   14.46    4.70
   6   2 -19   24.80    6.32
  -6  -2  19   22.64    5.14
  -6  -2  19   15.84    4.80
   6   1 -19   -0.74    3.43
   6   1 -19    2.89    1.04
  -6  -1  19    1.89    1.61
  -6  -1  19    3.71    1.18
   6   0 -19    0.71    3.24
   6   0 -19   -0.36    0.64
  -6   0  19    0.66    1.50
  -6   0  19   -0.27    0.85
   1   6 -19    3.21    3.91
   6  -1 -19   -1.12    3.20
   6  -1 -19    3.09    0.88
  -1  -6  19    1.26    1.66
  -6   1  19    1.24    1.55
  -1  -6  19    0.28    1.80
  -6   1  19    2.05    1.00
   6  -2 -19   12.25    3.22
   2   6 -19    1.14    5.46
   6  -2 -19    6.38    4.90
  -6   2  19   17.46    3.88
  -6   2  19   12.63    3.31
  -2  -6  19   14.25    3.46
  -2  -6  19    6.80    3.81
   3   6 -19    0.63    4.14
   6  -3 -19   -2.17    3.12
   6  -3 -19    4.73    1.10
  -6   3  19    4.44    1.81
  -3  -6  19    2.07    1.64
  -3  -6  19   -0.33    1.99
  -6   3  19    3.93    1.20
   4   6 -19    0.92    4.15
  -6   4  19    4.81    1.84
  -6   4  19    4.14    1.20
  -4  -6  19    0.91    2.05
  -6  -6  19    0.06    1.13
   7   6 -19   -4.19    4.36
  -7  -6  19    0.57    1.87
   7   5 -19    0.60    0.99
  -7  -5  19    0.12    1.01
   7   3 -19    3.93    4.97
  -7  -3  19   15.10    3.50
   7   2 -19    2.72    1.00
   7   2 -19   -0.36    3.75
  -7  -2  19    1.04    1.62
  -7  -2  19    2.11    1.07
   7   1 -19    4.70    1.41
   7   1 -19   -1.11    3.81
  -7  -1  19    3.43    1.44
  -7  -1  19    7.55    1.99
   7   0 -19   -1.13    3.35
   0  -7 -19    2.77    5.16
   7   0 -19    1.81    0.74
  -7   0  19   -0.97    0.86
  -7   0  19    0.60    1.48
   7  -1 -19    6.91    1.45
   7  -1 -19   -1.15    3.58
   1   7 -19    0.31    4.42
  -1  -7  19    1.61    2.27
  -1  -7  19    2.71    2.03
  -7   1  19    4.61    2.03
  -7   1  19    5.36    1.49
   2   7 -19   -1.58    4.20
   7  -2 -19   -2.14    3.18
   7  -2 -19    2.13    0.80
  -2  -7  19   -0.08    1.26
  -7   2  19    1.72    1.53
  -7   2  19    2.29    0.91
  -2  -7  19    0.55    1.87
   7  -3 -19   10.72    4.14
   7  -3 -19   10.25    2.54
   3   7 -19    6.95    5.09
  -7   3  19   11.87    3.06
  -3  -7  19    0.09    3.08
  -7   3  19    9.77    2.57
   5   7 -19    0.49    0.89
  -5  -7  19    0.38    1.24
   6   7 -19    0.71    1.10
   6   7 -19    1.08    4.51
  -6  -7  19    0.06    1.21
  -6  -7  19    0.09    1.89
   7   7 -19   -1.79    1.85
   7   7 -19    7.51    5.01
  -7  -7  19    0.57    1.44
   8   7 -19    0.66    4.94
   8   7 -19    7.80    1.79
  -8  -7  19    0.52    2.42
  -8  -7  19    5.22    1.86
   8   6 -19   -1.98    4.94
  -8  -6  19   -0.08    1.91
   8   5 -19   -0.73    1.04
   8   5 -19    0.51    4.38
  -8  -5  19    0.08    1.68
  -8  -5  19    0.83    1.19
   8   4 -19    1.11    1.00
  -8  -4  19   -0.30    1.07
  -8  -4  19    2.90    1.63
   1  -8 -19    3.20    6.47
   8   1 -19    0.58    3.76
   8   1 -19    1.63    0.83
  -8  -1  19    1.85    0.97
  -8  -1  19   -0.97    1.54
   0  -8 -19    4.29    5.81
   8   0 -19   -1.03    0.82
   8   0 -19    0.55    3.63
  -8   0  19    0.14    1.47
  -8   0  19    1.07    0.94
   8  -1 -19   -0.24    0.79
   8  -1 -19    1.93    3.53
  -8   1  19    0.20    1.50
  -8   1  19    0.29    0.91
  -1  -8  19   -0.10    1.69
   8  -2 -19    2.64    1.12
   8  -2 -19    3.13    3.44
  -8   2  19    3.28    1.75
  -8   2  19    2.79    1.18
   8  -3 -19    2.26    3.19
   8  -3 -19    0.40    0.78
  -8   3  19    0.87    0.87
  -8   3  19    0.73    1.56
  -4  -8  19    1.32    1.40
   5   8 -19    0.47    4.54
   5   8 -19   -1.04    1.05
  -5  -8  19   -1.32    1.26
  -5  -8  19    0.18    2.00
   6   8 -19   -7.90    4.90
   6   8 -19    1.39    1.13
  -6  -8  19   -1.28    2.02
  -6  -8  19   -0.07    1.31
   7   8 -19    5.27    1.60
   7   8 -19    3.93    4.91
  -7  -8  19    4.72    1.72
  -7  -8  19    0.09    2.43
   8   8 -19   -3.41    5.00
   8   8 -19    0.17    1.22
  -8  -8  19   -1.68    1.31
  -8  -8  19    0.92    1.93
   9   8 -19    1.39    1.53
   9   8 -19    3.71    5.33
  -9  -8  19    4.20    1.64
  -9  -8  19    3.98    2.17
   9   7 -19    2.15    5.00
   9   7 -19   -1.14    1.22
  -9  -7  19    2.31    1.35
  -9  -7  19   -0.09    1.90
   9   6 -19   -0.09    4.68
  -9  -6  19   -0.08    1.72
   9   5 -19   -2.20    4.40
   9   5 -19    0.16    1.07
  -9  -5  19   -0.14    1.26
  -9  -5  19    0.08    1.73
   9   4 -19    3.96    4.41
   9   4 -19    2.81    1.20
  -9  -4  19    0.82    1.81
  -9  -4  19    0.39    1.24
   9   3 -19   -2.99    3.99
   9   3 -19   -1.09    0.89
  -9  -3  19   -0.95    1.48
  -9  -3  19    0.06    1.09
   9   2 -19   -0.14    0.94
  -9  -2  19    0.06    1.02
   1  -9 -19    0.08    7.18
   9   0 -19    0.50    3.80
   0  -9 -19    5.41    6.87
  -9   0  19    2.25    1.58
   9  -1 -19    1.80    0.93
   9  -1 -19    2.48    3.65
  -9   1  19    1.15    1.07
  -9   1  19    1.01    1.48
   9  -2 -19   -0.27    0.78
   9  -2 -19   -2.78    3.52
  -2  -9  19   -0.66    1.60
  -9   2  19   -0.72    0.95
  -9   2  19    0.20    1.50
   9  -3 -19   -1.33    3.44
   9  -3 -19   -1.07    0.85
  -9   3  19   -0.17    0.96
  -3  -9  19    2.94    2.05
  -3  -9  19   -0.31    1.48
  -9   3  19    0.07    1.56
   4   9 -19   10.98    5.30
  -4  -9  19    6.90    2.06
  -4  -9  19    0.10    2.62
   5   9 -19    1.38    4.87
   5   9 -19   -0.47    1.17
  -5  -9  19    1.28    2.15
  -5  -9  19    1.18    1.31
   6   9 -19    5.64    4.88
   6   9 -19    0.08    1.08
  -6  -9  19    0.89    1.33
  -6  -9  19    0.10    2.17
   7   9 -19   -1.63    1.15
   7   9 -19   -1.66    5.20
  -7  -9  19    0.07    1.28
  -7  -9  19   -0.10    2.17
   8   9 -19   -3.61    5.33
   8   9 -19    4.22    1.36
  -8  -9  19    0.69    1.47
  -8  -9  19    1.38    2.12
   9   9 -19   -2.50    5.80
   9   9 -19    1.37    1.31
  -9  -9  19    0.16    1.47
  -9  -9  19   -0.10    2.08
  10   9 -19   -6.37    5.67
  10   9 -19    0.21    1.32
 -10  -9  19    0.10    2.17
 -10  -9  19   -2.93    1.68
  10   8 -19   -2.10    5.62
  10   8 -19   -0.10    1.32
 -10  -8  19    0.18    1.99
 -10  -8  19   -1.63    1.56
  10   7 -19    4.40    5.16
  10   7 -19    1.69    1.27
 -10  -7  19    0.08    1.45
 -10  -7  19    0.09    1.88
  10   6 -19    0.57    4.72
 -10  -6  19   -0.08    1.65
  10   5 -19    0.45    4.56
  10   5 -19   -0.09    1.07
 -10  -5  19   -4.44    1.37
 -10  -5  19   -0.08    1.59
  10   4 -19    1.83    4.47
  10   4 -19   -0.08    1.06
 -10  -4  19   -0.15    1.69
 -10  -4  19    0.07    1.23
  10   3 -19    0.41    4.16
  10   3 -19    1.03    0.99
 -10  -3  19    0.07    1.59
 -10  -3  19   -0.50    1.26
  10   2 -19    0.48    4.00
  10   2 -19    0.08    0.95
 -10  -2  19    0.27    1.19
 -10  -2  19   -3.79    1.54
  10   1 -19    2.75    1.03
  10   1 -19   -2.23    4.08
   1 -10 -19  -12.63    8.55
 -10  -1  19    0.07    1.21
 -10  -1  19    1.99    1.47
  -1  10  19   -0.09    2.02
   0 -10 -19   35.05   11.75
   1  10 -19   10.97    4.93
  -1 -10  19    3.58    2.38
   2  10 -19    2.73    4.89
  10  -2 -19    1.72    3.66
  -2 -10  19    0.21    2.15
  -2 -10  19    2.49    1.73
 -10   2  19   -0.94    1.49
  10  -3 -19   -0.85    1.00
   3  10 -19   -0.22    5.02
  10  -3 -19   -1.71    3.41
  -3 -10  19   -0.72    1.65
 -10   3  19   -0.74    1.52
  -3 -10  19    0.10    2.27
   4  10 -19    2.93    4.97
  -4 -10  19    0.10    2.17
  -4 -10  19    1.04    1.43
   5  10 -19    0.91    1.23
   5  10 -19    1.88    4.99
  -5 -10  19    1.45    1.37
  -5 -10  19   -5.79    2.27
   6  10 -19    0.64    5.19
   6  10 -19    0.26    1.20
  -6 -10  19    2.99    1.36
  -6 -10  19   -3.38    2.28
   7  10 -19   -0.11    5.57
   7  10 -19    5.55    1.58
  -7 -10  19    4.58    1.70
  -7 -10  19   -0.11    2.48
   8  10 -19    0.20    1.38
   8  10 -19   -7.58    6.09
  -8 -10  19    0.11    2.26
  -8 -10  19    1.11    1.47
   9  10 -19   10.49    5.94
   9  10 -19   -0.31    1.38
  -9 -10  19   -0.51    1.58
  -9 -10  19   -2.13    2.26
  10  10 -19   -0.44    1.46
  10  10 -19   -3.67    6.13
 -10 -10  19    1.72    1.70
 -10 -10  19   -0.11    2.30
  11  10 -19    1.22    1.43
  11  10 -19    3.26    6.20
 -11 -10  19    0.42    2.17
 -11 -10  19   -0.10    1.76
  11   9 -19   -1.37    5.76
  11   9 -19    1.02    1.44
 -11  -9  19    1.89    1.69
 -11  -9  19    0.10    2.13
  11   8 -19   -1.73    5.39
  11   8 -19    2.46    1.49
 -11  -8  19    0.09    2.01
 -11  -8  19    0.10    1.58
  11   7 -19    4.33    5.22
  11   7 -19   -0.61    1.29
 -11  -7  19    0.09    1.61
 -11  -7  19   -0.09    1.93
  11   6 -19   -0.39    4.87
  11   6 -19   -0.10    1.23
 -11  -6  19   -0.08    1.66
  11   5 -19   -1.87    4.59
  11   5 -19    1.77    1.21
 -11  -5  19    0.08    1.56
 -11  -5  19   -1.10    1.48
  11   4 -19   -0.55    1.08
 -11  -4  19   -1.57    1.62
 -11  -4  19   -0.32    1.29
  11   3 -19   -1.51    1.09
 -11  -3  19    0.08    1.27
 -11  -3  19    0.07    1.49
  11   2 -19    1.31    1.06
 -11  -2  19    0.30    1.28
 -11  -2  19    2.78    1.60
  11   1 -19   -4.65    1.03
 -11  -1  19   -0.59    1.22
 -11  -1  19    1.68    1.52
  11   0 -19    3.57    1.75
 -11   0  19    6.81    2.05
   1  11 -19    3.46    4.84
 -11   1  19    1.29    1.50
  -1 -11  19   -1.25    1.85
   2  11 -19   -2.87    5.34
  -2 -11  19    0.35    1.66
  -2 -11  19    1.45    2.20
   3  11 -19   -6.59    5.33
  -3 -11  19   -1.55    1.67
  -3 -11  19    0.11    2.29
   4  11 -19   -0.35    1.19
   4  11 -19    0.80    5.46
  -4 -11  19    2.65    1.53
  -4 -11  19   -1.66    2.31
   5  11 -19    1.58    5.38
   5  11 -19   -0.88    1.28
  -5 -11  19    1.80    1.48
  -5 -11  19    0.45    2.42
   6  11 -19    9.78    5.68
   6  11 -19    2.66    1.32
  -6 -11  19    0.07    1.36
  -6 -11  19    0.11    2.37
   7  11 -19   26.91    6.37
   7  11 -19    0.96    1.83
  -7 -11  19    6.74    2.05
  -7 -11  19    4.92    3.16
   8  11 -19    2.47    1.40
   8  11 -19   -7.68    5.86
  -8 -11  19   -2.63    2.49
  -8 -11  19    1.00    1.56
   9  11 -19    2.32    6.22
   9  11 -19    0.11    1.45
  -9 -11  19   -0.11    2.39
  -9 -11  19   -2.14    1.60
  10  11 -19   -0.58    1.52
  10  11 -19    6.36    6.39
 -10 -11  19   -2.83    2.54
 -10 -11  19    0.70    1.77
  11  11 -19   42.07    8.58
  11  11 -19    7.59    4.33
 -11 -11  19    8.80    4.94
 -11 -11  19   20.22    4.61
  12  11 -19    7.29    6.52
  12  11 -19   -0.14    1.72
 -12 -11  19   -0.11    2.53
  12  10 -19    2.48    6.69
  12  10 -19    1.47    2.00
 -12 -10  19    4.56    2.56
  12   9 -19   10.01    5.89
  12   9 -19   -1.39    1.58
 -12  -9  19    0.40    2.01
  12   8 -19   -1.93    1.45
  12   8 -19  -10.88    5.65
 -12  -8  19   -1.58    1.98
  12   7 -19   -4.58    5.26
 -12  -7  19   -0.35    1.87
  12   6 -19   -1.54    1.35
 -12  -6  19    0.25    1.76
  12   5 -19    1.90    1.46
 -12  -5  19    0.40    1.75
  12   4 -19   -1.02    1.26
 -12  -4  19    0.62    1.60
 -12  -3  19    0.97    1.60
   2 -12 -19   -3.16    1.48
   2 -12 -19  -12.99    9.97
 -12  -2  19   -0.73    1.47
   1 -12 -19   11.07    2.48
   1 -12 -19   12.10   10.02
 -12  -1  19    6.98    2.52
  -1  12  19    1.25    3.02
   0 -12 -19    7.90    9.60
 -12   0  19    0.07    1.49
  -1 -12 -19    0.11    9.36
 -12   1  19    2.61    1.88
  -1 -12  19    4.78    2.19
   2  12 -19   -4.02    5.47
  -2 -12  19    2.36    2.41
  -2 -12  19   -3.13    1.81
   3  12 -19    4.57    5.40
  -3 -12  19   -2.43    1.66
  -3 -12  19   -5.18    2.45
   4  12 -19   -9.09    5.83
   4  12 -19   -0.09    1.24
  -4 -12  19   -0.47    2.38
  -4 -12  19    2.20    1.56
   5  12 -19    2.50    1.82
  -5 -12  19   -1.33    2.97
  -5 -12  19    9.68    2.02
   6  12 -19    0.48    1.29
   6  12 -19    1.56    5.93
  -6 -12  19    0.23    1.43
  -6 -12  19   -0.49    2.68
   7  12 -19    1.13    1.38
   7  12 -19    3.68    6.18
  -7 -12  19    0.25    1.50
  -7 -12  19   -3.35    2.71
   8  12 -19   -1.65    6.40
   8  12 -19    0.43    1.48
  -8 -12  19    3.37    1.74
  -8 -12  19    0.12    2.70
   9  12 -19    0.69    1.46
   9  12 -19    1.04    6.60
  -9 -12  19    1.85    2.67
  -9 -12  19    1.45    1.66
  10  12 -19    2.50    7.57
  10  12 -19   -1.13    2.22
 -10 -12  19   10.34    2.63
 -10 -12  19   18.83    3.59
  11  12 -19    1.23    1.75
  11  12 -19   18.70    7.13
 -11 -12  19    0.37    2.63
 -11 -12  19   -1.35    2.03
  12  12 -19    9.25    7.16
  12  12 -19   -0.30    1.86
 -12 -12  19   -0.12    2.59
   2 -13 -19   -9.16   11.20
   2 -13 -19   -4.03    1.76
  -2  13  19    5.02    2.73
  -2  13  19    1.63    2.98
   0 -13 -19    9.32   11.13
  -1 -13 -19   28.59   10.78
  -1 -13  19    2.27    2.71
   2  13 -19    4.45    5.59
  -2 -13  19    3.13    1.85
  -2 -13  19   -2.99    2.56
   3  13 -19   -4.67    5.76
  -3 -13  19    0.34    1.62
  -3 -13  19    1.13    2.55
   4  13 -19   -5.31    6.09
   4  13 -19    0.95    1.33
  -4 -13  19   -0.08    1.60
  -4 -13  19   -0.38    2.73
   5  13 -19   11.99    6.10
   5  13 -19    0.30    1.36
  -5 -13  19    0.39    2.84
  -5 -13  19    0.08    1.58
   6  13 -19   -1.14    1.52
   6  13 -19   -4.81    6.38
  -6 -13  19    0.13    2.99
  -6 -13  19    4.30    1.62
   7  13 -19   -2.04    1.51
   7  13 -19    3.26    6.49
  -7 -13  19   -0.80    2.95
  -7 -13  19   -4.51    1.64
   8  13 -19    0.58    1.47
   8  13 -19  -12.81    7.00
  -8 -13  19   -2.47    1.73
  -8 -13  19   -0.54    2.96
   9  13 -19   -1.69    1.79
   9  13 -19   -2.33    7.16
  -9 -13  19   -7.49    1.93
  -9 -13  19   -0.13    2.99
  10  13 -19    1.84    1.72
  10  13 -19   -0.56    7.24
 -10 -13  19    2.20    1.94
 -10 -13  19   -3.05    2.80
  11  13 -19   -1.13    7.10
  11  13 -19   -0.86    1.89
 -11 -13  19    0.12    2.04
 -11 -13  19   -6.63    2.92
  12  13 -19    1.89    7.56
 -12 -13  19    0.13    2.77
   2 -14 -19   -2.98    1.81
   2 -14 -19    4.78   11.20
  -2  14  19    0.24    2.98
  -2  14  19    1.91    3.17
   1 -14 -19    0.10    1.75
   1 -14 -19   -5.07   11.73
  -1  14  19    2.01    2.85
   0 -14 -19   12.69   11.62
   0  14  19    0.92    2.87
  -1 -14 -19    7.40   11.74
   2  14 -19   -4.91    5.75
   3  14 -19    2.79    1.44
   3  14 -19    9.35    6.01
  -3 -14  19    0.08    1.67
  -3 -14  19    2.65    2.71
   4  14 -19    1.36    6.18
   4  14 -19   -0.90    1.32
  -4 -14  19   -1.40    1.55
  -4 -14  19   -0.13    2.87
   5  14 -19   -9.51    6.68
   5  14 -19   -1.14    1.44
  -5 -14  19    0.08    1.52
  -5 -14  19   -0.14    2.80
   6  14 -19   -1.49    6.59
   6  14 -19   -1.72    1.46
  -6 -14  19    1.66    1.62
  -6 -14  19   -2.12    3.17
   7  14 -19   -1.03    1.73
  -7 -14  19   -5.61    1.99
  -7 -14  19    2.60    3.67
   8  14 -19    1.09    1.57
   8  14 -19   -1.26    7.10
  -8 -14  19    0.15    3.15
  -8 -14  19   -1.13    1.80
   9  14 -19    0.64    1.65
   9  14 -19   -8.76    7.48
  -9 -14  19   -1.05    1.81
  -9 -14  19    0.72    3.12
  10  14 -19   -1.24    1.82
  10  14 -19    0.59    7.19
 -10 -14  19   -0.14    3.22
 -10 -14  19   -1.25    1.98
  11  14 -19    6.24    7.75
  11  14 -19    0.31    1.77
 -11 -14  19   -3.40    3.08
   2 -15 -19   -6.87   12.11
   2 -15 -19   -4.04    1.96
  -2  15  19    1.26    3.55
  -2  15  19    4.35    3.41
   1 -15 -19   -5.15   12.41
   1 -15 -19   -5.31    1.95
  -1  15  19    2.11    3.32
   0 -15 -19    3.31   12.79
   0  15  19    5.50    3.55
  -1 -15 -19    7.97   12.90
   9  15 -19    0.94    1.73
  10  15 -19   -2.93    1.83
  10  15 -19   -0.31    7.97
 -10 -15  19    1.08    3.26
   3 -16 -19    6.47    2.52
   3 -16 -19  -16.48   12.72
   2 -16 -19   -0.77   12.90
   2 -16 -19   -3.78    2.18
  -2  16  19    3.71    3.86
  -2  16  19   -0.95    3.89
   1 -16 -19   -0.94    2.10
   1 -16 -19   -9.92   14.03
  -1  16  19    2.00    3.76
  -1  16  19    3.17    3.72
   0 -16 -19    5.31   14.16
   0  16  19    0.65    3.50
  -1 -16 -19   16.03   14.69
   3 -17 -19    0.13    2.34
   3 -17 -19   -3.84   13.18
   2 -17 -19  -10.27   14.21
   2 -17 -19    1.40    2.41
  -2  17  19    4.98    4.36
  -2  17  19   -7.39    4.42
   1 -17 -19   -2.73    2.41
   1 -17 -19   -9.08   14.61
  -1  17  19    1.34    4.11
  -1  17  19    0.90    4.14
   0 -17 -19    0.73   15.50
   0  17  19   -3.10    4.00
  -1 -17 -19   10.56   15.96
   3 -18 -19    4.45    2.65
  -3  18  19   -7.13    4.95
   2 -18 -19    0.14    2.55
  -2  18  19    6.10    4.50
  -2  18  19   -2.82    4.97
   1 -18 -19    1.33    2.69
  -1  18  19   -5.72    4.85
  -1   0  20    1.39    1.48
   1   1 -20    5.00    3.49
  -1  -1  20    5.16    1.78
  -1   1  20    2.25    1.68
   2   1 -20    0.17    3.43
  -2  -1  20   -0.51    1.64
  -1   2  20    1.67    1.38
  -2  -1  20   -1.35    1.35
   2   0 -20   -0.17    3.34
  -2   0  20    0.50    1.63
  -2   0  20    0.46    1.20
   1   2 -20   -2.77    3.60
   2  -1 -20   -4.49    3.47
  -1  -2  20   -0.49    1.61
  -2   1  20    0.25    1.64
  -2   1  20   -0.25    1.23
   2   2 -20  -10.17    4.17
   2  -2 -20    6.95    3.47
  -2   2  20    5.59    1.62
  -2  -2  20    4.75    1.68
  -2  -2  20    4.26    1.98
  -3  -2  20    2.27    1.33
  -3  -2  20    2.65    1.84
  -2   3  20    0.35    1.30
   3   1 -20   14.72    4.79
  -1   3  20    6.52    3.11
  -3  -1  20    6.41    3.27
  -3  -1  20   12.76    2.95
   3   0 -20  -11.84    3.69
  -3   0  20   -1.46    1.20
  -3   0  20   -0.31    1.63
   1   3 -20    9.26    5.00
   3  -1 -20   15.46    4.78
  -1  -3  20   12.05    3.30
  -3   1  20    8.63    3.13
  -3   1  20   10.99    3.46
   3  -2 -20    8.11    3.69
  -3   2  20    2.15    1.75
  -3   2  20    2.49    2.12
  -2  -3  20   15.54    2.36
  -2  -3  20    4.04    1.92
   3  -3 -20   20.89    7.07
   3   3 -20    9.30    7.22
  -3   3  20   23.13    5.76
  -3  -3  20   29.74    5.66
  -3   3  20   11.58    6.15
  -3  -3  20   20.45    6.00
   3  -4 -20    0.22    3.15
   4   3 -20   -0.56    3.74
  -4  -3  20   -3.65    1.71
  -3   4  20   -0.62    1.64
  -3   4  20   -0.32    0.93
  -4  -3  20    1.39    1.27
   4   2 -20    9.46    5.61
  -2   4  20    8.27    4.10
  -4  -2  20   20.81    3.97
  -4  -2  20   13.34    4.30
   4   1 -20   -7.44    3.54
  -4  -1  20   -0.28    1.06
  -1   4  20   -0.34    1.26
  -4  -1  20   -1.75    1.77
   4   0 -20    6.08    4.43
  -4   0  20   11.67    2.87
  -4   0  20    9.00    3.24
   1   4 -20   -5.39    3.75
   4  -1 -20   -0.64    3.22
  -1  -4  20   -0.09    1.64
  -4   1  20   -1.77    1.54
  -1  -4  20   -1.11    1.56
  -4   1  20   -0.25    0.93
   4  -2 -20   21.03    5.79
   2   4 -20   13.95    6.14
  -4   2  20   17.88    4.41
  -2  -4  20   16.44    4.46
  -4   2  20   12.86    4.77
  -2  -4  20   12.32    4.73
   4  -3 -20    3.32    3.21
   3   4 -20   -0.27    3.97
  -4   3  20    1.96    1.54
  -3  -4  20    1.54    1.28
  -4   3  20    0.35    0.89
  -3  -4  20    2.68    1.85
   4   4 -20    1.74    4.06
  -4  -4  20    4.66    2.15
  -4  -4  20    3.03    1.63
  -4   4  20    2.87    1.97
  -4   4  20    5.00    1.36
   5   4 -20   -1.06    4.09
  -5  -4  20    4.83    1.94
   5   3 -20    8.28    6.09
  -5  -3  20   18.46    4.39
  -5  -3  20   16.90    4.70
   5   2 -20    2.40    5.78
  -5  -2  20   19.00    4.47
  -5  -2  20   16.99    4.07
   5   1 -20   16.15    6.76
  -5  -1  20   16.81    5.74
  -5  -1  20   23.94    5.38
   5   0 -20    0.21    0.76
   5   0 -20    0.42    3.32
  -5   0  20   -0.88    1.56
  -5   0  20    0.83    1.01
   5  -1 -20   15.36    3.78
   5  -1 -20    4.87    5.49
   1   5 -20   13.35    5.93
  -5   1  20   13.67    4.45
  -1  -5  20    8.26    4.37
  -5   1  20   19.04    3.94
   5  -2 -20   16.14    3.51
   5  -2 -20   12.48    5.08
   2   5 -20    4.39    5.67
  -5   2  20   11.82    4.15
  -5   2  20   11.68    3.64
  -2  -5  20   13.28    4.15
   5  -3 -20   15.35    5.05
   3   5 -20    1.02    5.83
   5  -3 -20   15.15    3.56
  -5   3  20   13.62    4.21
  -3  -5  20   12.46    4.11
  -5   3  20   12.36    3.66
   4   5 -20    0.95    4.22
  -5   4  20    4.57    1.33
  -4  -5  20    2.88    2.12
   6   5 -20    2.98    1.16
  -6  -5  20    1.84    1.36
   6   3 -20   10.28    4.75
  -6  -3  20    7.93    3.01
   6   2 -20    4.80    1.55
   6   2 -20   -0.53    4.04
  -6  -2  20    8.32    2.16
  -6  -2  20    4.37    1.65
   6   1 -20    4.81    1.56
   6   1 -20    1.96    4.06
  -6  -1  20    5.70    1.68
  -6  -1  20    5.88    2.11
   6   0 -20    0.07    3.57
   6   0 -20    2.40    0.91
  -6   0  20    1.01    1.69
  -6   0  20    1.91    1.04
   6  -1 -20    4.24    1.23
   1   6 -20    2.65    4.28
   6  -1 -20    3.08    3.59
  -1  -6  20    2.83    2.12
  -6   1  20    4.85    1.91
  -1  -6  20   -0.09    1.90
  -6   1  20    3.83    1.36
   6  -2 -20    1.92    3.37
   2   6 -20    4.45    4.40
   6  -2 -20    4.03    1.27
  -6   2  20    4.44    1.37
  -6   2  20    6.43    2.02
  -2  -6  20    0.09    2.19
   6  -3 -20    7.70    4.11
   6  -3 -20   11.43    2.44
  -6   3  20    6.21    3.02
  -6   3  20    7.21    2.50
  -5  -6  20    1.29    1.34
   6   6 -20    4.81    4.45
  -6  -6  20   -0.96    1.94
   7   6 -20   12.63    5.13
  -7  -6  20    0.09    2.45
   7   5 -20    0.07    0.98
   7   5 -20   -1.69    4.42
  -7  -5  20   -1.08    1.75
  -7  -5  20   -0.30    1.12
   7   4 -20    0.07    0.89
  -7  -4  20   -1.27    1.11
   7   2 -20    0.77    4.56
  -7  -2  20   11.24    2.77
   7   1 -20    1.00    0.83
   7   1 -20   -1.19    3.84
  -7  -1  20    0.77    1.01
  -7  -1  20    3.55    1.62
   7   0 -20   -0.29    0.84
   7   0 -20   -0.14    3.64
  -7   0  20   -0.34    0.96
  -7   0  20    0.58    1.60
   7  -1 -20   -0.96    3.48
   7  -1 -20    0.61    0.79
  -7   1  20    0.94    1.62
  -7   1  20    1.26    0.95
   7  -2 -20    5.22    1.66
   7  -2 -20    0.59    3.82
  -7   2  20    4.57    2.26
  -7   2  20    6.75    1.70
   7  -3 -20    1.76    3.17
   7  -3 -20   -0.16    0.72
  -7   3  20    0.75    0.78
  -7   3  20    1.69    1.64
  -3  -7  20   -0.08    1.37
  -4  -7  20   -0.09    1.83
  -4  -7  20    1.48    1.37
   5   7 -20    1.99    1.20
   5   7 -20    3.57    4.53
  -5  -7  20    0.09    1.98
  -5  -7  20    2.40    1.40
   6   7 -20    3.39    2.74
   6   7 -20   13.39    5.65
  -6  -7  20   21.73    3.46
   8   7 -20    1.10    1.22
   8   7 -20    1.31    5.20
  -8  -7  20    0.21    1.30
  -8  -7  20    0.09    2.10
   8   6 -20   -6.99    5.01
  -8  -6  20    0.62    1.97
   8   5 -20   -1.15    1.08
   8   5 -20   -2.46    4.82
  -8  -5  20    2.15    1.19
  -8  -5  20    0.08    1.86
   8   4 -20   -1.57    4.68
   8   4 -20    0.51    1.05
  -8  -4  20   -0.32    1.90
  -8  -4  20    0.06    1.12
   8   3 -20    9.85    5.38
  -8  -3  20   14.55    3.74
  -8  -2  20   -0.06    1.10
   0  -8 -20    4.12    6.08
   8   0 -20    0.15    3.94
   8   0 -20    3.88    0.99
  -8   0  20   -0.05    0.91
  -8   0  20    2.53    1.80
   8  -1 -20    2.27    0.92
   8  -1 -20    1.35    3.86
  -1  -8  20   -1.69    1.71
  -8   1  20    1.18    1.75
  -8   1  20    2.66    1.04
   8  -2 -20    8.73    3.70
   8  -2 -20   -0.43    0.80
  -8   2  20    0.81    0.93
  -8   2  20   -0.22    1.59
  -2  -8  20    1.35    1.53
   8  -3 -20    1.98    0.88
   8  -3 -20    6.12    3.50
   3   8 -20    8.41    4.61
  -8   3  20   -0.10    0.92
  -3  -8  20    0.10    2.00
  -8   3  20    1.81    1.75
  -3  -8  20   -1.81    1.52
   4   8 -20   -5.70    4.89
  -4  -8  20    1.03    1.39
  -4  -8  20   -1.94    2.01
   5   8 -20  -12.12    4.91
   5   8 -20    0.08    1.08
  -5  -8  20   -0.10    2.22
  -5  -8  20   -1.75    1.44
   6   8 -20   -2.92    4.95
   6   8 -20    1.75    1.18
  -6  -8  20    0.35    1.36
  -6  -8  20    0.10    2.16
   7   8 -20    0.62    5.12
   7   8 -20   -0.66    1.25
  -7  -8  20   -1.85    2.28
  -7  -8  20    0.28    1.26
   8   8 -20    5.28    1.65
   8   8 -20    2.77    5.47
  -8  -8  20   -0.10    2.36
  -8  -8  20    4.17    1.78
   9   8 -20    0.78    1.36
   9   8 -20    5.79    5.44
  -9  -8  20    0.08    1.42
  -9  -8  20    0.10    2.02
   9   7 -20    8.05    1.72
   9   7 -20   -1.14    5.55
  -9  -7  20    0.09    2.35
  -9  -7  20    3.36    1.82
   9   6 -20    4.44    5.20
  -9  -6  20    1.15    2.13
   9   5 -20    0.65    1.16
   9   5 -20   -1.32    4.81
  -9  -5  20    0.08    1.83
  -9  -5  20    1.32    1.32
   9   4 -20    1.20    1.09
   9   4 -20    0.09    4.67
  -9  -4  20   -0.24    1.69
  -9  -4  20   -0.53    1.20
   9   3 -20    1.30    1.01
   9   3 -20    2.83    4.39
  -9  -3  20    1.34    1.78
  -9  -3  20   -0.19    1.16
   9   2 -20    0.74    1.04
   9   2 -20    2.39    4.44
  -9  -2  20    0.57    1.19
  -9  -2  20    0.69    1.75
   9   1 -20   -0.85    0.92
  -9  -1  20   -0.48    1.11
   0  -9 -20  -19.09    8.96
   1   9 -20    0.71    4.80
  -9   1  20    0.07    1.66
  -1  -9  20   -2.68    1.91
   2   9 -20    2.64    4.93
   9  -2 -20    0.68    1.15
  -9   2  20    2.38    1.86
  -2  -9  20    2.52    1.89
  -9   2  20    3.53    1.25
  -2  -9  20    1.81    2.36
   9  -3 -20   -0.14    0.86
   3   9 -20    1.69    5.07
  -9   3  20    0.98    1.02
  -9   3  20   -0.22    1.61
  -3  -9  20   -0.57    1.63
  -3  -9  20   -3.01    2.24
   4   9 -20   -1.52    4.97
  -4  -9  20   -0.41    2.12
  -4  -9  20    2.54    1.49
   5   9 -20   -0.08    1.17
   5   9 -20    1.47    5.02
  -5  -9  20    0.52    2.34
  -5  -9  20    3.07    1.48
   6   9 -20    3.87    5.34
   6   9 -20    0.69    1.31
  -6  -9  20    4.30    1.57
  -6  -9  20    0.31    2.41
   7   9 -20    4.73    1.57
   7   9 -20   -0.88    5.69
  -7  -9  20    0.31    2.55
  -7  -9  20    4.14    1.74
   8   9 -20    1.51    1.29
   8   9 -20   -2.38    5.56
  -8  -9  20    2.51    2.42
  -8  -9  20    1.13    1.56
   9   9 -20    1.85    1.39
   9   9 -20   -8.42    5.97
  -9  -9  20   -0.43    1.67
  -9  -9  20   -2.32    2.39
  10   9 -20    0.43    1.43
  10   9 -20    1.66    6.11
 -10  -9  20   -0.53    2.27
 -10  -9  20    0.28    1.62
  10   8 -20    1.46    5.73
  10   8 -20    3.66    1.47
 -10  -8  20    0.09    1.57
 -10  -8  20   -0.10    2.19
  10   7 -20   -2.45    5.52
  10   7 -20    0.10    1.34
 -10  -7  20   -0.09    2.06
 -10  -7  20    0.86    1.46
  10   6 -20    0.18    1.19
  10   6 -20    1.82    5.06
 -10  -6  20    1.06    1.94
  10   5 -20   -0.44    1.14
  10   5 -20   -0.19    4.93
 -10  -5  20   -0.76    1.86
 -10  -5  20    0.08    1.35
  10   4 -20   -0.09    4.65
  10   4 -20   -1.18    1.13
 -10  -4  20   -0.33    1.82
 -10  -4  20   -2.88    1.34
  10   3 -20    0.25    1.03
  10   3 -20    1.24    4.52
 -10  -3  20    0.08    1.68
 -10  -3  20    0.07    1.29
  10   2 -20    1.60    1.08
  10   2 -20   -0.43    4.44
 -10  -2  20   -0.61    1.53
 -10  -2  20   -0.86    1.25
  10   1 -20    3.03    4.22
  10   1 -20    0.08    1.00
 -10  -1  20    0.30    1.64
 -10  -1  20    0.07    1.21
  10   0 -20   -0.55    4.19
  10   0 -20    2.33    1.18
 -10   0  20    5.67    1.75
 -10   0  20    0.27    1.34
  10  -1 -20    0.38    0.96
   1  10 -20   -4.22    4.83
  -1 -10  20    0.30    1.87
 -10   1  20    0.47    1.07
   2  10 -20    4.94    5.22
  -2 -10  20   -1.79    2.14
  -2 -10  20    0.27    1.70
   3  10 -20    0.47    5.31
  -3 -10  20   -1.54    2.22
  -3 -10  20    0.85    1.59
 -10   3  20    1.11    1.63
   4  10 -20    4.95    5.49
  -4 -10  20   -2.36    1.44
  -4 -10  20   -3.28    2.33
   5  10 -20    1.01    5.28
   5  10 -20    0.96    1.15
  -5 -10  20    2.39    1.55
  -5 -10  20   -0.11    2.22
   6  10 -20    0.36    1.13
   6  10 -20   -2.04    5.57
  -6 -10  20   -1.68    2.37
  -6 -10  20    0.23    1.45
   7  10 -20  -11.85    5.88
   7  10 -20    0.10    1.36
  -7 -10  20   -0.11    2.41
  -7 -10  20   -0.54    1.37
   8  10 -20   -0.50    1.36
   8  10 -20    0.48    5.76
  -8 -10  20   -0.11    2.46
  -8 -10  20   -0.76    1.56
   9  10 -20   -5.00    6.33
   9  10 -20    0.76    1.29
  -9 -10  20    1.35    1.63
  -9 -10  20   -0.34    2.28
  10  10 -20    8.74    6.12
  10  10 -20   -1.16    1.60
 -10 -10  20   -0.89    2.50
 -10 -10  20   -0.69    1.68
  11  10 -20   -1.99    1.43
 -11 -10  20   -0.79    2.60
 -11 -10  20   -3.60    1.96
  11   9 -20  -11.29    6.14
  11   9 -20    0.70    1.57
 -11  -9  20    0.10    1.70
 -11  -9  20    0.32    2.23
  11   8 -20    2.06    5.69
  11   8 -20   -0.11    1.39
 -11  -8  20   -6.10    1.75
 -11  -8  20   -0.69    2.00
  11   7 -20    8.96    5.48
 -11  -7  20   -1.03    1.95
 -11  -7  20    0.77    1.60
  11   6 -20    2.29    5.36
  11   6 -20   -0.10    1.40
 -11  -6  20    3.85    1.74
 -11  -6  20    0.63    2.00
  11   5 -20   -0.29    1.17
  11   5 -20    0.30    4.98
 -11  -5  20    0.26    1.47
 -11  -5  20    0.08    1.77
  11   4 -20   -0.84    1.21
  11   4 -20    5.06    4.76
 -11  -4  20    0.33    1.77
 -11  -4  20    1.61    1.38
  11   3 -20    0.27    1.12
  11   3 -20    1.64    4.52
 -11  -3  20   -0.57    1.31
 -11  -3  20   -0.08    1.68
  11   2 -20    3.51    4.51
  11   2 -20   -3.50    1.12
 -11  -2  20   -0.99    1.61
 -11  -2  20    0.08    1.29
  11   1 -20    0.17    4.50
  11   1 -20    3.36    1.64
 -11  -1  20    8.86    2.08
 -11  -1  20    2.38    1.79
   0 -11 -20   -5.53    8.92
  11   0 -20    0.09    0.98
  11   0 -20    0.24    4.19
 -11   0  20   -1.26    1.19
 -11   0  20   -1.56    1.65
  11  -1 -20    0.98    1.88
  11  -1 -20    8.72    4.41
 -11   1  20    8.21    2.36
  -1 -11  20   14.01    2.54
  11  -2 -20   -0.75    3.95
   2  11 -20  -10.47    5.37
  -2 -11  20    4.01    1.86
  -2 -11  20    0.59    2.36
 -11   2  20   -5.19    1.71
   3  11 -20   -3.47    5.51
  -3 -11  20    0.87    1.58
  -3 -11  20   -0.12    2.49
   4  11 -20   -1.97    5.75
   4  11 -20    1.01    1.30
  -4 -11  20   -0.12    2.49
  -4 -11  20   -0.65    1.52
   5  11 -20   -2.98    1.27
   5  11 -20  -10.93    5.64
  -5 -11  20   -0.24    2.53
  -5 -11  20    0.08    1.48
   6  11 -20    3.82    1.98
  -6 -11  20    4.71    3.29
  -6 -11  20    6.70    2.03
   7  11 -20    0.20    1.41
   7  11 -20  -20.73    6.42
  -7 -11  20    0.12    2.70
  -7 -11  20    0.08    1.52
   8  11 -20    7.09    6.46
   8  11 -20    3.90    1.62
  -8 -11  20    3.03    2.72
  -8 -11  20   -0.18    1.71
   9  11 -20   -0.57    1.48
   9  11 -20    5.32    6.32
  -9 -11  20   -1.69    1.63
  -9 -11  20    0.36    2.62
  10  11 -20  -14.78    7.33
  10  11 -20   -1.83    1.60
 -10 -11  20   -0.12    2.62
 -10 -11  20   -1.36    1.94
  11  11 -20    1.71    1.69
  11  11 -20   -4.45    6.96
 -11 -11  20    0.12    2.48
 -11 -11  20   -0.57    1.89
  12  11 -20   -1.39    6.99
  12  11 -20    1.17    1.86
 -12 -11  20   -0.12    2.63
  12  10 -20    0.83    1.73
  12  10 -20   -4.57    6.71
 -12 -10  20    1.50    1.97
 -12 -10  20    2.72    2.48
  12   9 -20   -0.13    1.77
  12   9 -20   -5.48    6.66
 -12  -9  20   -4.34    2.49
 -12  -9  20   -8.54    2.06
  12   8 -20   -0.61    1.50
  12   8 -20   13.73    6.13
 -12  -8  20   -0.10    2.14
 -12  -8  20    1.28    1.85
  12   7 -20    3.50    5.75
 -12  -7  20    0.09    1.96
  12   6 -20    0.45    1.33
  12   6 -20   -1.29    5.33
 -12  -6  20    0.18    1.84
 -12  -6  20    0.39    1.64
  12   5 -20   -0.55    1.18
  12   5 -20    9.78    5.16
 -12  -5  20    1.70    1.90
 -12  -5  20    0.09    1.53
  12   4 -20   -1.80    1.30
 -12  -4  20   -0.41    1.72
  12   3 -20    0.93    1.22
 -12  -3  20   -0.87    1.69
  12   2 -20    0.40    1.38
 -12  -2  20    4.98    1.89
   1 -12 -20   -4.39    9.81
 -12  -1  20   -4.81    1.79
   0 -12 -20  -17.43    9.96
 -12   0  20    9.53    2.55
 -12   1  20   -1.70    1.71
  -1 -12  20   -3.31    2.00
   2  12 -20    0.53    5.68
  -2 -12  20    1.24    2.65
 -12   2  20    4.04    1.90
  -2 -12  20    4.09    2.07
   3  12 -20   -7.18    5.97
  -3 -12  20    0.12    2.50
  -3 -12  20    0.09    1.63
   4  12 -20   -1.15    1.44
  -4 -12  20   -0.87    2.57
  -4 -12  20    0.33    1.58
   5  12 -20    0.91    6.14
   5  12 -20    0.59    1.30
  -5 -12  20   -2.15    1.63
  -5 -12  20    0.76    2.68
   6  12 -20    1.01    1.36
   6  12 -20   -6.45    6.21
  -6 -12  20    1.75    1.57
  -6 -12  20    0.13    2.79
   7  12 -20    0.54    1.52
   7  12 -20   11.36    6.65
  -7 -12  20    0.13    2.82
  -7 -12  20    0.08    1.59
   8  12 -20    3.64    1.71
   8  12 -20   -1.34    6.52
  -8 -12  20   -0.26    2.98
  -8 -12  20    0.37    1.68
   9  12 -20   -2.18    1.91
   9  12 -20  -12.75    7.74
  -9 -12  20   -4.57    3.32
  10  12 -20   -4.04    7.10
  10  12 -20    1.55    1.59
 -10 -12  20   -1.20    1.92
 -10 -12  20   -0.13    2.84
  11  12 -20   -0.42    1.86
  11  12 -20   -4.42    7.35
 -11 -12  20    4.49    2.08
 -11 -12  20   -0.13    2.85
  12  12 -20    8.32    7.57
  12  12 -20   -2.78    1.72
 -12 -12  20   -1.56    2.72
   1 -13 -20   -5.60   10.83
  -1  13  20    4.18    2.67
   0 -13 -20   -6.97   10.62
  -1 -13  20    2.88    2.14
   2  13 -20   -1.24    5.76
  -2 -13  20    0.26    2.55
  -2 -13  20   -0.10    1.84
   3  13 -20   -1.36    6.02
  -3 -13  20    0.63    1.72
  -3 -13  20   -4.22    2.79
   4  13 -20    0.27    6.45
   4  13 -20    1.31    1.44
  -4 -13  20    1.83    1.68
  -4 -13  20   -1.33    2.81
   5  13 -20   -0.52    1.45
   5  13 -20   10.12    6.61
  -5 -13  20    0.08    1.64
  -5 -13  20    1.08    2.69
   6  13 -20    1.27    1.46
   6  13 -20    6.12    6.64
  -6 -13  20    1.54    1.56
  -6 -13  20  -10.01    2.95
   7  13 -20    1.59    1.59
   7  13 -20    5.47    6.98
  -7 -13  20    0.14    3.03
  -7 -13  20    0.28    1.86
   8  13 -20   -4.54    1.83
  -8 -13  20   -0.14    4.13
   9  13 -20   -0.38    1.67
   9  13 -20    5.20    7.46
  -9 -13  20    0.56    3.11
  -9 -13  20    2.11    1.98
  10  13 -20    0.14    1.69
  10  13 -20   -2.51    7.36
 -10 -13  20   -7.99    3.01
 -10 -13  20   -1.47    1.98
  11  13 -20    1.49    1.98
  11  13 -20   10.48    7.80
 -11 -13  20    0.86    2.13
 -11 -13  20    1.95    3.09
   1 -14 -20   -5.23   11.77
  -1  14  20    1.80    2.86
   0 -14 -20  -15.70   12.15
   2  14 -20   10.18    5.66
  -2 -14  20   -1.87    1.90
   3  14 -20    0.11    1.51
   3  14 -20   -2.14    6.05
  -3 -14  20    0.83    2.84
  -3 -14  20    4.62    1.86
   4  14 -20   -1.59    1.67
   4  14 -20    2.44    6.49
  -4 -14  20   -3.57    1.80
  -4 -14  20   -3.11    2.92
   5  14 -20   -0.97    1.55
   5  14 -20  -16.56    7.46
  -5 -14  20    1.56    1.65
  -5 -14  20   -0.14    2.96
   6  14 -20   -0.34    1.82
  -6 -14  20   27.09    3.98
  -6 -14  20    0.09    1.95
   7  14 -20    0.24    1.66
   7  14 -20   20.56    7.19
  -7 -14  20   -1.80    1.77
  -7 -14  20   -0.76    3.31
   8  14 -20    1.19    7.46
   8  14 -20   -1.02    1.82
  -8 -14  20    2.40    1.83
  -8 -14  20    0.31    3.18
   9  14 -20   -8.62    7.65
   9  14 -20   -0.13    1.76
  -9 -14  20    0.65    2.08
  -9 -14  20    0.15    3.34
  10  14 -20   -0.14    2.01
  10  14 -20  -11.01    8.06
 -10 -14  20    0.15    3.20
 -10 -14  20    1.32    2.08
   1 -15 -20  -11.08    2.73
  -1  15  20   -8.47    4.36
   7  15 -20    1.50    1.71
   8  15 -20   -1.20    1.79
   8  15 -20    1.39    7.80
   9  15 -20   -1.91    8.03
   9  15 -20    1.54    1.80
  -9 -15  20    0.17    3.57
 -10 -15  20    0.16    3.32
   2 -16 -20   10.30   13.34
   1 -16 -20   -0.48    2.15
   1 -16 -20   -0.98   13.95
  -1  16  20    4.69    3.80
  -1  16  20   -4.20    3.58
   0 -16 -20   -9.43   14.43
   2 -17 -20    0.13    2.33
   2 -17 -20   11.97   14.26
   1 -17 -20   -1.47    2.38
   1 -17 -20    7.67   14.99
  -1  17  20   -3.47    4.18
  -1  17  20    0.17    4.16
   0 -17 -20   13.86   15.93
  -1   0  21    4.52    1.95
  -1   1  21   -0.40    1.44
  -1  -1  21   -2.11    1.50
   2   1 -21    0.93    3.75
  -2  -1  21    3.08    1.77
  -1   2  21    2.17    1.46
  -2  -1  21    0.29    1.47
   2   0 -21   -1.93    3.65
  -2   0  21   -0.36    1.72
  -2   0  21    0.56    1.31
   2  -1 -21   -4.88    3.55
  -1  -2  21    2.95    1.60
  -2   1  21    1.69    1.29
  -2   1  21    1.35    1.71
   2  -2 -21    0.36    3.35
   2   2 -21   -2.29    3.84
  -2  -2  21   -4.11    1.89
  -2   2  21   -0.91    1.32
  -2  -2  21   -0.15    1.51
   3   2 -21   17.60    5.02
  -3  -2  21    7.05    2.94
  -3  -2  21    9.58    3.28
  -2   3  21   10.16    3.05
   3   1 -21   -3.25    3.95
  -1   3  21   -2.17    1.45
  -3  -1  21   -1.88    1.72
  -3  -1  21    0.39    1.18
   3   0 -21   -0.60    4.20
  -3   0  21    8.14    2.14
  -3   0  21    7.11    2.55
   3  -1 -21    1.76    3.55
   1   3 -21    3.73    3.82
  -3   1  21   -1.10    1.70
  -1  -3  21   -0.61    1.54
  -3   1  21    1.08    1.19
   3  -2 -21   16.63    4.73
   2   3 -21    3.61    5.10
  -3   2  21    8.83    3.12
  -2  -3  21    8.89    3.48
  -3   2  21    8.93    3.50
  -2  -3  21   15.25    3.23
   3   3 -21   -1.02    4.02
   3  -3 -21   -2.03    3.33
  -3  -3  21    0.90    1.39
  -3   3  21   -0.59    1.09
  -3   3  21   -0.25    1.66
  -3  -3  21    2.90    1.92
   4   3 -21   10.44    5.15
  -3   4  21    8.11    3.42
  -4  -3  21   15.48    3.82
  -3   4  21    7.41    3.77
  -4  -3  21   18.04    3.44
   4   2 -21   -0.08    3.78
  -4  -2  21    1.92    1.29
  -2   4  21    1.47    1.29
  -4  -2  21    1.66    1.76
   4   1 -21   11.88    5.46
  -1   4  21    8.33    4.00
  -4  -1  21   15.36    3.74
  -4  -1  21   15.14    4.11
   4   0 -21    0.48    3.65
  -4   0  21    0.48    1.66
  -4   0  21   -1.20    1.09
   1   4 -21    9.86    5.49
   4  -1 -21    0.47    5.18
  -1  -4  21   13.88    3.66
  -4   1  21   17.27    3.89
  -4   1  21   12.78    3.46
   2   4 -21    0.60    4.11
   4  -2 -21    0.84    3.56
  -4   2  21    0.08    1.70
  -2  -4  21   -2.17    1.96
  -2  -4  21    4.59    1.50
  -4   2  21    1.81    1.11
   4  -3 -21    9.89    4.48
   3   4 -21    6.98    5.17
  -4   3  21    9.83    3.24
  -4   3  21    8.78    2.78
  -3  -4  21   10.41    3.27
  -4  -4  21   -0.09    1.92
   5   3 -21    0.58    4.36
  -5  -3  21    8.85    2.47
   5   2 -21   -0.08    4.69
  -5  -2  21   13.19    2.84
  -5  -2  21    9.57    3.23
   5   1 -21    2.40    3.73
  -5  -1  21    2.11    1.92
  -5  -1  21    2.27    1.17
   5   0 -21    1.04    4.86
  -5   0  21   12.85    3.54
  -5   0  21   12.70    3.07
   5  -1 -21   -3.37    3.54
   1   5 -21   -0.22    4.31
   5  -1 -21    2.34    0.98
  -5   1  21    3.01    1.16
  -5   1  21    3.55    1.90
   2   5 -21   -1.55    4.90
   5  -2 -21    7.98    2.08
   5  -2 -21    8.44    4.08
  -5   2  21    8.70    2.79
  -5   2  21    8.36    2.21
  -2  -5  21    2.89    2.87
   5  -3 -21    3.12    1.12
   5  -3 -21    3.97    3.44
  -5   3  21    3.96    1.99
  -5   3  21    2.98    1.26
  -5  -5  21    0.46    1.27
  -5  -5  21   -0.09    1.79
   6   5 -21   -1.33    1.03
   6   5 -21   -1.19    4.62
  -6  -5  21    0.46    1.33
  -6  -5  21    0.72    1.99
   6   4 -21    3.75    1.07
  -6  -4  21   -0.09    1.71
  -6  -4  21    0.93    1.41
   6   2 -21   -2.83    4.67
  -6  -2  21   14.62    3.04
   6   1 -21   -0.23    3.85
   6   1 -21    2.61    0.91
  -6  -1  21    0.05    1.05
  -6  -1  21    2.00    1.75
   6   0 -21    0.23    0.82
   6   0 -21   -0.82    3.72
  -6   0  21   -0.32    1.79
  -6   0  21   -1.79    0.99
   6  -1 -21   -0.43    3.57
   6  -1 -21    1.08    0.86
  -6   1  21    1.80    1.79
  -6   1  21    2.42    0.99
   6  -2 -21    0.07    4.15
   6  -2 -21    7.22    2.32
  -6   2  21    9.18    2.42
  -6   2  21   13.58    2.98
   6  -3 -21    0.86    3.49
   6  -3 -21    4.51    1.21
  -3  -6  21    3.24    1.71
  -6   3  21    3.27    1.99
  -6   3  21    3.39    1.31
   4   6 -21   26.10    5.06
  -4  -6  21    2.72    3.13
   5   6 -21    1.62    4.53
  -5  -6  21    0.09    2.06
   6   6 -21    7.42    5.22
  -6  -6  21    6.27    2.84
   7   6 -21   -6.96    4.96
  -7  -6  21    0.09    2.08
   7   5 -21  -12.78    5.29
   7   5 -21   -1.33    1.08
  -7  -5  21   -4.02    2.09
  -7  -5  21   -0.52    1.37
   7   4 -21   -1.99    5.36
   7   4 -21   -0.56    1.00
  -7  -4  21   -1.72    2.06
   7   3 -21    2.15    0.99
  -7  -3  21   -0.06    1.12
  -7  -1  21   -0.08    1.76
   7   0 -21    1.85    1.11
   7   0 -21   -0.38    3.92
  -7   0  21    4.50    2.02
  -7   0  21    4.24    1.24
   7  -1 -21    1.59    0.84
   7  -1 -21    3.69    3.64
  -7   1  21   -0.08    1.80
  -1  -7  21    2.34    1.83
  -7   1  21    0.19    0.99
   7  -2 -21    0.79    0.80
   7  -2 -21    2.96    3.60
  -2  -7  21    5.56    1.98
  -7   2  21   -0.47    0.91
  -2  -7  21   -1.13    1.53
  -7   2  21    1.55    1.77
   3   7 -21   -2.71    4.79
   7  -3 -21    2.02    3.56
   7  -3 -21    0.72    0.84
  -7   3  21    0.75    0.93
  -3  -7  21    1.51    1.56
  -3  -7  21   -0.10    2.03
  -7   3  21    1.22    1.73
   4   7 -21    2.50    4.77
  -4  -7  21   -0.88    2.11
  -4  -7  21   -0.22    1.50
   5   7 -21   -0.90    4.80
   5   7 -21   -1.16    1.10
  -5  -7  21   -1.28    2.20
  -5  -7  21    0.07    1.39
   6   7 -21    1.42    1.16
   6   7 -21    0.71    5.09
  -6  -7  21    0.07    1.44
  -6  -7  21    0.30    2.20
   7   7 -21   -0.58    1.22
   7   7 -21   -3.34    5.27
  -7  -7  21    1.67    2.25
  -7  -7  21   -3.60    1.38
   8   7 -21    3.14    1.32
   8   7 -21   -3.98    5.39
  -8  -7  21    2.65    1.55
  -8  -7  21    1.58    2.12
   8   6 -21    2.14    5.22
  -8  -6  21    0.09    2.07
   8   5 -21    0.39    4.92
   8   5 -21    0.08    1.14
  -8  -5  21   -0.63    1.97
  -8  -5  21    0.34    1.32
   8   4 -21   -0.08    0.97
   8   4 -21    3.34    4.89
  -8  -4  21   -0.09    1.90
  -8  -4  21   -1.35    1.21
   8   3 -21   -0.53    4.91
   8   3 -21   -0.22    1.01
  -8  -3  21    0.12    1.21
  -8  -3  21   -1.70    1.90
   8   2 -21   -2.22    4.48
   8   2 -21    3.74    1.07
  -8  -2  21    0.47    1.25
  -8  -2  21    2.33    2.04
   8   1 -21   -0.07    0.92
  -8  -1  21    0.06    1.05
   1   8 -21   -1.32    4.66
   8  -1 -21   -0.06    0.80
  -8   1  21    0.96    1.91
  -1  -8  21    0.10    1.80
   2   8 -21    0.70    4.92
   8  -2 -21    0.50    0.93
  -8   2  21    4.05    2.00
  -8   2  21    1.29    1.05
  -2  -8  21   -1.51    1.78
  -2  -8  21   -1.39    2.11
   3   8 -21   -0.11    5.12
  -8   3  21   -0.05    1.00
  -3  -8  21    0.10    2.04
  -3  -8  21    1.16    1.57
  -8   3  21   -1.34    1.89
   4   8 -21   -1.43    5.08
  -4  -8  21   -2.16    2.10
  -4  -8  21   -0.70    1.53
   5   8 -21   -0.49    1.06
   5   8 -21   -0.74    4.94
  -5  -8  21   -1.04    2.23
  -5  -8  21   -1.33    1.44
   6   8 -21   -1.51    5.24
   6   8 -21    2.17    1.19
  -6  -8  21    0.89    1.43
  -6  -8  21   -3.03    2.34
   7   8 -21    0.88    5.33
   7   8 -21    1.48    1.33
  -7  -8  21    0.10    2.25
  -7  -8  21    0.38    1.42
   8   8 -21    0.28    1.43
   8   8 -21   -3.52    5.51
  -8  -8  21   -1.85    1.44
  -8  -8  21    0.10    2.25
   9   8 -21    3.13    6.18
   9   8 -21    5.95    1.75
  -9  -8  21    4.73    2.68
  -9  -8  21    1.01    1.94
   9   7 -21   -0.09    1.45
   9   7 -21    9.46    5.75
  -9  -7  21    2.49    1.63
  -9  -7  21    2.50    2.29
   9   6 -21   -3.56    5.29
   9   6 -21    0.99    1.22
  -9  -6  21    0.09    2.03
   9   5 -21    2.40    5.17
   9   5 -21    1.37    1.30
  -9  -5  21    0.27    2.06
  -9  -5  21    2.35    1.43
   9   4 -21   -2.97    4.95
   9   4 -21    1.96    1.10
  -9  -4  21    0.79    2.01
  -9  -4  21    0.07    1.27
   9   3 -21    2.11    4.74
   9   3 -21    0.31    1.13
  -9  -3  21    7.87    2.01
  -9  -3  21    0.34    1.31
   9   2 -21    0.08    1.01
   9   2 -21    1.77    4.61
  -9  -2  21   -0.13    1.22
  -9  -2  21   -1.68    1.84
   9   1 -21    1.96    4.58
   9   1 -21   -0.45    0.99
  -9  -1  21    1.23    1.80
  -9  -1  21   -0.06    1.20
   9   0 -21   17.37    4.24
   9   0 -21    1.23    1.01
  -9   0  21   -1.77    1.13
  -9   0  21   -0.08    1.58
   1   9 -21   -2.13    4.72
  -1  -9  21    0.71    1.92
   2   9 -21    2.06    4.99
  -2  -9  21    0.82    1.86
  -2  -9  21   -2.47    2.19
   3   9 -21   -3.20    5.21
  -3  -9  21    0.11    2.38
  -3  -9  21    0.35    1.79
  -9   3  21    4.62    1.25
   4   9 -21    7.06    5.43
  -4  -9  21    2.28    1.68
  -4  -9  21    0.11    2.15
   5   9 -21   -1.36    5.19
   5   9 -21    0.95    1.32
  -5  -9  21   -2.97    2.33
  -5  -9  21    2.48    1.53
   6   9 -21   -5.43    5.47
   6   9 -21    4.14    1.37
  -6  -9  21    0.11    2.32
  -6  -9  21    0.62    1.58
   7   9 -21    0.28    1.35
   7   9 -21   -1.97    5.78
  -7  -9  21    1.56    2.52
  -7  -9  21    1.42    1.52
   8   9 -21    5.03    6.33
   8   9 -21    3.47    1.78
  -8  -9  21    8.91    2.93
  -8  -9  21    1.88    2.01
   9   9 -21   -0.42    1.45
   9   9 -21   -3.67    6.25
  -9  -9  21   -1.15    1.54
  -9  -9  21   -0.11    2.30
  10   9 -21   -0.56    1.52
  10   9 -21   -5.76    6.36
 -10  -9  21    0.79    1.76
 -10  -9  21   -0.11    2.47
  10   8 -21    0.11    1.36
  10   8 -21    2.85    5.89
 -10  -8  21   -4.52    2.27
 -10  -8  21    0.94    1.68
  10   7 -21    2.49    5.79
 -10  -7  21    0.09    1.56
 -10  -7  21    0.10    2.10
  10   6 -21    0.10    1.32
  10   6 -21   -1.83    5.64
 -10  -6  21    0.09    1.52
 -10  -6  21   -3.21    2.14
  10   5 -21    1.10    1.17
  10   5 -21   -3.19    5.31
 -10  -5  21    0.08    1.35
 -10  -5  21   -1.55    1.94
  10   4 -21    1.86    4.89
  10   4 -21    2.90    1.43
 -10  -4  21    2.54    1.65
 -10  -4  21    3.70    2.11
  10   3 -21   -0.94    4.79
  10   3 -21   -0.25    1.15
 -10  -3  21    0.23    1.32
 -10  -3  21    4.98    1.91
  10   2 -21   -1.09    4.56
  10   2 -21   -0.16    1.04
 -10  -2  21    1.42    1.95
 -10  -2  21   -0.29    1.29
  10   1 -21    0.09    4.48
  10   1 -21    0.97    1.10
 -10  -1  21   -0.87    1.37
 -10  -1  21    3.70    1.89
  10   0 -21    0.24    0.97
  10   0 -21   -3.12    4.36
 -10   0  21   -0.35    1.13
 -10   0  21    0.08    1.79
  10  -1 -21    9.25    4.44
  10  -1 -21    0.32    1.37
 -10   1  21    5.77    2.12
 -10   1  21    5.39    1.50
  -1 -10  21    1.26    2.31
  10  -2 -21    0.23    1.01
   2  10 -21    1.52    5.11
  -2 -10  21   -3.77    2.33
  -2 -10  21    2.11    1.84
 -10   2  21    1.60    1.19
   3  10 -21   -0.12    5.30
  -3 -10  21   -1.88    1.76
  -3 -10  21    0.12    2.32
   4  10 -21   -0.74    5.53
  -4 -10  21    1.50    1.61
  -4 -10  21   -2.20    2.36
   5  10 -21   -0.37    1.25
   5  10 -21   -6.38    5.57
  -5 -10  21    0.08    1.50
  -5 -10  21    0.12    2.36
   6  10 -21    0.57    1.38
   6  10 -21  -15.10    6.05
  -6 -10  21    0.24    1.51
  -6 -10  21   -3.33    2.56
   7  10 -21    3.55    6.11
   7  10 -21    2.91    1.39
  -7 -10  21    1.88    1.63
  -7 -10  21   -4.54    2.80
   8  10 -21   -1.27    6.30
   8  10 -21    0.84    1.51
  -8 -10  21    1.19    2.68
  -8 -10  21   -0.36    1.68
   9  10 -21    1.48    1.64
   9  10 -21    7.15    6.27
  -9 -10  21    0.09    1.69
  -9 -10  21   -0.12    2.48
  10  10 -21   -3.17    6.38
  10  10 -21    0.59    1.52
 -10 -10  21    0.10    1.82
 -10 -10  21    0.12    2.58
  11  10 -21   -2.85    1.76
 -11 -10  21    1.67    2.72
 -11 -10  21   -3.00    2.12
  11   9 -21   -0.12    1.43
  11   9 -21   -0.77    6.38
 -11  -9  21    0.56    2.46
 -11  -9  21    0.11    1.92
  11   8 -21   -0.47    1.47
  11   8 -21   -3.91    6.32
 -11  -8  21    2.45    1.83
 -11  -8  21    0.11    2.32
  11   7 -21   13.93    6.89
  11   6 -21    0.10    1.26
  11   6 -21   -8.49    5.56
 -11  -6  21    0.65    1.65
 -11  -6  21   -3.04    2.03
  11   5 -21  -17.22    5.70
  11   5 -21   -0.61    1.28
 -11  -5  21   -5.28    1.64
 -11  -5  21   -0.09    1.93
  11   4 -21    0.61    5.20
  11   4 -21   -0.68    1.27
 -11  -4  21   -0.09    1.94
 -11  -4  21   -1.46    1.53
  11   3 -21   -0.78    4.98
  11   3 -21   -1.12    1.19
 -11  -3  21   -0.95    1.94
 -11  -3  21    0.17    1.51
  11   2 -21    0.37    4.89
  11   2 -21    2.46    1.30
 -11  -2  21    3.93    1.95
 -11  -2  21   -0.08    1.57
  11   1 -21    6.57    4.61
  11   1 -21    0.09    1.14
 -11  -1  21    0.08    1.83
 -11  -1  21   -0.08    1.36
  11   0 -21   11.96    5.63
  11   0 -21    2.87    3.00
 -11   0  21   18.98    3.57
 -11   0  21   13.10    3.15
  11  -1 -21   -0.09    1.07
 -11   1  21    0.32    1.77
  -1 -11  21    1.72    2.15
  11  -2 -21    6.97    4.33
  11  -2 -21   -0.63    1.15
   2  11 -21   -6.10    5.68
 -11   2  21    4.36    1.90
  -2 -11  21    6.51    2.25
  -2 -11  21   -0.12    2.50
   3  11 -21   -0.92    5.69
  -3 -11  21    0.64    1.91
  -3 -11  21    0.12    2.51
   4  11 -21   -8.61    6.18
  -4 -11  21    0.95    1.71
  -4 -11  21   -2.96    2.55
   5  11 -21    1.44    1.41
   5  11 -21  -18.78    6.47
  -5 -11  21    0.75    2.72
  -5 -11  21   -1.11    1.68
   6  11 -21   -1.91    1.37
   6  11 -21  -10.01    6.26
  -6 -11  21   -0.75    1.60
  -6 -11  21    0.25    2.78
   7  11 -21    2.65    1.69
   7  11 -21    7.17    6.56
  -7 -11  21    0.76    1.65
  -7 -11  21    2.70    2.69
   8  11 -21   -1.22    1.53
   8  11 -21   -1.47    6.53
  -8 -11  21   -0.13    2.81
  -8 -11  21   -2.89    1.78
   9  11 -21    7.69    6.71
   9  11 -21   -0.48    1.67
  -9 -11  21   -1.29    1.84
  -9 -11  21   -3.72    2.84
  10  11 -21   -4.08    2.01
 -10 -11  21   -5.85    2.21
 -10 -11  21   -0.13    2.95
  11  11 -21    0.68    1.69
  11  11 -21    3.43    7.21
 -11 -11  21    0.12    2.10
 -11 -11  21    0.64    2.80
  12  11 -21   -4.26    7.61
 -12 -11  21   -5.41    2.92
 -12 -11  21    0.76    2.17
  12  10 -21    0.85    1.75
  12  10 -21    3.20    7.24
 -12 -10  21    0.84    2.55
 -12 -10  21    2.79    2.09
  12   9 -21   -9.26    6.74
  12   9 -21    1.34    1.83
 -12  -9  21   -3.62    2.45
 -12  -9  21    1.63    1.98
  12   8 -21    0.25    1.80
 -12  -8  21   -0.53    2.24
 -12  -8  21   -5.57    1.98
  12   7 -21    8.25    6.17
 -12  -7  21    3.14    2.55
  12   6 -21    0.35    1.49
  12   6 -21   -5.24    5.88
 -12  -6  21    0.41    1.70
 -12  -6  21   -0.10    1.99
  12   5 -21   -2.66    1.30
  12   5 -21    2.73    5.23
 -12  -5  21    1.47    1.62
 -12  -5  21   -1.48    1.87
  12   4 -21    2.09    5.36
  12   4 -21    1.61    1.48
 -12  -4  21    0.44    1.81
 -12  -4  21    0.28    1.56
  12   3 -21   -0.50    4.85
  12   3 -21    0.42    1.28
 -12  -3  21    0.09    1.51
 -12  -3  21    1.03    1.93
  12   2 -21    0.10    4.66
  12   2 -21    0.83    1.29
 -12  -2  21   -1.25    1.89
  12   1 -21    3.98    4.98
  12   1 -21    3.06    2.04
 -12  -1  21   10.06    2.52
  12   0 -21    4.19    6.15
   0 -12 -21   46.98   10.75
  12  -1 -21   -1.29    4.96
  -1 -12  21    7.57    2.81
 -12   1  21    7.50    2.53
   2  12 -21   -0.28    5.94
  12  -2 -21   -8.14    4.42
 -12   2  21    0.40    1.75
  -2 -12  21    0.13    2.59
  -2 -12  21   -3.70    2.19
   3  12 -21    0.14    6.09
  -3 -12  21   -2.85    1.92
  -3 -12  21   -1.44    2.72
   4  12 -21   -0.71    1.37
   4  12 -21   -3.59    6.37
  -4 -12  21    0.79    2.76
  -4 -12  21   -0.18    1.70
   5  12 -21    5.89    6.41
   5  12 -21   -0.21    1.56
  -5 -12  21   -0.13    2.63
  -5 -12  21   -2.38    1.71
   6  12 -21   -3.00    1.42
   6  12 -21   -1.36    6.55
  -6 -12  21   -0.14    2.92
  -6 -12  21    0.17    1.59
   7  12 -21    2.01    1.57
   7  12 -21   -0.14    6.65
  -7 -12  21    2.52    1.72
  -7 -12  21   -4.85    2.84
   8  12 -21   -4.91    1.81
  -8 -12  21   -5.42    2.12
  -8 -12  21   -0.14    3.38
   9  12 -21   -0.38    1.67
   9  12 -21    3.77    7.45
  -9 -12  21   -0.62    1.92
  10  12 -21    0.40    1.73
  10  12 -21    0.74    7.25
 -10 -12  21   -0.14    2.97
 -10 -12  21    2.93    1.98
  11  12 -21   11.59    7.77
  11  12 -21    0.72    1.82
 -11 -12  21   -1.87    2.16
 -11 -12  21   -0.14    2.82
 -13 -10  21   -0.12    2.68
 -13  -9  21    0.11    2.50
 -13  -8  21   -0.11    2.38
   0 -13 -21   -3.61   10.64
  -1 -13  21    0.79    2.26
   2  13 -21    3.04    5.93
  -2 -13  21    3.04    2.31
   3  13 -21   -1.58    6.19
  -3 -13  21   -0.10    1.83
  -3 -13  21    1.11    2.74
   4  13 -21    0.53    1.53
   4  13 -21   -2.46    6.40
  -4 -13  21   -5.12    1.92
  -4 -13  21   -0.14    2.95
   5  13 -21    6.58    6.89
   5  13 -21    0.11    1.51
  -5 -13  21    1.09    1.84
  -5 -13  21   -0.14    2.98
   6  13 -21   -0.89    1.61
   6  13 -21    5.65    6.92
  -6 -13  21    0.27    1.74
  -6 -13  21   -0.15    3.24
   7  13 -21   -2.15    2.46
  -7 -13  21    6.67    2.59
  -7 -13  21   26.46    4.80
   8  13 -21    0.88    1.80
   8  13 -21   -3.13    7.55
  -8 -13  21    4.32    1.94
  -8 -13  21   -2.56    3.36
   9  13 -21   -6.85    7.67
   9  13 -21   -2.40    1.94
  -9 -13  21   -5.58    1.93
  -9 -13  21   -2.55    3.24
  10  13 -21    1.84    1.86
  10  13 -21    5.62    7.86
 -10 -13  21    0.48    2.16
 -10 -13  21   -0.15    3.18
   0 -14 -21  -11.88   12.35
  -1 -14  21    1.61    2.26
  -2 -14  21   -1.58    2.07
   3  14 -21   -0.15    6.28
   3  14 -21   -0.89    1.53
  -3 -14  21    1.31    2.82
  -3 -14  21    3.30    1.91
   4  14 -21    0.15    7.12
   4  14 -21    0.22    1.60
  -4 -14  21   -0.15    3.10
   5  14 -21   -8.14    1.80
  -5 -14  21   -9.26    3.82
  -5 -14  21   -5.20    2.19
   6  14 -21    1.56    1.72
   6  14 -21   -7.42    7.45
  -6 -14  21    1.03    1.74
  -6 -14  21   -0.16    3.26
   7  14 -21   -5.71    7.54
   7  14 -21   -1.24    1.72
  -7 -14  21    0.32    3.42
  -7 -14  21   -0.41    1.91
   8  14 -21   17.26    7.79
   8  14 -21    2.02    1.77
  -8 -14  21   -3.89    3.43
  -8 -14  21    0.10    1.96
   9  14 -21   -4.15    8.01
   9  14 -21   -0.56    1.76
  -9 -14  21    2.42    2.01
  -9 -14  21   -0.16    3.31
  10  14 -21   -9.31    8.49
 -10 -14  21  -14.00    3.85
   6  15 -21   -0.74    1.67
   7  15 -21    0.13    1.81
   7  15 -21   -1.30    7.71
  -7 -15  21    0.17    3.54
   8  15 -21   -2.28    7.96
   8  15 -21   -1.39    1.81
  -8 -15  21    0.11    2.03
  -8 -15  21    0.87    3.61
   9  15 -21   10.88    8.45
  -9 -15  21    0.12    1.79
  -9 -15  21    0.87    3.88
   0 -16 -21    0.17   13.98
   1 -17 -21    7.83   15.47
   0 -17 -21    2.73   15.35
  -1   0  22   -0.09    1.59
  -1   1  22    1.79    1.70
   2   1 -22    4.58    4.08
  -1   2  22    0.74    1.55
  -2  -1  22    0.84    1.44
  -2  -1  22    0.10    1.87
   2   0 -22   -0.10    3.78
  -2   0  22   -0.45    1.35
  -2   0  22   -2.32    1.84
   2  -1 -22   -0.10    3.68
  -2   1  22    1.23    1.39
   2   2 -22    0.20    3.97
  -2  -2  22    1.50    1.47
  -2  -2  22    1.66    1.94
  -2   2  22    1.54    1.41
   3   2 -22   -0.96    4.13
  -3  -2  22    1.00    1.39
  -3  -2  22    4.73    1.95
  -2   3  22   -1.20    1.34
   3   1 -22    1.31    4.43
  -3  -1  22    4.97    2.45
  -1   3  22    7.60    2.32
  -3  -1  22    6.49    2.12
   3   0 -22    2.20    4.01
  -3   0  22    0.20    1.27
  -3   0  22    1.01    1.83
   3  -1 -22    1.62    4.25
  -3   1  22   11.11    2.75
  -3   1  22    6.45    2.28
   3  -2 -22    2.91    3.69
   2   3 -22    3.84    4.12
  -3   2  22   -0.06    1.21
  -3   2  22    2.27    1.83
  -2  -3  22   -0.08    1.31
  -2  -3  22    0.59    1.91
   3  -3 -22    0.09    3.65
   3   3 -22    5.45    4.43
  -3   3  22    3.60    1.95
  -3   3  22    2.89    1.30
  -3  -3  22    0.28    2.00
   4   2 -22    0.09    4.62
  -4  -2  22   -0.07    1.79
  -4  -2  22   10.19    2.39
  -2   4  22    9.79    2.02
   4   1 -22    1.06    3.98
  -4  -1  22    2.80    1.31
  -4  -1  22    0.62    1.95
  -1   4  22    1.05    1.56
   4   0 -22    0.95    4.69
  -4   0  22   11.13    2.70
  -4   0  22    9.02    3.04
   4  -1 -22    0.85    3.83
  -4   1  22    1.41    1.22
  -4   1  22    1.56    1.86
   4  -2 -22   10.53    4.62
  -4   2  22    8.87    2.83
  -4   2  22   11.41    3.23
   4  -3 -22    4.52    3.70
  -4   3  22    2.29    1.97
  -4   3  22    2.16    1.27
  -4  -4  22    0.92    1.42
   5   4 -22    7.79    4.57
  -5  -4  22    4.94    2.12
  -5  -4  22   -0.13    1.41
   5   1 -22    1.57    4.14
  -5  -1  22    6.39    1.64
  -5  -1  22    1.75    2.22
   5   0 -22    1.38    3.96
  -5   0  22    0.60    1.89
  -5   0  22    1.07    1.15
   5  -1 -22    0.16    3.89
  -5   1  22    3.28    1.26
  -5   1  22    1.44    2.04
   5  -2 -22    2.43    0.93
   5  -2 -22   -5.44    3.62
  -2  -5  22    0.34    1.64
  -5   2  22    2.35    1.13
  -5   2  22    3.92    1.87
   5  -3 -22    2.79    3.64
   5  -3 -22    2.82    0.93
  -3  -5  22    0.39    1.53
  -5   3  22    0.98    1.86
  -5   3  22    1.97    1.10
   4   5 -22    2.74    4.46
  -4  -5  22   -2.21    1.94
  -4  -5  22    1.77    1.36
   5   5 -22   -2.62    4.69
  -5  -5  22    0.42    1.40
   6   5 -22   -2.56    5.40
   6   5 -22   -1.11    1.10
  -6  -5  22   -2.62    1.47
  -6  -5  22   -6.34    2.19
   6   4 -22   -1.27    1.05
   6   4 -22   -3.86    5.26
  -6  -4  22   -0.20    1.40
  -6  -4  22    0.19    2.17
   6   3 -22    8.25    4.62
   6   3 -22    3.65    1.32
  -6  -3  22    1.52    1.58
   6   0 -22    6.33    1.64
   6   0 -22    1.69    4.26
  -6   0  22    3.00    2.39
  -6   0  22    5.52    1.77
   6  -1 -22   -2.93    3.86
   6  -1 -22    2.13    1.11
   1   6 -22   17.66    4.37
  -1  -6  22    2.08    1.96
  -6   1  22    2.60    1.23
  -6   1  22    2.29    2.00
   6  -2 -22    6.27    3.85
   6  -2 -22    2.25    0.95
   2   6 -22    1.14    4.62
  -2  -6  22    2.11    1.82
  -6   2  22    0.67    1.97
  -2  -6  22    0.11    2.13
  -6   2  22    2.20    1.10
   6  -3 -22    3.95    1.23
   6  -3 -22    8.21    3.71
   3   6 -22   -1.32    4.90
  -3  -6  22   -0.10    2.24
  -6   3  22    4.04    2.09
  -6   3  22    3.32    1.30
   4   6 -22    0.11    4.72
  -4  -6  22    0.10    1.95
   5   6 -22   -0.41    4.97
  -5  -6  22   -7.11    2.31
   6   6 -22   -0.52    5.06
  -6  -6  22    0.90    2.22
   7   6 -22    1.58    5.29
   7   6 -22   -0.98    1.21
  -7  -6  22    1.00    2.15
   7   5 -22   -0.60    5.72
   7   5 -22   -2.66    1.06
  -7  -5  22   -3.95    2.13
  -7  -5  22   -0.07    1.45
   7   3 -22    1.14    1.08
   7   3 -22    0.83    5.10
  -7  -3  22    0.09    2.03
  -7  -3  22   -0.06    1.32
   7   2 -22   -0.82    1.01
   7   2 -22    4.88    4.71
  -7  -2  22    9.35    2.00
  -7  -2  22   -0.24    1.22
  -7  -1  22   -0.29    1.14
   7  -1 -22    3.92    1.05
   1   7 -22   -1.84    4.55
  -1  -7  22    2.98    2.06
  -7   1  22   -1.71    2.09
   7  -2 -22  -11.82    4.14
   7  -2 -22    0.96    0.90
   2   7 -22   -0.94    4.76
  -2  -7  22    0.46    1.76
  -7   2  22    0.85    1.94
  -7   2  22   -0.20    1.06
  -2  -7  22   -3.49    2.10
   3   7 -22    3.67    4.97
  -3  -7  22    4.13    2.13
  -7   3  22   -1.00    2.14
  -3  -7  22    0.68    1.61
  -7   3  22    0.65    0.98
   4   7 -22   -1.33    5.03
  -4  -7  22    0.64    1.57
  -4  -7  22   -0.10    1.98
   5   7 -22   -0.97    5.20
   5   7 -22    0.08    1.15
  -5  -7  22    1.36    2.26
  -5  -7  22    0.08    1.44
   6   7 -22    3.34    5.41
   6   7 -22   -1.58    1.22
  -6  -7  22   -0.11    2.30
  -6  -7  22    1.13    1.43
   7   7 -22   -3.98    5.39
   7   7 -22   -2.41    1.28
  -7  -7  22    0.11    2.35
  -7  -7  22   -0.60    1.45
   8   7 -22    0.23    5.64
  -8  -7  22    0.08    1.48
  -8  -7  22    0.11    2.27
   8   6 -22    0.61    1.15
   8   6 -22   -3.81    5.35
  -8  -6  22   -0.10    2.28
  -8  -6  22    0.15    1.37
   8   5 -22   -0.52    5.05
   8   5 -22    0.17    1.23
  -8  -5  22    0.36    1.39
  -8  -5  22    1.06    2.14
   8   4 -22   -1.19    5.21
   8   4 -22    1.19    1.11
  -8  -4  22    0.84    2.03
  -8  -4  22   -0.07    1.27
   8   3 -22    1.81    4.89
   8   3 -22   -2.43    1.12
  -8  -3  22    0.07    1.21
  -8  -3  22    1.91    1.97
   8   2 -22    1.23    1.06
   8   2 -22   -4.01    4.87
  -8  -2  22   -0.06    1.22
  -8  -2  22    0.09    1.94
   8   1 -22   -0.43    1.03
   8   1 -22   -3.24    4.64
  -8  -1  22    0.06    1.13
  -8  -1  22   -4.41    2.04
   8   0 -22    0.82    0.90
  -8   0  22    0.06    1.07
  -1  -8  22    0.31    1.93
   8  -2 -22   -1.48    4.05
   2   8 -22    0.12    4.89
  -8   2  22    1.12    2.00
  -2  -8  22    1.47    2.25
  -2  -8  22   -0.09    1.82
   3   8 -22   -2.03    5.27
  -3  -8  22   -2.01    1.76
  -3  -8  22   -0.22    2.31
   4   8 -22   -2.83    5.30
  -4  -8  22    0.77    2.19
  -4  -8  22   -2.56    1.63
   5   8 -22    0.77    1.10
   5   8 -22    2.52    5.25
  -5  -8  22   -0.66    2.36
  -5  -8  22   -0.08    1.55
   6   8 -22    2.51    5.48
   6   8 -22   -0.35    1.32
  -6  -8  22    0.11    2.41
  -6  -8  22   -0.24    1.49
   7   8 -22    3.95    5.68
   7   8 -22    3.04    1.47
  -7  -8  22    0.11    2.52
  -7  -8  22    2.03    1.55
   8   8 -22    5.03    2.60
   8   8 -22   20.91    7.36
  -8  -8  22   12.47    2.78
  -8  -8  22    0.22    3.47
   9   8 -22   -0.21    1.49
   9   8 -22   -4.32    6.06
  -9  -8  22    0.18    1.70
  -9  -8  22   -6.27    2.44
   9   7 -22    7.12    6.17
  -9  -7  22    0.11    2.64
   9   6 -22   -2.07    1.27
   9   6 -22    0.56    5.60
  -9  -6  22    1.05    1.52
  -9  -6  22    0.10    2.20
   9   5 -22    0.11    5.48
   9   5 -22   -0.09    1.31
  -9  -5  22   -0.31    1.43
  -9  -5  22    0.10    1.94
   9   4 -22   -1.53    5.21
   9   4 -22    1.20    1.23
  -9  -4  22    0.74    1.40
  -9  -4  22   -0.09    2.08
   9   3 -22   -3.13    5.11
   9   3 -22    0.33    1.15
  -9  -3  22   -0.28    2.02
  -9  -3  22    0.14    1.27
   9   2 -22    0.75    4.74
   9   2 -22    0.39    1.01
  -9  -2  22    0.07    1.22
  -9  -2  22    0.09    1.98
   9   1 -22   -2.27    4.75
   9   1 -22   -1.57    1.05
  -9  -1  22    0.07    1.23
  -9  -1  22   -5.33    2.02
   9   0 -22    0.23    0.94
   9   0 -22   -3.93    4.48
  -9   0  22   -3.00    1.95
  -9   0  22   -1.15    1.16
  -1  -9  22   -1.91    3.32
  -9   1  22   19.84    3.26
   2   9 -22   -3.32    5.23
  -2  -9  22   -1.74    1.87
  -9   2  22   -0.92    1.10
  -2  -9  22    0.12    2.34
   3   9 -22    3.27    5.44
  -3  -9  22    0.73    1.85
  -3  -9  22    0.12    2.25
   4   9 -22   -2.24    5.65
  -4  -9  22    2.84    1.70
  -4  -9  22    0.12    2.30
   5   9 -22   -0.45    1.23
   5   9 -22    0.12    5.55
  -5  -9  22    0.12    2.40
  -5  -9  22    0.16    1.57
   6   9 -22    1.11    1.39
   6   9 -22   -1.91    5.72
  -6  -9  22    3.11    1.62
  -6  -9  22   -0.83    2.54
   7   9 -22    4.84    2.23
   7   9 -22   13.21    6.61
   8   9 -22    1.04    1.43
   8   9 -22    7.59    6.27
  -8  -9  22   -0.36    2.65
  -8  -9  22   -0.09    1.54
   9   9 -22    4.43    6.36
   9   9 -22    2.09    1.60
  -9  -9  22    0.09    1.77
  -9  -9  22    0.12    2.65
  10   9 -22   -2.79    6.64
  10   9 -22   -1.30    1.41
 -10  -9  22   -1.20    1.82
 -10  -9  22    0.12    2.46
  10   8 -22    0.22    1.58
  10   8 -22    2.02    6.41
 -10  -8  22    1.72    1.75
 -10  -8  22   -0.11    2.51
  10   7 -22   -2.76    6.16
 -10  -7  22   -0.11    2.44
  10   6 -22    1.03    5.69
  10   6 -22    1.20    1.34
 -10  -6  22    2.27    1.64
 -10  -6  22    0.10    2.26
  10   5 -22    1.35    1.34
  10   5 -22   -2.08    5.58
 -10  -5  22   -1.28    2.17
 -10  -5  22    0.08    1.54
  10   4 -22    4.20    5.20
  10   4 -22    0.74    1.20
 -10  -4  22    0.48    2.04
 -10  -4  22    0.80    1.44
  10   3 -22    0.10    5.01
  10   3 -22    0.98    1.20
 -10  -3  22    0.40    1.33
 -10  -3  22    1.20    1.97
  10   2 -22    0.09    1.07
  10   2 -22    1.36    4.99
 -10  -2  22    1.99    2.06
 -10  -2  22    2.53    1.44
  10   1 -22  -13.01    4.94
  10   1 -22   -1.08    1.17
 -10  -1  22    1.07    1.95
 -10  -1  22    0.30    1.32
  10   0 -22    0.49    1.15
  10   0 -22    9.55    4.78
 -10   0  22    2.22    1.99
 -10   0  22   -0.07    1.35
  10  -1 -22   -0.32    0.99
  10  -1 -22   -4.78    4.60
 -10   1  22   -3.63    1.25
  -1 -10  22    2.66    2.09
 -10   1  22    2.30    2.04
  10  -2 -22   -1.28    0.95
   2  10 -22   -0.93    5.55
  10  -2 -22   -1.67    4.52
 -10   2  22    3.18    1.94
  -2 -10  22   -1.62    1.93
  -2 -10  22    0.12    2.32
 -10   2  22    1.66    1.25
   3  10 -22    0.39    5.76
  -3 -10  22    3.69    1.90
  -3 -10  22   -2.46    2.53
   4  10 -22    0.65    5.91
  -4 -10  22    0.97    1.76
  -4 -10  22    0.12    2.49
   5  10 -22   -1.30    6.18
   5  10 -22   -0.10    1.41
  -5 -10  22    0.25    2.64
  -5 -10  22    0.09    1.73
   6  10 -22    6.34    6.08
   6  10 -22    0.39    1.31
  -6 -10  22   -1.76    2.73
  -6 -10  22    0.26    1.60
   7  10 -22    1.82    6.37
   7  10 -22    2.45    1.42
  -7 -10  22    0.70    1.67
  -7 -10  22    0.25    2.78
   8  10 -22    0.33    1.63
   8  10 -22   -6.53    6.57
  -8 -10  22   -0.13    2.60
  -8 -10  22    1.99    1.77
   9  10 -22   -8.25    6.90
   9  10 -22    1.74    1.50
  -9 -10  22   -1.27    2.85
  -9 -10  22   -1.27    1.78
  11  10 -22    9.33    7.25
  11  10 -22    1.87    1.70
 -11 -10  22   -0.12    1.88
 -11 -10  22   -5.63    2.80
  11   9 -22   16.01    3.84
 -11  -9  22   14.46    4.12
 -11  -9  22    0.24    4.81
  11   8 -22   -3.37    6.42
  11   8 -22    2.39    1.56
 -11  -8  22   -0.96    1.90
 -11  -8  22    1.58    2.53
  11   7 -22    0.25    6.15
 -11  -7  22    0.11    2.33
  11   6 -22   -3.30    5.95
  11   6 -22    0.11    1.42
 -11  -6  22    0.10    2.17
 -11  -6  22    0.78    1.70
  11   5 -22    1.24    1.43
  11   5 -22   -4.50    5.69
 -11  -5  22   -4.74    2.04
 -11  -5  22   -0.09    1.62
  11   4 -22    4.61    5.41
  11   4 -22   -1.30    1.38
 -11  -4  22    2.34    1.65
 -11  -4  22    0.29    2.05
  11   3 -22   -0.20    1.27
  11   3 -22    0.31    5.25
 -11  -3  22   -0.35    1.45
 -11  -3  22   -0.09    2.00
  11   2 -22    0.79    5.20
  11   2 -22    0.09    1.17
 -11  -2  22   -6.44    2.03
 -11  -2  22    0.51    1.51
  11   1 -22   10.15    5.13
  11   1 -22    0.65    1.27
 -11  -1  22    1.16    1.56
 -11  -1  22    4.12    2.11
  11   0 -22    5.91    4.95
  11   0 -22   -2.12    1.22
 -11   0  22   -6.93    1.45
 -11   0  22    0.18    1.94
  11  -1 -22    3.64    4.74
  11  -1 -22    0.09    1.42
  -1 -11  22    7.47    2.43
 -11   1  22    3.86    1.64
 -11   1  22    9.11    2.33
  11  -2 -22    7.51    4.66
  11  -2 -22   -0.74    1.16
   2  11 -22    1.67    5.77
  -2 -11  22    0.62    2.11
 -11   2  22   -1.94    2.07
  -2 -11  22    0.52    2.50
   3  11 -22    8.27    6.23
  -3 -11  22   -1.78    2.04
  -3 -11  22    3.64    2.60
   4  11 -22   -5.12    6.48
  -4 -11  22   -3.51    2.63
  -4 -11  22    1.93    1.80
   5  11 -22    7.96    6.60
   5  11 -22    0.50    1.44
  -5 -11  22   -0.90    1.77
  -5 -11  22   -3.14    2.67
   6  11 -22    0.55    6.70
   6  11 -22    0.95    1.39
  -6 -11  22    0.13    2.84
  -6 -11  22   -1.24    1.62
   7  11 -22    1.11    1.54
   7  11 -22    5.92    6.56
  -7 -11  22   -0.27    2.96
  -7 -11  22    0.09    1.71
   8  11 -22    0.93    1.62
   8  11 -22   -4.64    6.93
  -8 -11  22    3.97    2.96
  -8 -11  22   -0.69    1.82
   9  11 -22   15.78    4.77
  10  11 -22    1.31    1.85
  10  11 -22    8.78    7.37
 -10 -11  22    0.14    2.81
 -10 -11  22   -3.19    2.02
  11  11 -22    0.57    1.60
  11  11 -22   -1.97    7.68
 -11 -11  22   -1.96    2.13
 -11 -11  22   -4.35    2.88
  12  10 -22   -8.41    7.69
  12  10 -22   -1.03    1.90
 -12 -10  22    1.03    2.82
 -12 -10  22   -0.13    2.18
  12   9 -22   -1.54    7.36
  12   9 -22    0.14    1.53
 -12  -9  22    0.12    2.68
 -12  -9  22   -3.04    2.13
  12   8 -22   -9.61    7.29
  12   8 -22    0.66    1.67
 -12  -8  22   -6.75    2.18
 -12  -8  22    0.11    2.53
 -12  -7  22   -1.09    2.50
  12   6 -22    0.12    6.04
  12   6 -22   -1.44    1.60
 -12  -6  22   -0.10    2.12
 -12  -6  22   -3.20    1.89
  12   5 -22   -0.12    5.76
  12   5 -22   -0.11    1.43
 -12  -5  22   -0.10    2.09
 -12  -5  22   -0.10    1.71
  12   4 -22   -0.11    5.57
  12   4 -22   -2.00    1.41
 -12  -4  22   -4.55    1.70
 -12  -4  22    0.87    2.09
  12   3 -22    0.11    1.23
  12   3 -22    4.57    5.49
 -12  -3  22    0.09    1.99
 -12  -3  22    1.05    1.70
  12   2 -22    0.84    1.40
  12   2 -22    4.19    5.18
 -12  -2  22    6.74    2.11
 -12  -2  22   -0.09    1.58
  12   1 -22   -1.28    5.09
  12   1 -22   -0.84    1.27
 -12  -1  22   -6.81    2.01
  12   0 -22    0.93    1.38
  12   0 -22    5.20    4.98
 -12   0  22   -0.09    2.01
  12  -1 -22    2.54    4.80
 -12   1  22   -0.88    1.96
  -1 -12  22    3.01    2.56
   2  12 -22  -17.77    7.50
 -12   2  22    0.44    1.94
  -2 -12  22   15.45    3.76
   3  12 -22   -3.62    6.34
  -3 -12  22    0.81    1.97
  -3 -12  22    1.24    2.77
   4  12 -22    6.10    6.53
   4  12 -22   -0.43    1.32
  -4 -12  22   -1.32    1.69
  -4 -12  22   -0.14    2.82
   5  12 -22   -3.95    6.74
   5  12 -22    0.32    1.56
  -5 -12  22   -0.56    1.73
  -5 -12  22   -0.14    2.85
   6  12 -22    1.00    1.35
   6  12 -22    7.11    6.78
  -6 -12  22   -2.68    1.79
  -6 -12  22   -9.00    3.13
   7  12 -22   -0.23    1.66
  -7 -12  22   -4.02    2.06
  -7 -12  22   -7.03    3.30
   8  12 -22   -4.40    2.10
  -8 -12  22   -9.55    2.43
   9  12 -22   -3.58    1.86
   9  12 -22    9.00    7.51
  -9 -12  22   -0.44    2.05
  -9 -12  22    0.15    3.23
  10  12 -22   -5.33    8.00
  10  12 -22   -0.28    1.84
 -10 -12  22   -2.02    2.16
 -10 -12  22   -4.53    3.25
 -11 -12  22    0.15    3.25
  13   9 -22  -20.29    7.35
 -13  -9  22   -0.12    2.64
  13   8 -22   -3.62    1.83
  13   8 -22   -9.33    7.18
 -13  -8  22    0.12    2.59
  13   7 -22   12.47    6.89
  13   7 -22    2.21    1.71
 -13  -7  22   -0.66    2.46
  13   6 -22   -4.49    1.91
 -13  -6  22   -9.54    2.38
  13   5 -22   -0.89    1.68
 -13  -5  22   -1.31    2.23
  13   4 -22    2.29    5.68
 -13  -4  22    0.29    2.10
  13   3 -22   -5.15    5.47
 -13  -3  22    1.79    2.10
  13   2 -22   -3.47    5.26
 -13  -2  22    0.09    1.97
  13   1 -22    3.23    5.14
 -13  -1  22    0.72    1.95
 -13   0  22    1.84    2.14
   2  13 -22   -5.78    6.20
  -2 -13  22    0.33    2.13
   3  13 -22    1.66    6.52
  -3 -13  22    3.20    2.80
  -3 -13  22   -2.35    2.03
   4  13 -22   -6.41    6.82
   4  13 -22    1.34    1.47
  -4 -13  22    0.15    3.09
  -4 -13  22   -0.49    1.82
   5  13 -22   -0.79    1.59
  -5 -13  22   -5.99    3.29
  -5 -13  22   -0.48    1.97
   6  13 -22    0.12    1.76
  -6 -13  22   -1.85    2.05
  -6 -13  22   -7.17    3.81
   7  13 -22    8.54    7.43
   7  13 -22   -0.25    1.76
  -7 -13  22   -2.98    3.31
  -7 -13  22    0.59    1.89
   8  13 -22    4.69    7.79
   8  13 -22    0.79    1.92
  -8 -13  22   -0.11    1.90
  -8 -13  22    1.91    3.37
   9  13 -22    7.86    7.99
   9  13 -22   -1.11    1.96
  -9 -13  22    0.91    2.09
  -9 -13  22    3.50    3.56
  10  13 -22    0.99    8.23
 -10 -13  22    0.13    1.84
 -10 -13  22    0.79    3.33
  -2 -14  22    7.51    3.05
   3  14 -22  -18.09    7.25
   3  14 -22   -1.77    1.79
  -3 -14  22   -0.10    2.12
   4  14 -22    0.12    1.64
   4  14 -22    2.22    7.05
  -4 -14  22   -0.20    1.99
  -4 -14  22    0.31    3.24
   5  14 -22    3.27    1.75
   5  14 -22   -4.06    7.48
  -5 -14  22   -2.55    3.28
  -5 -14  22    5.56    2.03
   6  14 -22   -0.37    1.71
   6  14 -22   10.14    7.79
  -6 -14  22   -4.40    1.85
  -6 -14  22    0.16    3.33
   7  14 -22    2.30    7.84
   7  14 -22    1.05    1.87
  -7 -14  22    5.53    3.68
  -7 -14  22    0.11    2.03
   8  14 -22   -0.99    8.01
   8  14 -22    1.79    1.94
  -8 -14  22   -1.54    2.10
  -8 -14  22   -0.17    3.82
   9  14 -22   -1.52    8.38
  -9 -14  22    0.17    3.68
   4  15 -22    2.44    1.92
   5  15 -22   10.62    7.41
   5  15 -22   -1.49    1.77
   6  15 -22   -0.17    8.07
   6  15 -22    0.92    1.81
  -6 -15  22    0.17    3.62
   7  15 -22    3.94    1.94
   7  15 -22    9.61    8.37
  -7 -15  22    3.38    3.71
  -7 -15  22   -0.99    2.06
   8  15 -22   -2.98    8.56
  -8 -15  22   -0.36    3.79
   2   1 -23    0.42    4.02
  -2  -1  23    0.08    1.44
   2   0 -23   -2.18    4.02
  -2   0  23   -0.08    1.44
  -2   1  23    0.77    1.51
   2   2 -23    2.80    4.25
  -2  -2  23   -3.44    2.01
  -2   2  23   -0.37    1.35
  -2   3  23    3.50    1.75
   3   1 -23   -1.40    4.36
  -3  -1  23    1.58    2.18
  -3  -1  23    5.66    1.68
   3   0 -23    2.74    4.21
  -3   0  23    3.24    2.08
  -3   0  23    1.28    1.51
   3  -1 -23   -0.19    4.04
  -3   1  23    1.58    1.47
  -3   1  23   -0.20    1.99
   3  -2 -23    3.86    4.06
  -3   2  23    3.58    1.80
  -3   2  23    6.41    2.32
   3  -3 -23    2.31    3.67
  -3   3  23    0.12    1.27
  -4  -3  23    0.15    1.53
   4   1 -23   -0.57    4.40
  -4  -1  23    4.66    2.17
   4   0 -23   -1.96    4.29
  -4   0  23   -0.46    1.27
  -4   0  23    0.28    1.94
   4  -1 -23    1.55    4.30
  -4   1  23    4.14    1.61
  -4   1  23    4.10    2.25
   4  -2 -23    2.21    3.84
  -2  -4  23   -2.56    1.73
  -4   2  23    1.39    1.90
  -4   2  23    1.74    1.19
   4  -3 -23    2.68    3.94
   3   4 -23   11.51    4.78
  -4   3  23    2.11    2.23
  -3  -4  23    8.03    2.31
  -4   3  23    3.99    1.61
  -3  -4  23    1.91    1.86
   4   4 -23   -0.63    4.81
  -4  -4  23   -0.60    1.44
  -4  -4  23    0.40    1.94
   5   4 -23    3.84    5.08
  -5  -4  23    0.80    2.29
  -5  -4  23    0.71    1.47
   5   3 -23   -2.04    4.87
  -5  -3  23    0.07    1.38
  -5  -3  23    6.80    2.22
  -5  -2  23    0.53    1.30
   5   0 -23    3.60    4.11
  -5   0  23    0.09    2.03
   5  -1 -23   -3.37    4.01
  -5   1  23    1.21    1.19
  -5   1  23   -0.73    1.93
   5  -2 -23   -0.50    3.93
   5  -2 -23    1.09    0.82
   2   5 -23    1.75    4.54
  -5   2  23    0.48    1.12
  -2  -5  23    0.18    1.67
  -5   2  23    0.18    1.85
  -2  -5  23   -0.11    2.11
   3   5 -23    2.92    4.93
   5  -3 -23    4.45    1.10
  -3  -5  23    2.21    2.26
  -3  -5  23    1.81    1.72
  -5   3  23    4.43    2.09
  -5   3  23    0.65    1.27
   4   5 -23    5.15    5.09
  -4  -5  23    0.21    2.21
  -4  -5  23    3.12    1.68
   5   5 -23   -2.21    4.96
  -5  -5  23    0.07    1.49
  -5  -5  23    0.62    2.26
   6   5 -23    1.56    5.08
   6   5 -23    2.50    1.22
  -6  -5  23    0.15    1.50
  -6  -5  23   -0.83    2.24
   6   4 -23    1.12    0.98
   6   4 -23    0.40    5.24
  -6  -4  23    0.21    1.52
  -6  -4  23    0.10    2.14
   6   3 -23   -1.57    0.97
   6   3 -23   -3.74    5.22
  -6  -3  23    0.34    1.39
  -6  -3  23   -5.17    2.30
   6   2 -23    9.86    5.14
   6   2 -23    1.78    1.27
  -6  -2  23    1.23    1.52
  -6  -2  23    7.45    2.48
   6   1 -23   -0.07    0.90
  -6  -1  23    0.06    1.24
   6  -1 -23    6.41    1.58
  -6   1  23    0.37    2.52
   6  -2 -23    2.33    1.34
   2   6 -23    3.12    5.01
  -6   2  23    9.32    2.51
  -2  -6  23    0.89    2.35
  -6   2  23    3.57    1.51
   3   6 -23    5.71    4.95
  -6   3  23   -0.10    1.04
  -6   3  23   -1.24    2.12
  -3  -6  23    2.72    2.20
   4   6 -23    2.74    5.17
  -4  -6  23    0.11    2.21
   5   6 -23    0.11    4.98
  -5  -6  23   -0.11    2.11
   6   6 -23    2.18    5.22
   6   6 -23   -2.86    1.07
  -6  -6  23    0.11    2.26
   7   6 -23    0.43    1.22
   7   6 -23    0.78    5.37
  -7  -6  23    0.11    2.27
  -7  -6  23    1.29    1.47
   7   5 -23   -0.64    5.61
   7   5 -23    0.08    1.11
  -7  -5  23   -0.51    1.59
  -7  -5  23    3.10    2.29
   7   4 -23   -2.91    1.23
   7   4 -23   -3.98    7.28
  -7  -4  23   -7.08    1.95
  -7  -4  23    0.60    2.44
   7   3 -23   -1.27    4.94
   7   3 -23    1.88    1.09
  -7  -3  23    0.39    2.18
  -7  -3  23    0.07    1.42
   7   2 -23   -1.08    0.93
   7   2 -23    0.09    4.61
  -7  -2  23    0.13    1.22
  -7  -2  23    6.14    2.25
   7   1 -23    1.36    4.62
   7   1 -23    0.69    0.96
  -7  -1  23    2.08    2.05
  -7  -1  23   -1.46    1.15
   7   0 -23   -0.07    0.90
  -7   0  23    0.52    1.07
   7  -2 -23    4.64    4.10
   2   7 -23    1.00    5.01
  -7   2  23   -0.64    2.16
  -2  -7  23    0.58    2.31
  -2  -7  23   -0.09    1.81
   3   7 -23    3.65    5.31
  -3  -7  23    1.52    1.80
  -3  -7  23    0.45    2.24
   4   7 -23   -1.67    5.29
  -4  -7  23    0.11    2.30
  -4  -7  23   -0.25    1.59
   5   7 -23    2.78    5.23
  -5  -7  23   -0.33    2.24
  -5  -7  23   -1.36    1.56
   6   7 -23    1.46    1.12
   6   7 -23   -0.80    5.43
  -6  -7  23    0.11    2.43
  -6  -7  23   -2.46    1.49
   7   7 -23    1.18    5.81
  -7  -7  23   -0.45    2.38
  -7  -7  23   -0.08    1.42
   8   7 -23   34.43   11.16
   8   6 -23    1.38    5.73
   8   6 -23   -0.73    1.31
  -8  -6  23   -1.29    2.40
  -8  -6  23    1.24    1.46
   8   5 -23    1.83    1.25
   8   5 -23    1.43    5.59
  -8  -5  23    0.67    1.49
  -8  -5  23    0.93    2.22
   8   4 -23   -1.33    1.09
   8   4 -23    0.85    5.20
  -8  -4  23   -1.31    2.20
  -8  -4  23    1.20    1.37
   8   3 -23    1.83    5.14
   8   3 -23    0.40    1.06
  -8  -3  23    0.29    2.08
  -8  -3  23   -0.14    1.25
   8   2 -23    1.76    4.82
   8   2 -23   -1.07    1.06
  -8  -2  23   -1.35    2.03
  -8  -2  23   -1.12    1.31
   8   1 -23   -2.72    4.66
   8   1 -23    0.44    0.98
  -8  -1  23   -0.13    1.16
  -8  -1  23    0.29    2.19
   8   0 -23    1.66    1.01
   8   0 -23   -2.80    4.56
  -8   0  23   -3.21    2.10
  -8   0  23   -0.42    1.15
   8  -1 -23    2.84    0.98
  -8   1  23    0.30    1.12
   2   8 -23    0.39    5.33
  -2  -8  23    1.58    1.82
  -2  -8  23   -3.11    2.38
   3   8 -23   -2.03    5.48
  -3  -8  23   -1.66    1.76
  -3  -8  23   -3.53    2.33
   4   8 -23   -4.38    5.60
  -4  -8  23   -2.32    2.38
  -4  -8  23    1.04    1.61
   5   8 -23    5.07    5.70
   5   8 -23    0.63    1.32
  -5  -8  23    0.12    2.39
  -5  -8  23    2.31    1.65
   6   8 -23    1.56    5.83
   6   8 -23    1.10    1.37
  -6  -8  23   -0.12    2.60
  -6  -8  23    1.00    1.53
   7   8 -23    9.04    7.25
   7   8 -23    0.38    2.52
  -7  -8  23   13.79    2.85
   8   8 -23    0.20    1.34
   8   8 -23   -0.51    6.28
  -8  -8  23   -1.90    1.56
  -8  -8  23   -2.15    2.63
   9   8 -23    2.19    1.61
   9   8 -23    1.44    6.56
  -9  -8  23    0.09    1.69
  -9  -8  23    1.08    2.54
   9   7 -23    2.99    5.95
  -9  -7  23   -0.11    2.36
   9   6 -23    0.10    1.37
   9   6 -23  -16.38    6.51
  -9  -6  23   -4.35    1.72
  -9  -6  23   -1.52    2.43
   9   5 -23   -0.19    1.42
   9   5 -23    0.11    5.93
  -9  -5  23   -0.10    2.09
  -9  -5  23   -6.61    1.57
   9   4 -23   -0.09    1.24
   9   4 -23    1.08    5.67
  -9  -4  23    0.86    1.46
  -9  -4  23    2.84    2.27
   9   3 -23    0.78    1.23
   9   3 -23  -12.89    5.38
  -9  -3  23   -0.10    2.10
   9   2 -23    1.20    5.15
   9   2 -23    0.08    1.19
  -9  -2  23    1.01    1.34
  -9  -2  23   -1.56    2.18
   9   1 -23   -1.92    1.05
   9   1 -23  -13.59    5.21
  -9  -1  23    0.48    1.29
  -9  -1  23    2.12    2.13
   9   0 -23    0.93    4.90
   9   0 -23   -0.64    1.08
  -9   0  23    0.92    1.20
  -9   0  23   -1.91    2.20
   9  -1 -23   -0.08    1.02
   9  -1 -23    0.80    4.56
  -9   1  23   -0.10    2.10
  -9   1  23   -2.78    1.18
   2   9 -23    0.40    5.41
   9  -2 -23   -1.79    1.03
   9  -2 -23   -5.30    4.47
  -9   2  23   -0.37    1.03
  -9   2  23   -0.86    2.18
  -2  -9  23   -0.92    1.99
  -2  -9  23   -1.00    2.34
   3   9 -23    4.76    5.58
  -3  -9  23    0.49    2.35
  -3  -9  23    1.06    1.91
   4   9 -23    0.79    5.87
  -4  -9  23   -3.05    2.49
  -4  -9  23   -2.27    1.76
   5   9 -23    0.66    1.38
   5   9 -23   -1.82    6.08
  -5  -9  23    4.40    2.60
  -5  -9  23    2.59    1.72
   6   9 -23   -0.68    1.46
   6   9 -23  -10.94    6.58
  -6  -9  23    0.12    2.85
  -6  -9  23    0.09    1.71
   7   9 -23   -1.83    1.37
   7   9 -23  -18.20    6.64
  -7  -9  23   -1.64    1.62
  -7  -9  23    0.13    2.60
   8   9 -23    0.64    1.53
   8   9 -23    2.53    6.55
  -8  -9  23    0.13    2.69
  -8  -9  23    0.63    1.73
   9   9 -23    0.92    1.60
   9   9 -23   -8.82    7.00
  -9  -9  23    0.10    1.80
  -9  -9  23   -0.13    2.76
  10   9 -23   -2.20    1.74
 -10  -9  23   -6.94    2.16
 -10  -9  23   -0.13    3.03
  10   8 -23   -2.41    6.63
  10   8 -23    0.93    1.55
 -10  -8  23   -0.12    2.53
 -10  -8  23   -1.61    1.81
  10   7 -23    1.27    6.44
 -10  -7  23   -2.51    2.36
  10   6 -23    0.53    1.43
  10   6 -23    0.85    6.00
 -10  -6  23    0.09    1.71
 -10  -6  23    0.66    2.27
  10   5 -23   28.11    6.15
  10   5 -23    0.50    1.77
 -10  -5  23    1.27    2.55
 -10  -5  23    6.75    1.96
  10   4 -23    1.67    5.94
  10   4 -23   -0.67    1.35
 -10  -4  23    3.11    1.47
 -10  -4  23   -0.10    2.27
  10   3 -23   -0.97    5.63
  10   3 -23   -0.46    1.30
 -10  -3  23   -6.29    1.57
 -10  -3  23   -0.90    2.29
  10   2 -23   -1.34    5.31
  10   2 -23    0.81    1.22
 -10  -2  23    0.08    1.33
 -10  -2  23    1.57    2.17
  10   1 -23    1.09    5.08
  10   1 -23    0.26    1.17
 -10  -1  23    0.29    2.15
 -10  -1  23    0.23    1.32
  10   0 -23    0.10    5.03
  10   0 -23   -2.18    1.14
 -10   0  23   -3.34    1.31
  10  -1 -23   -1.94    4.87
  10  -1 -23    3.17    1.08
 -10   1  23    0.15    1.26
 -10   1  23   -1.35    2.14
  10  -2 -23    2.07    1.02
   2  10 -23   -6.45    5.57
  10  -2 -23    7.08    4.72
 -10   2  23    1.74    1.29
 -10   2  23   -6.92    2.29
  -2 -10  23   -3.40    2.59
  -2 -10  23    4.26    2.18
   3  10 -23   -0.97    6.02
  -3 -10  23   -2.59    1.94
  -3 -10  23   -2.99    2.69
   4  10 -23   -0.14    6.36
  -4 -10  23   -0.56    1.76
  -4 -10  23    0.39    2.57
   5  10 -23    5.23    6.50
   5  10 -23    0.10    1.41
  -5 -10  23    3.39    2.78
  -5 -10  23   -2.62    1.79
   6  10 -23    1.37    6.43
   6  10 -23    0.61    1.48
  -6 -10  23   -0.13    2.86
  -6 -10  23   -0.54    1.71
   7  10 -23    3.44    6.63
   7  10 -23    1.07    1.58
  -7 -10  23    1.84    1.73
  -7 -10  23    0.13    2.88
   8  10 -23   -4.78    6.74
   8  10 -23    1.97    1.45
  -8 -10  23   -4.60    2.98
  -8 -10  23    0.66    1.78
   9  10 -23   -4.26    1.98
  10  10 -23    0.13    1.71
  10  10 -23   -2.84    7.22
 -10 -10  23   -0.27    2.94
 -10 -10  23    2.21    1.90
  11  10 -23   -2.43    7.67
  11  10 -23    0.42    1.85
 -11 -10  23    1.22    2.88
 -11 -10  23   -1.48    2.21
  11   9 -23   -0.53    1.54
  11   9 -23  -14.86    7.25
 -11  -9  23   -0.13    2.90
 -11  -9  23   -0.24    2.02
  11   7 -23    1.70    6.70
 -11  -7  23    0.69    2.55
  11   6 -23    0.56    1.51
  11   6 -23    5.87    6.45
 -11  -6  23   -2.57    1.75
 -11  -6  23    0.55    2.35
  11   5 -23    1.19    1.44
  11   5 -23    6.70    6.20
 -11  -5  23    0.10    1.76
 -11  -5  23    1.17    2.43
  11   4 -23   -1.56    1.44
  11   4 -23   -3.67    5.92
 -11  -4  23    0.09    1.65
 -11  -4  23    0.10    2.23
  11   3 -23    1.20    1.37
  11   3 -23   -0.22    5.68
 -11  -3  23    0.10    2.16
 -11  -3  23    0.09    1.60
  11   2 -23   -3.50    5.47
  11   2 -23   -0.78    1.10
 -11  -2  23    1.48    2.13
 -11  -2  23   -0.17    1.43
  11   1 -23    4.80    5.29
  11   1 -23    0.57    1.25
 -11  -1  23    1.07    2.08
 -11  -1  23   -2.07    1.43
  11   0 -23   -0.56    1.22
  11   0 -23   -0.49    5.28
 -11   0  23    0.08    1.46
 -11   0  23    0.19    2.14
  11  -1 -23    3.51    5.04
  11  -1 -23    0.19    1.15
 -11   1  23    0.67    2.16
 -11   1  23    0.08    1.37
   2  11 -23    7.33    6.13
 -11   2  23    0.08    1.33
  -2 -11  23   -2.09    2.31
   3  11 -23    1.16    6.20
  -3 -11  23    0.41    2.62
  -3 -11  23   -0.10    2.05
   4  11 -23    5.68    6.54
  -4 -11  23    0.14    2.91
  -4 -11  23    1.36    1.93
   5  11 -23    1.59    1.50
   5  11 -23    6.90    6.87
  -5 -11  23    1.34    1.96
  -5 -11  23    0.14    2.86
   6  11 -23   -0.22    1.58
   6  11 -23   -9.00    6.74
  -6 -11  23    1.98    1.83
  -6 -11  23   -2.95    2.96
   7  11 -23   -9.42    7.09
   7  11 -23   -0.11    1.66
  -7 -11  23    0.48    1.87
  -7 -11  23   -0.14    3.00
   8  11 -23    9.38    2.98
  -8 -11  23    0.87    4.58
   9  11 -23    2.69    1.89
   9  11 -23   -1.07    7.53
  -9 -11  23    0.65    1.99
  -9 -11  23    0.15    3.18
  10  11 -23    0.28    1.83
  10  11 -23   -0.47    7.94
 -10 -11  23   -1.32    2.05
 -10 -11  23   -4.77    3.11
  11  11 -23   -2.74    7.88
 -11 -11  23   -0.14    3.07
  12   9 -23   -8.47    7.90
  12   9 -23    1.42    1.96
 -12  -9  23    0.13    3.07
 -12  -9  23    1.92    2.15
  12   8 -23   -2.55    7.41
  12   8 -23   -0.67    1.72
 -12  -8  23    5.75    2.75
 -12  -8  23    0.12    2.16
  12   7 -23  -12.80    7.51
  12   7 -23   -3.46    1.99
 -12  -7  23    0.12    2.69
  12   6 -23   -1.59    1.84
 -12  -6  23   -0.11    2.65
  12   5 -23   -4.55    6.35
  12   5 -23   -1.41    1.46
 -12  -5  23    2.36    2.34
 -12  -5  23    2.36    1.88
  12   4 -23   -3.52    6.02
  12   4 -23    0.34    1.48
 -12  -4  23    0.10    1.70
 -12  -4  23   -0.10    2.13
  12   3 -23   -1.45    1.47
  12   3 -23   -2.71    5.72
 -12  -3  23    0.10    2.00
 -12  -3  23    1.19    1.67
  12   2 -23   -0.54    5.51
  12   2 -23   -1.74    1.45
 -12  -2  23    0.86    1.58
 -12  -2  23    0.79    2.17
  12   1 -23    0.11    1.36
  12   1 -23    6.48    5.48
 -12  -1  23    6.81    2.38
 -12  -1  23    3.04    1.74
  12   0 -23   -0.11    1.35
  12   0 -23   -1.91    5.33
 -12   0  23    0.10    2.18
  12  -1 -23    0.63    1.36
  12  -1 -23   -0.10    5.07
 -12   1  23    2.58    2.20
  -2 -12  23   -6.67    2.78
   3  12 -23   -9.44    6.55
  -3 -12  23   -2.88    2.15
  -3 -12  23   -2.90    2.87
   4  12 -23    0.11    1.61
   4  12 -23   -8.12    6.74
  -4 -12  23    0.10    1.90
  -4 -12  23    0.15    2.78
   5  12 -23    3.57    7.20
   5  12 -23   -1.59    1.59
  -5 -12  23    0.10    1.90
  -5 -12  23   -2.51    3.04
   6  12 -23   -1.28    1.78
  -6 -12  23   -7.80    3.41
  -6 -12  23   -4.80    2.16
   7  12 -23   -5.17    2.03
   8  12 -23    7.37    7.66
   8  12 -23   -1.03    1.67
  -8 -12  23    0.16    3.27
  -8 -12  23   -2.07    2.04
   9  12 -23    0.28    1.82
   9  12 -23    1.45    7.96
  -9 -12  23    0.56    2.13
  -9 -12  23    2.81    3.41
  10  12 -23   -3.33    1.39
  10  12 -23   10.08    8.32
 -10 -12  23   -0.75    2.25
 -10 -12  23   -6.55    3.30
  13   8 -23   -0.59    7.72
 -13  -8  23   -4.82    2.82
  13   7 -23    1.72    1.83
  13   7 -23  -10.17    7.51
 -13  -7  23    0.12    2.63
  13   6 -23   -2.47    1.61
  13   6 -23    1.32    6.87
 -13  -6  23    0.11    2.40
  13   5 -23   -0.66    1.74
  13   5 -23   -6.72    6.61
 -13  -5  23   -2.06    2.35
  13   3 -23   -0.12    1.56
  13   3 -23   -9.89    6.22
 -13  -3  23   -2.25    2.12
  13   2 -23   -0.56    5.65
 -13  -2  23   -2.38    2.15
  13   1 -23   -7.93    5.43
 -13  -1  23   -1.75    2.17
  13   0 -23   -0.41    5.37
 -13   0  23    1.53    2.09
  13  -1 -23   -2.56    5.09
 -13   1  23    0.09    2.11
  -2 -13  23    2.23    2.38
   3  13 -23  -15.25    7.22
  -3 -13  23    0.65    2.20
  -3 -13  23    0.15    2.93
  -4 -13  23    3.88    4.22
  -4 -13  23    3.43    2.88
   5  13 -23   -0.59    1.74
   5  13 -23   -9.32    7.62
  -5 -13  23   -2.06    2.06
   6  13 -23   -0.62    1.76
   6  13 -23    7.06    8.06
  -6 -13  23    4.37    1.97
  -6 -13  23    0.48    3.30
   7  13 -23    2.98    1.67
   7  13 -23  -12.71    8.04
  -7 -13  23    0.16    3.59
  -7 -13  23   -1.37    1.99
   8  13 -23   -2.78    1.88
   8  13 -23   -8.10    8.06
  -8 -13  23   -0.17    3.73
  -8 -13  23    0.90    2.12
   9  13 -23   -1.17    2.06
   9  13 -23    5.28    8.58
  -9 -13  23   -4.80    2.25
  -9 -13  23    0.17    3.68
  -2 -14  23    0.12    2.32
   3  14 -23    5.29    6.60
  -3 -14  23   -0.56    2.24
   4  14 -23    2.21    1.80
   4  14 -23   -5.36    7.25
  -4 -14  23    1.63    2.04
  -4 -14  23    0.99    3.32
   5  14 -23   -0.26    1.59
   5  14 -23    0.34    7.66
  -5 -14  23   -0.34    3.36
  -5 -14  23   -0.53    2.12
   6  14 -23    1.55    1.74
   6  14 -23    5.06    8.15
  -6 -14  23   -1.28    2.14
  -6 -14  23    0.17    3.59
   7  14 -23   -2.63    1.87
   7  14 -23    0.53    8.32
  -7 -14  23    0.70    3.68
  -7 -14  23    1.62    2.02
   8  14 -23   -6.01    8.75
   8  14 -23    3.77    2.17
  -8 -14  23    3.87    2.29
  -8 -14  23    0.18    3.67
   3  15 -23   -0.26    1.84
   4  15 -23    5.91    7.38
   4  15 -23    0.39    1.92
  -4 -15  23    0.17    3.38
   5  15 -23    2.51    1.85
   5  15 -23   -0.89    7.95
  -5 -15  23    2.68    3.67
  -5 -15  23    0.87    2.15
   6  15 -23    6.59    8.39
   6  15 -23   -0.55    1.83
  -6 -15  23    0.18    3.72
  -6 -15  23   -1.63    2.02
   7  15 -23  -15.15    9.00
  -7 -15  23    1.50    3.87
  -2   0  24    3.69    1.90
  -2   1  24   -0.33    1.52
  -2   2  24    0.24    1.53
  -3  -2  24   -1.04    1.61
  -2   3  24    1.53    1.50
   3   0 -24    1.25    4.31
  -3   0  24    2.10    2.09
   3  -1 -24    2.65    4.18
  -3   1  24    2.28    1.51
  -3   1  24    0.31    2.04
   3  -2 -24    0.10    4.03
   2   3 -24   15.15    4.68
  -2  -3  24   -0.09    1.90
  -3   2  24   -0.77    1.60
  -2  -3  24   13.45    2.31
   3   3 -24    2.02    4.72
   3  -3 -24    3.05    3.79
  -3  -3  24    0.11    2.23
  -3   3  24    1.93    1.45
  -3  -3  24    0.08    1.55
   4   3 -24    5.23    5.25
  -4  -3  24    1.09    1.98
  -4  -3  24    8.48    2.62
   4   2 -24    6.96    4.87
  -4  -2  24   15.26    2.48
  -4  -2  24   -1.13    2.06
  -4   0  24   -0.10    2.07
  -4   1  24    7.91    1.93
  -4   1  24    0.10    2.48
   2   4 -24   -1.19    4.57
   4  -2 -24   -6.71    4.44
  -2  -4  24    0.09    1.76
  -4   2  24   -1.29    2.18
  -4   2  24   -0.45    1.28
  -2  -4  24   -0.91    2.14
   3   4 -24   -1.62    5.01
  -3  -4  24    0.11    2.48
  -3  -4  24    0.17    1.85
  -4   3  24    9.44    2.64
  -4   3  24    3.58    1.54
   4   4 -24    0.11    5.05
  -4  -4  24    0.08    1.50
  -4  -4  24   -1.07    2.34
   5   4 -24    2.09    5.01
  -5  -4  24   -0.53    2.19
  -5  -4  24   -1.05    1.47
   5   3 -24    1.90    4.94
  -5  -3  24    2.90    2.29
  -5  -3  24   -0.07    1.46
   5   2 -24    0.82    5.12
  -5  -2  24    0.42    1.39
  -5  -2  24   -4.98    2.31
  -5  -1  24    0.07    1.52
   5  -1 -24   27.08    6.79
  -5   1  24   13.45    5.21
   5  -2 -24    0.24    0.92
   2   5 -24    0.12    4.74
  -2  -5  24   -2.08    2.32
  -2  -5  24    0.09    1.80
  -5   2  24    1.99    1.16
  -5   2  24   -1.94    2.24
   3   5 -24   -5.25    4.95
  -3  -5  24   -0.26    1.69
  -5   3  24    1.08    1.05
  -3  -5  24   -0.11    2.26
   4   5 -24   -0.82    5.31
  -4  -5  24    2.31    1.61
  -4  -5  24    2.30    2.25
   5   5 -24    0.69    5.13
  -5  -5  24   -2.29    2.27
  -5  -5  24   -0.39    1.49
   6   5 -24    0.49    1.12
   6   5 -24    1.66    5.21
  -6  -5  24   -0.55    2.27
  -6  -5  24   -0.08    1.53
   6   4 -24    1.38    5.22
   6   4 -24    0.79    1.14
  -6  -4  24    1.33    1.52
  -6  -4  24   -1.29    2.39
   6   3 -24   -0.82    5.01
   6   3 -24    0.45    1.09
  -6  -3  24    4.72    2.36
  -6  -3  24   -1.34    1.43
   6   2 -24   -2.26    4.89
   6   2 -24    0.14    0.94
  -6  -2  24   -1.95    2.38
  -6  -2  24   -0.07    1.38
   6   1 -24    0.85    4.72
   6   1 -24   -0.56    1.00
  -6  -1  24   -3.95    2.25
  -6  -1  24   -0.07    1.27
   6   0 -24    1.07    0.96
  -6   0  24   -0.76    1.22
   2   6 -24    0.13    4.89
   6  -2 -24    2.85    4.22
  -2  -6  24   -0.24    2.20
  -6   2  24    2.03    2.16
   3   6 -24   -0.49    5.24
  -3  -6  24   -0.35    2.36
   4   6 -24   -2.19    5.36
  -4  -6  24    0.11    2.26
   5   6 -24   -0.24    5.54
  -5  -6  24    0.34    2.30
   6   6 -24    0.70    5.45
   6   6 -24    1.89    1.28
  -6  -6  24    0.16    1.66
  -6  -6  24    0.11    2.40
   7   6 -24   -9.39    5.85
   7   6 -24    0.54    1.26
  -7  -6  24   -1.28    1.57
  -7  -6  24    1.96    2.40
   7   5 -24   -1.13    1.20
   7   5 -24   -1.25    5.62
  -7  -5  24   -0.08    1.51
  -7  -5  24   -0.11    2.44
   7   4 -24    1.66    1.19
   7   4 -24    0.22    5.48
  -7  -4  24    0.11    2.16
  -7  -4  24    0.59    1.45
   7   3 -24   -2.41    5.29
   7   3 -24   -0.08    1.11
  -7  -3  24   -4.11    2.24
  -7  -3  24   -0.07    1.43
   7   2 -24    3.23    5.06
   7   2 -24    1.75    1.12
  -7  -2  24    1.29    1.41
  -7  -2  24    1.55    2.25
   7   1 -24   -0.10    4.95
   7   1 -24   -0.07    0.97
  -7  -1  24   -3.37    1.30
  -7  -1  24    3.37    2.28
   7   0 -24    1.05    1.02
   7   0 -24   -9.79    4.66
  -7   0  24    2.22    1.24
  -7   0  24    0.71    2.15
   7  -1 -24    0.75    0.92
  -7   1  24   -1.52    1.14
   2   7 -24   -2.49    5.12
  -2  -7  24    0.12    2.29
  -2  -7  24   -0.10    1.92
   3   7 -24   -0.26    5.30
  -3  -7  24    0.09    1.87
  -3  -7  24    0.12    2.39
   4   7 -24    0.38    5.59
  -4  -7  24    1.25    1.83
  -4  -7  24    1.41    2.41
   5   7 -24   -1.88    5.77
  -5  -7  24    0.08    1.61
  -5  -7  24    0.12    2.41
   6   7 -24   -3.45    5.66
  -6  -7  24   -0.12    2.44
   7   7 -24   54.30   15.79
   8   7 -24    0.51    6.24
  -8  -7  24    0.12    2.52
   8   6 -24    6.95    6.32
   8   6 -24    1.92    1.41
  -8  -6  24   -0.74    1.67
  -8  -6  24    0.12    2.59
   8   5 -24   -1.86    5.78
   8   5 -24   -2.11    1.33
  -8  -5  24   -5.17    1.54
  -8  -5  24    0.11    2.54
   8   4 -24    0.67    5.76
   8   4 -24    0.88    1.25
  -8  -4  24   -0.11    2.28
  -8  -4  24    0.08    1.37
   8   3 -24    1.77    1.27
   8   3 -24   -0.43    5.63
  -8  -3  24   -5.82    1.43
  -8  -3  24   -5.38    2.26
   8   2 -24    0.93    5.27
   8   2 -24    0.16    1.15
  -8  -2  24   -1.03    1.32
  -8  -2  24    5.71    2.48
   8   1 -24   -4.50    1.09
   8   1 -24   10.97    5.21
  -8  -1  24    0.10    2.22
  -8  -1  24    0.07    1.29
   8   0 -24    9.77    4.96
   8   0 -24    2.08    1.05
  -8   0  24    0.10    2.25
  -8   0  24    0.76    1.29
   8  -1 -24   -1.83    4.53
   8  -1 -24   -1.17    0.94
  -8   1  24   -0.36    1.07
  -8   1  24    0.10    2.22
   2   8 -24   -4.22    5.36
  -2  -8  24    1.35    2.11
  -2  -8  24    0.13    2.45
   3   8 -24   -0.13    5.74
  -3  -8  24    0.25    2.57
  -3  -8  24   -3.78    1.96
   4   8 -24    0.53    6.07
  -4  -8  24    0.46    1.81
  -4  -8  24   -0.12    2.50
   5   8 -24   -0.26    5.99
   5   8 -24   -0.56    1.47
  -5  -8  24   -6.38    2.55
  -5  -8  24    0.53    1.73
   6   8 -24   -1.04    1.39
   6   8 -24   -0.65    6.26
  -6  -8  24    0.09    1.70
  -6  -8  24    0.87    2.63
   7   8 -24   -0.60    1.39
   7   8 -24   -5.63    6.44
  -7  -8  24    0.25    2.70
  -7  -8  24    0.35    1.71
   8   8 -24    6.16    6.53
   8   8 -24    3.08    1.55
  -8  -8  24    0.09    1.77
  -8  -8  24   -0.26    2.83
   9   8 -24   -2.57    1.54
   9   8 -24    1.25    6.93
  -9  -8  24    0.13    2.87
  -9  -8  24    0.79    1.81
   9   7 -24   -0.13    6.42
  -9  -7  24   -3.51    2.52
   9   6 -24    0.71    1.37
   9   6 -24    1.77    6.23
  -9  -6  24    0.09    1.66
  -9  -6  24   -1.74    2.43
   9   5 -24   -0.67    1.34
   9   5 -24    1.33    6.04
  -9  -5  24    0.11    2.47
  -9  -5  24   -0.09    1.54
   9   4 -24   10.78    6.40
   9   4 -24    3.32    2.05
  -9  -4  24    7.61    3.02
  -9  -4  24    7.68    2.28
   9   3 -24    1.59    1.22
   9   3 -24    3.34    5.60
  -9  -3  24    0.24    1.49
  -9  -3  24    0.11    2.28
   9   2 -24    0.26    1.17
   9   2 -24    4.07    5.50
  -9  -2  24   -0.10    2.29
  -9  -2  24    0.76    1.46
   9   1 -24    0.34    1.16
   9   1 -24   -1.96    5.24
  -9  -1  24    0.73    2.28
  -9  -1  24    3.05    1.43
   9   0 -24    9.24    5.03
   9   0 -24    2.26    1.09
  -9   0  24    1.55    2.39
  -9   0  24   -1.32    1.29
   9  -1 -24   -0.96    1.13
   9  -1 -24    4.97    4.74
  -9   1  24   -2.05    1.27
  -9   1  24    5.86    2.34
   9  -2 -24   -0.62    0.99
   2   9 -24   -1.13    5.45
  -9   2  24    1.33    2.27
  -9   2  24    0.58    1.22
  -2  -9  24   -1.71    2.00
   3   9 -24    1.82    5.69
  -3  -9  24   -0.41    1.96
  -3  -9  24    0.39    2.41
   4   9 -24   -0.84    6.32
  -4  -9  24    0.96    1.94
  -4  -9  24   -0.65    2.70
   5   9 -24   -1.26    6.48
   5   9 -24   -0.40    1.35
  -5  -9  24   -5.98    2.74
  -5  -9  24    0.09    1.74
   6   9 -24    2.64    1.58
   6   9 -24    0.14    6.33
  -6  -9  24    0.55    1.74
  -6  -9  24   -2.37    2.89
   7   9 -24    2.20    1.47
   7   9 -24   11.81    6.77
  -7  -9  24    0.13    2.83
  -7  -9  24   -0.09    1.78
   8   9 -24   13.50    6.99
   8   9 -24   -2.58    1.62
  -8  -9  24    0.81    2.87
  -8  -9  24   -7.44    1.86
   9   9 -24  -12.10    7.40
   9   9 -24    2.18    1.62
  -9  -9  24   -0.10    1.92
  -9  -9  24   -1.76    3.07
  10   9 -24    6.00    7.49
  10   9 -24   -0.64    1.83
 -10  -9  24   -2.71    2.95
 -10  -9  24    0.22    2.06
  10   8 -24   -5.12    1.81
 -10  -8  24   -3.96    2.95
 -10  -8  24   -1.69    2.00
  10   7 -24   -0.70    1.53
  10   7 -24    5.03    6.94
 -10  -7  24    0.12    2.61
  10   6 -24   -0.44    1.47
  10   6 -24    2.45    6.63
 -10  -6  24   -0.12    2.55
 -10  -6  24   -1.16    1.73
  10   5 -24    8.40    6.43
  10   5 -24    3.16    1.64
 -10  -5  24    0.56    2.62
 -10  -5  24    2.49    1.82
  10   4 -24    1.11    1.48
  10   4 -24    4.86    6.24
 -10  -4  24    0.22    2.47
 -10  -4  24    1.94    1.66
  10   3 -24   -2.03    1.23
  10   3 -24   -1.25    5.78
 -10  -3  24   -0.08    1.54
 -10  -3  24    1.19    2.34
  10   2 -24   -9.98    5.58
  10   2 -24   -3.07    1.32
 -10  -2  24   -5.29    1.48
 -10  -2  24    0.11    2.44
  10   1 -24    2.63    1.27
  10   1 -24  -11.32    5.66
 -10  -1  24    0.32    2.31
 -10  -1  24   -2.89    1.38
  10   0 -24    0.09    1.20
  10   0 -24   -7.44    5.51
 -10   0  24   -3.67    2.31
 -10   0  24    0.47    1.49
  10  -1 -24    0.09    1.17
  10  -1 -24   -8.03    5.32
 -10   1  24   -3.81    1.43
 -10   1  24   -2.83    2.31
   2  10 -24   -2.07    5.79
 -10   2  24    2.26    1.37
  -2 -10  24   -1.35    2.08
   3  10 -24    4.39    5.86
  -3 -10  24   -0.10    2.04
  -3 -10  24    0.82    2.66
   4  10 -24    2.05    6.29
  -4 -10  24   -0.14    2.72
  -4 -10  24    3.00    2.00
   5  10 -24   -1.03    6.82
   5  10 -24    2.61    1.66
  -5 -10  24    4.38    2.00
  -5 -10  24   -0.82    2.93
   6  10 -24    5.75    6.65
   6  10 -24   -1.61    1.41
  -6 -10  24    1.62    1.83
  -6 -10  24   -3.61    2.92
   7  10 -24   -0.79    1.53
   7  10 -24    4.64    6.84
  -7 -10  24    0.14    2.96
  -7 -10  24   -1.05    1.80
   8  10 -24   -2.96    1.79
   9  10 -24    6.57    7.72
   9  10 -24   -0.13    1.81
  -9 -10  24    2.71    2.09
  -9 -10  24    0.14    3.06
  10  10 -24    1.76    1.83
  10  10 -24   -4.42    8.09
 -10 -10  24    1.58    3.26
 -10 -10  24    1.62    2.23
  11  10 -24    2.43    8.00
 -11 -10  24   -0.72    3.25
  11   9 -24   -0.15    7.83
  11   9 -24   -0.69    1.91
 -11  -9  24    2.79    2.13
 -11  -9  24   -2.18    2.88
  11   8 -24    3.93    7.42
 -11  -8  24    2.19    2.88
 -11  -8  24    0.46    2.07
  11   6 -24    1.46    6.71
  11   6 -24    0.35    1.53
 -11  -6  24   -2.86    1.86
 -11  -6  24    0.83    2.46
  11   5 -24   -6.22    6.37
  11   5 -24   -0.45    1.44
 -11  -5  24    0.11    2.46
 -11  -5  24    0.51    1.83
  11   4 -24   -2.80    6.16
  11   4 -24   -1.52    1.35
 -11  -4  24   -0.10    1.73
 -11  -4  24   -3.31    2.34
  11   3 -24   -1.05    6.09
  11   3 -24   -0.10    1.22
 -11  -3  24   -0.95    1.66
 -11  -3  24    0.11    2.32
  11   2 -24    4.44    1.61
  11   2 -24   -0.45    5.94
 -11  -2  24    9.61    2.65
 -11  -2  24   -0.18    1.77
  11   1 -24   -2.06    1.14
  11   1 -24   -0.98    5.54
 -11  -1  24    0.11    2.30
 -11  -1  24   -0.09    1.52
  11   0 -24    4.09    5.47
  11   0 -24    0.10    1.17
 -11   0  24    0.17    1.48
 -11   0  24   -1.89    2.35
  11  -1 -24    1.71    5.31
  11  -1 -24   -3.60    1.21
 -11   1  24    1.99    2.43
 -11   1  24    1.74    1.45
   2  11 -24    2.00    6.09
  -2 -11  24   -2.43    2.35
   3  11 -24   -4.13    6.33
  -3 -11  24   -0.14    2.78
  -3 -11  24   -0.11    2.16
   4  11 -24   -1.54    6.70
  -4 -11  24    2.46    2.01
  -4 -11  24   -0.14    2.91
   5  11 -24   -3.11    7.02
   5  11 -24   -0.22    1.61
  -5 -11  24   -1.11    1.93
  -5 -11  24    0.15    2.99
   6  11 -24    0.12    1.64
   6  11 -24   -7.96    7.07
  -6 -11  24    1.29    1.93
  -6 -11  24    1.63    3.19
   7  11 -24   12.42    4.15
   8  11 -24   -1.66    1.79
   8  11 -24    3.79    7.66
  -8 -11  24   -1.66    1.91
  -8 -11  24   -0.15    3.29
   9  11 -24    0.94    1.93
   9  11 -24    8.22    7.84
  -9 -11  24    0.15    3.29
  -9 -11  24    2.04    2.14
  10  11 -24   11.60    8.31
 -10 -11  24   -1.08    3.27
  12   8 -24   -3.89    7.95
 -12  -8  24   -0.92    2.96
  12   7 -24    0.86    7.43
  12   7 -24    0.13    1.87
 -12  -7  24   -0.49    2.13
 -12  -7  24    0.12    2.80
  12   6 -24    0.25    1.61
  12   6 -24   -7.92    7.31
 -12  -6  24   -0.12    2.63
 -12  -6  24    2.47    1.93
  12   4 -24  -11.78    6.59
  12   4 -24   -0.12    1.37
 -12  -4  24   -0.11    2.38
 -12  -4  24   -4.21    1.88
  12   3 -24    0.11    1.34
  12   3 -24   -3.37    6.15
 -12  -3  24    0.43    2.43
 -12  -3  24    0.31    1.73
  12   2 -24   -1.91    1.40
  12   2 -24   -6.72    6.07
 -12  -2  24   -0.80    1.66
 -12  -2  24    0.43    2.27
  12   1 -24    1.32    1.40
  12   1 -24    1.00    5.65
 -12  -1  24    0.58    1.60
 -12  -1  24   -4.64    2.34
  12   0 -24    0.11    1.28
  12   0 -24   -9.00    5.70
 -12   0  24   -0.09    1.50
 -12   0  24    0.21    2.28
  12  -1 -24   -4.12    5.68
  12  -1 -24    3.99    1.51
 -12   1  24    4.16    2.43
  -2 -12  24    0.48    2.43
   3  12 -24   -7.52    6.83
  -3 -12  24   -1.24    2.16
  -3 -12  24    0.15    2.92
   4  12 -24   -2.58    6.91
   4  12 -24    0.35    1.70
  -4 -12  24    0.15    3.10
  -4 -12  24   -0.96    2.00
   5  12 -24   -2.45    1.99
  -5 -12  24    1.79    2.43
  -5 -12  24   -0.16    3.66
   6  12 -24   -0.66    7.95
   6  12 -24    1.10    1.65
  -6 -12  24    1.56    2.03
  -6 -12  24   -4.91    3.32
   7  12 -24   -1.98    7.83
   7  12 -24    1.55    1.95
  -7 -12  24   -1.27    2.02
  -7 -12  24   -0.16    3.21
   8  12 -24   -2.49    8.09
   8  12 -24    0.13    1.88
  -8 -12  24   -1.32    3.64
  -8 -12  24   -0.81    2.12
   9  12 -24    0.17    8.48
  -9 -12  24    1.16    3.22
  -9 -12  24    0.12    2.29
  13   7 -24    7.97    7.85
 -13  -7  24   -0.13    2.75
  13   6 -24    2.82    7.25
  13   6 -24    2.24    1.85
 -13  -6  24    1.00    2.09
 -13  -6  24   -1.93    2.56
  13   5 -24    2.70    6.78
  13   5 -24    0.41    1.74
 -13  -5  24    0.12    2.35
  13   4 -24    0.13    1.60
  13   4 -24   -8.21    6.41
 -13  -4  24    0.11    2.35
  13   3 -24   -4.18    6.45
  13   3 -24   -1.28    1.80
 -13  -3  24    0.11    2.37
  13   2 -24    5.47    1.75
  13   2 -24   -5.91    6.50
 -13  -2  24   -4.17    2.45
  13   1 -24   74.17   15.77
 -13  -1  24   37.38   14.00
  13   0 -24   33.56   10.58
  13  -1 -24   56.41   16.35
  -2 -13  24   -1.12    2.52
   3  13 -24   -8.51    6.94
  -3 -13  24   -0.69    2.34
  -3 -13  24   -5.14    3.37
   4  13 -24   -0.74    1.81
   4  13 -24   -0.68    7.35
  -4 -13  24    0.16    3.17
  -4 -13  24    0.11    2.15
   5  13 -24    0.37    1.79
   5  13 -24   -1.72    7.87
  -5 -13  24    0.22    2.05
  -5 -13  24    0.17    3.46
   6  13 -24   -2.99    8.25
   6  13 -24    1.54    1.82
  -6 -13  24    1.19    2.12
  -6 -13  24   -6.77    3.59
   7  13 -24   -4.62    1.87
   7  13 -24   -7.28    8.43
  -7 -13  24   -1.68    2.15
  -7 -13  24    0.17    3.40
   8  13 -24    0.89    8.61
  -8 -13  24    0.18    3.76
  -8 -13  24    4.67    2.44
  -2 -14  24   -1.14    2.55
   3  14 -24  -12.52    7.09
  -3 -14  24    2.96    2.43
   4  14 -24    0.26    1.75
   4  14 -24   -3.17    7.48
  -4 -14  24    0.86    3.47
  -4 -14  24    1.15    2.18
   5  14 -24   -0.36    7.92
   5  14 -24   -0.13    1.90
  -5 -14  24   -1.06    3.69
  -5 -14  24    2.37    2.15
   6  14 -24   -1.84    8.58
   6  14 -24   -1.49    1.93
  -6 -14  24    1.82    2.12
  -6 -14  24  -13.16    3.89
   7  14 -24   -0.28    1.78
   7  14 -24   26.12    9.05
  -7 -14  24    0.18    3.72
   3  15 -24   -1.75    1.80
   4  15 -24    6.03    7.70
   4  15 -24   -0.14    1.82
  -4 -15  24   -0.55    3.49
  -4 -15  24   -0.12    2.31
   5  15 -24   -1.25    2.03
   5  15 -24    3.18    8.16
  -5 -15  24   -0.58    2.14
  -5 -15  24   -0.19    3.70
   6  15 -24    0.96    8.63
  -6 -15  24   -1.73    3.80
  -2  -1  25   -0.82    1.84
   2   2 -25    2.66    4.87
  -2   2  25    6.73    2.24
  -2  -2  25    3.36    2.26
   3   2 -25    0.46    4.79
  -3  -2  25    0.34    1.65
  -2   3  25   -4.52    1.99
  -3  -2  25   -2.96    2.40
  -3  -1  25   -0.11    2.03
  -3  -1  25    0.08    1.65
   2   3 -25   -2.34    4.87
  -2  -3  25   -1.05    1.79
  -3   2  25    3.12    1.57
   3   3 -25   -3.69    5.02
  -3  -3  25    0.17    1.66
  -3  -3  25   -0.12    2.21
  -3   3  25   -1.07    1.39
   4   3 -25    0.93    5.20
  -4  -3  25    0.90    2.27
  -4  -3  25    0.08    1.56
   4   2 -25   -3.26    5.00
  -4  -2  25    3.09    2.46
  -4  -2  25   -0.40    1.58
   4   1 -25   -2.18    5.03
  -4  -1  25   -0.47    1.47
  -4  -1  25    0.55    2.13
  -4   0  25   -1.55    1.47
   2   4 -25    5.94    4.91
   4  -2 -25   -2.61    4.37
  -4   2  25    4.26    2.29
  -2  -4  25    0.10    1.92
   3   4 -25    0.49    4.94
  -3  -4  25   -5.14    1.79
  -3  -4  25    0.12    2.20
   4   4 -25   -2.40    5.23
  -4  -4  25    0.67    1.55
  -4  -4  25   -0.11    2.29
   5   4 -25   -2.11    5.50
  -5  -4  25    0.11    2.36
  -5  -4  25    0.08    1.59
   5   3 -25   -3.84    5.39
  -5  -3  25   -0.55    1.55
  -5  -3  25    0.33    2.26
   5   2 -25    2.07    5.07
  -5  -2  25    0.08    1.43
  -5  -2  25    1.09    2.27
   5   1 -25    0.85    5.06
  -5  -1  25   -2.15    1.38
  -5  -1  25   -3.99    2.33
  -5   0  25   14.05    4.25
  -5   1  25    0.07    1.27
   2   5 -25   -0.78    4.83
  -2  -5  25    0.10    1.95
   3   5 -25    4.55    5.41
  -3  -5  25    0.28    1.77
  -3  -5  25   -0.12    2.28
   4   5 -25   -0.25    5.52
  -4  -5  25   -0.12    2.35
  -4  -5  25    0.17    1.69
   5   5 -25    1.34    5.78
  -5  -5  25    0.33    1.63
  -5  -5  25    0.47    2.40
   6   5 -25    1.64    1.27
   6   5 -25   -3.00    5.61
  -6  -5  25    0.12    2.44
  -6  -5  25    1.37    1.71
   6   4 -25    2.99    5.59
   6   4 -25    1.98    1.17
  -6  -4  25   -0.70    1.58
  -6  -4  25    3.08    2.49
   6   3 -25   -5.98    5.32
   6   3 -25    0.48    1.06
  -6  -3  25   -0.37    1.47
  -6  -3  25   -0.34    2.35
   6   2 -25    2.06    1.11
   6   2 -25   -3.53    5.36
  -6  -2  25    3.73    2.43
  -6  -2  25    0.79    1.51
   6   1 -25   -1.55    4.87
   6   1 -25   -0.07    1.01
  -6  -1  25    0.98    1.41
  -6  -1  25    0.11    2.39
   6   0 -25    2.29    4.67
   6   0 -25    1.20    1.01
  -6   0  25    0.07    1.27
  -6   0  25    0.43    2.38
  -6   1  25   22.48    6.02
   2   6 -25    1.74    5.06
  -6   2  25    0.06    1.23
   3   6 -25   -4.97    5.38
  -3  -6  25   -5.40    2.35
   4   6 -25   -0.13    5.47
  -4  -6  25   -1.08    2.33
  -4  -6  25    3.16    1.73
   5   6 -25    2.42    5.87
  -5  -6  25    5.46    1.96
  -5  -6  25    0.72    2.48
   6   6 -25   -0.25    5.75
   6   6 -25   -0.36    1.26
  -6  -6  25   -1.19    1.64
  -6  -6  25    2.30    2.65
   7   6 -25   -1.05    1.33
   7   6 -25   -2.90    6.50
  -7  -6  25    0.93    1.60
  -7  -6  25   -0.12    2.78
   7   5 -25   -0.82    1.32
   7   5 -25   -2.04    6.40
  -7  -5  25   -0.48    2.70
  -7  -5  25    0.65    1.54
   7   4 -25   -0.70    1.20
   7   4 -25   -2.54    5.62
  -7  -4  25    1.48    1.45
  -7  -4  25    0.46    2.48
   7   3 -25   -0.50    1.06
   7   3 -25    0.55    5.47
  -7  -3  25    2.95    2.37
  -7  -3  25    0.22    1.45
   7   2 -25    0.32    1.01
   7   2 -25    0.53    5.27
  -7  -2  25   -0.14    1.41
  -7  -2  25   -0.11    2.30
   7   1 -25    0.08    0.96
   7   1 -25   11.37    5.05
  -7  -1  25   -1.17    1.33
  -7  -1  25   -0.88    2.42
   7   0 -25    1.55    1.10
   7   0 -25   -4.75    4.94
  -7   0  25    2.04    1.30
  -7   0  25    1.63    2.36
   7  -1 -25    1.97    1.01
   7  -1 -25    0.57    4.72
  -7   1  25    0.11    2.35
  -7   1  25    0.06    1.17
   7  -2 -25    0.88    1.03
   2   7 -25   -1.24    5.36
  -7   2  25    1.56    1.17
  -2  -7  25   -4.30    2.00
  -7   2  25   14.11    2.33
   3   7 -25    1.63    5.40
  -3  -7  25   -0.76    2.43
  -3  -7  25   -0.79    1.96
   4   7 -25   -2.15    5.83
  -4  -7  25   -0.12    2.58
  -4  -7  25    0.19    1.86
   5   7 -25    2.68    6.24
  -5  -7  25    0.62    2.51
   6   7 -25   -5.93    6.59
  -6  -7  25    0.13    2.75
   7   7 -25   -0.26    6.48
  -7  -7  25    0.13    2.81
   8   7 -25    1.77    6.73
  -8  -7  25    0.13    2.80
   8   6 -25   -2.63    1.41
   8   6 -25    9.42    6.39
  -8  -6  25    0.09    1.65
  -8  -6  25   -0.12    2.56
   8   5 -25    0.28    1.44
   8   5 -25    0.74    6.06
  -8  -5  25    1.24    1.63
  -8  -5  25   -0.72    2.64
   8   4 -25   18.10    6.75
   8   4 -25    1.42    1.56
  -8  -4  25    3.97    2.90
  -8  -4  25    4.38    1.88
   8   3 -25    0.51    1.19
   8   3 -25   -2.50    5.82
  -8  -3  25    0.11    2.38
  -8  -3  25    0.08    1.40
   8   2 -25   -2.30    5.53
   8   2 -25    1.36    1.11
  -8  -2  25    0.95    1.39
  -8  -2  25   -0.11    2.33
   8   1 -25    1.96    1.16
   8   1 -25  -11.91    5.36
  -8  -1  25   -2.90    2.44
  -8  -1  25    0.07    1.32
   8   0 -25    1.02    1.06
   8   0 -25    4.56    5.21
  -8   0  25   -2.85    1.22
  -8   0  25   -0.11    2.29
   8  -1 -25   -2.63    5.00
   8  -1 -25    1.28    1.39
  -8   1  25    6.21    1.52
  -8   1  25    5.16    2.72
   2   8 -25    1.72    5.41
  -8   2  25   -1.80    1.26
  -8   2  25    5.43    2.44
  -2  -8  25    0.55    2.12
   3   8 -25   -4.66    5.99
  -3  -8  25    1.02    2.02
  -3  -8  25   -0.13    2.54
   4   8 -25   -4.35    6.24
  -4  -8  25   -0.77    1.94
  -4  -8  25   -0.13    2.63
   5   8 -25    2.96    6.51
  -5  -8  25    0.13    2.70
  -5  -8  25    2.59    1.83
   6   8 -25    0.10    1.28
   6   8 -25   -1.39    6.50
  -6  -8  25    0.09    1.78
  -6  -8  25   -0.13    2.78
   7   8 -25    0.10    1.51
   7   8 -25   15.75    6.68
  -7  -8  25    1.38    1.82
  -7  -8  25   -0.13    2.94
   8   8 -25   -0.44    1.50
   8   8 -25    2.14    6.87
  -8  -8  25    0.09    1.75
  -8  -8  25    0.41    2.95
   9   8 -25   -4.44    1.60
   9   8 -25  -22.80    7.52
  -9  -8  25    0.41    3.07
  -9  -8  25    0.10    1.92
   9   7 -25    1.54    6.65
   9   7 -25   -1.44    1.49
  -9  -7  25   -0.13    2.75
   9   6 -25    4.27    6.75
   9   6 -25    3.17    1.53
  -9  -6  25    0.19    1.82
  -9  -6  25    2.50    2.85
   9   5 -25   -0.10    1.36
   9   5 -25  -12.54    6.37
  -9  -5  25    2.46    1.75
  -9  -5  25    0.72    2.61
   9   4 -25   -0.29    1.37
   9   4 -25    1.11    6.16
  -9  -4  25    0.96    1.68
  -9  -4  25    0.59    2.59
   9   3 -25    3.19    5.98
   9   3 -25    1.39    1.36
  -9  -3  25   -1.00    1.62
  -9  -3  25    0.11    2.51
   9   2 -25  -10.59    6.05
   9   2 -25    0.27    1.23
  -9  -2  25   -2.38    2.67
  -9  -2  25   -0.80    1.51
   9   1 -25    4.85    2.22
   9   1 -25   34.75    6.47
  -9  -1  25   12.13    3.29
  -9  -1  25    2.98    2.44
   9   0 -25   33.64    6.26
   9   0 -25    4.67    2.28
  -9   0  25   11.62    3.42
  -9   0  25    3.51    2.44
   9  -1 -25    5.78    1.97
   9  -1 -25   28.22    5.86
  -9   1  25    0.56    3.10
  -9   1  25    3.90    2.08
   2   9 -25   -4.17    5.90
  -2  -9  25    3.15    2.27
  -9   2  25    0.54    1.25
   3   9 -25   -0.59    6.10
  -3  -9  25    0.14    2.66
  -3  -9  25    0.54    2.16
   4   9 -25    8.70    6.45
  -4  -9  25    3.01    2.94
  -4  -9  25    2.22    2.22
   5   9 -25    3.42    1.51
   5   9 -25   -4.15    6.75
  -5  -9  25   -0.14    2.91
  -5  -9  25    1.05    1.93
   6   9 -25    8.15    6.84
   6   9 -25    0.53    1.45
  -6  -9  25    0.14    2.89
  -6  -9  25    0.29    1.83
   7   9 -25    2.53    1.62
   7   9 -25   -1.46    6.81
  -7  -9  25    0.19    1.79
  -7  -9  25    0.57    3.09
   8   9 -25  -23.45    7.82
   8   9 -25    1.29    1.71
  -8  -9  25    3.01    3.19
  -8  -9  25    0.60    1.91
   9   9 -25  -18.88    8.01
   9   9 -25   -3.94    1.93
  -9  -9  25   -9.09    3.71
  10   9 -25    0.16    7.88
  10   9 -25   -0.54    1.79
 -10  -9  25    2.21    2.15
 -10  -9  25    0.43    3.08
  10   8 -25   -8.61    7.80
 -10  -8  25   -7.22    2.18
 -10  -8  25   -1.23    3.07
  10   7 -25   -2.80    1.95
 -10  -7  25  -10.03    2.28
 -10  -7  25   -5.35    3.23
  10   6 -25   -1.74    1.48
  10   6 -25    9.51    6.78
 -10  -6  25   -2.51    2.73
 -10  -6  25    1.58    1.85
  10   5 -25    0.89    1.43
  10   5 -25   15.72    6.71
 -10  -5  25    0.09    1.82
 -10  -5  25   -0.12    2.56
  10   4 -25    2.01    1.43
  10   4 -25   -2.41    6.22
 -10  -4  25    1.27    1.66
 -10  -4  25    3.19    2.67
  10   3 -25    2.44    1.39
  10   3 -25    4.99    6.27
 -10  -3  25   -1.25    1.72
 -10  -3  25    1.85    2.61
  10   2 -25   -0.68    1.27
  10   2 -25   -6.56    6.02
 -10  -2  25   -0.09    1.57
 -10  -2  25   -3.43    2.43
  10   1 -25    2.71    5.90
  10   1 -25    0.09    1.20
 -10  -1  25   -2.04    2.42
 -10  -1  25   -2.38    1.51
  10   0 -25    6.09    5.80
  10   0 -25   -0.64    1.29
 -10   0  25    0.57    1.48
 -10   0  25    0.11    2.54
  10  -1 -25   -0.79    1.17
  10  -1 -25   -6.17    5.49
 -10   1  25    2.27    1.34
 -10   1  25    0.11    2.41
  -2 -10  25   -3.19    2.32
   3  10 -25   -0.62    6.56
  -3 -10  25   -0.14    2.85
  -3 -10  25   -1.99    2.19
   4  10 -25   -9.88    6.66
  -4 -10  25   -0.14    2.75
  -4 -10  25   -2.21    1.96
   5  10 -25   -0.55    1.49
   5  10 -25  -14.96    7.16
  -5 -10  25   -3.04    3.05
  -5 -10  25    2.71    1.96
   6  10 -25    1.12    1.64
   6  10 -25   -9.39    7.34
  -6 -10  25   -0.10    1.96
  -6 -10  25    0.15    2.93
   7  10 -25   -3.54    2.02
   8  10 -25   -1.89    7.85
   8  10 -25    0.87    1.78
  -8 -10  25   -2.59    3.41
  -8 -10  25   -2.84    2.05
   9  10 -25  -11.24    7.84
   9  10 -25    0.13    1.77
  -9 -10  25    3.87    2.27
  -9 -10  25    0.15    3.25
  10  10 -25    0.14    1.93
  10  10 -25    1.00    8.23
 -10 -10  25   -7.07    3.30
  11   9 -25    4.25    8.09
 -11  -9  25   -5.66    3.21
  11   8 -25    0.31    7.69
 -11  -8  25    0.14    2.95
  11   7 -25    0.89    1.75
  11   7 -25    3.85    7.70
 -11  -7  25    0.12    2.02
 -11  -7  25   -0.13    2.99
  11   6 -25  -22.53    8.31
  11   6 -25    0.61    1.73
 -11  -6  25    0.13    2.92
 -11  -6  25    0.11    2.08
  11   5 -25    2.43    1.54
  11   5 -25  -23.99    7.25
 -11  -5  25    1.83    2.74
 -11  -5  25   -1.70    1.88
  11   4 -25    1.16    6.64
  11   4 -25    1.78    1.55
 -11  -4  25    0.12    2.47
 -11  -4  25    0.41    1.80
  11   3 -25   -1.09    1.43
  11   3 -25  -14.19    6.45
 -11  -3  25    0.12    2.47
 -11  -3  25   -0.10    1.71
  11   2 -25    4.08    6.17
  11   2 -25    0.63    1.33
 -11  -2  25   -0.10    1.66
 -11  -2  25   -6.59    2.65
  11   1 -25   -1.62    6.07
  11   1 -25    0.51    1.38
 -11  -1  25    0.09    1.59
 -11  -1  25    0.34    2.48
  11   0 -25   -2.01    1.31
  11   0 -25    2.89    5.84
 -11   0  25   -0.09    1.49
 -11   0  25    1.03    2.50
  11  -1 -25    0.32    5.57
  11  -1 -25   -1.66    1.38
 -11   1  25   -1.82    2.50
 -11   1  25    4.50    1.52
  -2 -11  25    0.49    2.42
   3  11 -25    7.40    6.59
  -3 -11  25    0.93    2.39
  -3 -11  25   -2.42    2.85
   4  11 -25    4.36    6.88
  -4 -11  25   -3.35    2.13
  -4 -11  25    0.91    3.00
   5  11 -25    1.16    1.73
  -5 -11  25    0.15    3.26
  -5 -11  25   -2.42    2.07
   6  11 -25    5.80    2.56
  -6 -11  25   23.15    4.31
  -6 -11  25    1.68    2.78
   7  11 -25   -7.13    7.55
   7  11 -25    1.49    1.88
  -7 -11  25    0.16    3.36
  -7 -11  25   -1.50    1.95
   8  11 -25    0.13    1.84
   8  11 -25    0.17    8.10
  -8 -11  25    1.62    3.42
  -8 -11  25    1.10    1.98
   9  11 -25   -2.68    1.94
   9  11 -25   10.28    8.58
  -9 -11  25   -2.45    3.51
  -9 -11  25   -2.15    2.29
  12   7 -25    6.36    7.93
  12   7 -25   -1.39    1.81
 -12  -7  25   -3.00    2.24
 -12  -7  25   -1.47    2.95
  12   6 -25  -13.75    7.54
  12   6 -25   -1.33    1.58
 -12  -6  25   -3.83    2.15
 -12  -6  25   -0.13    2.76
  12   5 -25    0.89    1.56
  12   5 -25   -0.42    7.07
 -12  -5  25    0.94    2.09
 -12  -5  25    0.25    2.70
  12   4 -25   -2.08    1.67
 -12  -4  25   -3.28    2.22
 -12  -4  25    0.12    2.69
  12   2 -25   -6.07    1.69
  12   1 -25   -9.48    6.32
  12   1 -25    0.23    1.44
 -12  -1  25    0.11    2.49
 -12  -1  25    0.10    1.75
  12   0 -25   -4.90    5.91
  12   0 -25   -1.66    1.52
 -12   0  25    0.91    2.56
 -12   0  25    0.67    1.64
  12  -1 -25    1.86    5.81
  12  -1 -25    2.55    1.50
 -12   1  25    0.11    2.60
  -2 -12  25   -3.83    2.69
   3  12 -25   51.06    8.48
  -3 -12  25    5.23    3.82
  -3 -12  25    0.16    4.55
   4  12 -25   -2.69    1.87
  -4 -12  25   -3.95    2.36
   5  12 -25    0.73    1.69
   5  12 -25    8.63    7.51
  -5 -12  25   -2.78    2.17
  -5 -12  25    1.63    3.22
   6  12 -25    0.18    8.06
   6  12 -25    1.54    1.83
  -6 -12  25    3.51    2.21
  -6 -12  25    0.17    3.47
   7  12 -25   -4.09    8.15
   7  12 -25   -0.13    1.82
  -7 -12  25   -3.57    2.18
  -7 -12  25    0.17    3.46
   8  12 -25    0.14    2.05
   8  12 -25   -0.18    8.63
  -8 -12  25    0.35    3.61
  -8 -12  25   -2.32    2.26
  13   6 -25    6.28    8.00
 -13  -6  25    1.95    2.85
  13   5 -25   -3.43    7.46
  13   5 -25   -2.38    1.91
 -13  -5  25   -4.01    2.21
 -13  -5  25   -0.13    2.56
  13   4 -25   -4.11    7.01
  13   4 -25    0.54    1.52
 -13  -4  25   -4.32    2.01
 -13  -4  25    0.72    2.55
  13   3 -25   10.38    6.69
  13   3 -25    1.86    1.65
 -13  -3  25   -5.18    2.63
  13   2 -25  -10.08    6.55
  13   2 -25    0.90    1.43
 -13  -2  25    4.16    2.55
  13   1 -25    0.25    1.56
  13   1 -25   -0.36    6.31
 -13  -1  25   -3.08    2.42
  13   0 -25    6.49    6.21
 -13   0  25    4.39    2.81
   3  13 -25    2.98    7.16
  -3 -13  25   -2.47    2.46
   4  13 -25   -0.51    1.80
   4  13 -25    3.73    7.57
  -4 -13  25    1.63    2.22
  -4 -13  25   -3.43    3.30
   5  13 -25   -6.89    8.06
   5  13 -25    0.13    1.83
  -5 -13  25    0.81    2.27
  -5 -13  25    0.35    3.36
   6  13 -25   -0.94    2.04
   6  13 -25    3.71    8.54
  -6 -13  25    0.18    3.67
  -6 -13  25    3.31    2.20
   7  13 -25   -4.88    8.70
   7  13 -25   -1.57    1.87
  -7 -13  25   -0.18    3.75
  -3 -14  25   -2.26    2.45
   4  14 -25   10.19    7.96
   4  14 -25   -1.22    1.98
  -4 -14  25    4.03    2.42
  -4 -14  25    0.18    3.58
   5  14 -25   -0.82    1.74
   5  14 -25    2.65    8.22
  -5 -14  25    2.75    2.32
  -5 -14  25    0.37    3.72
   6  14 -25   18.49    9.12
  -6 -14  25    0.19    4.10
   3  15 -25   -0.14    1.97
  -3 -15  25   -6.64    2.57
   4  15 -25   -6.33    7.79
   4  15 -25    2.15    1.81
  -4 -15  25    0.38    3.67
  -2  -1  26    0.10    1.80
  -2   0  26    1.22    1.94
  -2   1  26   -0.09    1.67
  -2  -2  26    0.99    1.85
   3   2 -26   -1.35    5.08
  -3  -2  26    0.36    2.33
  -3  -2  26    0.09    1.67
   3   1 -26   -1.31    4.93
  -3  -1  26   -0.09    1.93
  -3  -1  26   10.80    2.60
   3   0 -26    2.68    4.61
  -3   0  26   -0.60    1.71
  -3   1  26    0.16    1.70
  -2  -3  26   -0.10    1.95
   3   3 -26   -2.77    5.11
  -3  -3  26    6.49    2.54
  -3  -3  26   -0.09    1.81
   4   3 -26   -0.49    5.40
  -4  -3  26    0.35    1.67
  -4  -3  26    0.12    2.36
   4   2 -26    0.36    5.05
  -4  -2  26   -1.42    2.54
  -4  -2  26    0.08    1.66
   4   1 -26   -0.23    5.10
  -4  -1  26   -2.93    2.33
  -4  -1  26   -0.08    1.57
   4   0 -26    3.38    4.89
  -4   0  26   -6.85    2.51
  -4   0  26   -2.44    1.50
  -4   1  26   -0.11    1.80
   2   4 -26    3.34    5.04
  -2  -4  26    2.03    2.12
   3   4 -26    2.46    5.40
  -3  -4  26    0.25    2.45
  -3  -4  26    0.09    1.76
   4   4 -26   -3.56    5.47
  -4  -4  26   -0.18    1.77
  -4  -4  26    0.12    2.43
   5   4 -26   -1.14    5.66
  -5  -4  26    1.28    1.75
  -5  -4  26   -0.97    2.44
   5   3 -26   -1.83    5.58
  -5  -3  26    0.08    1.62
  -5  -3  26   -6.75    2.46
   5   2 -26    0.82    5.51
  -5  -2  26    0.47    2.39
  -5  -2  26    0.08    1.54
   5   1 -26   -6.15    5.26
  -5  -1  26   -0.46    1.55
  -5  -1  26    3.80    2.55
   5   0 -26    5.54    5.14
  -5   0  26    0.11    2.31
  -5   0  26    0.88    1.52
   5  -1 -26  -15.17    5.05
  -5   1  26   -2.88    1.42
  -5   1  26   -1.91    2.41
   2   5 -26   -2.19    5.08
  -5   2  26   -1.27    1.30
  -2  -5  26    3.98    2.08
   3   5 -26   -2.54    5.34
  -3  -5  26    1.39    2.51
  -3  -5  26    0.87    1.92
   4   5 -26   -0.13    5.60
  -4  -5  26    1.75    2.62
  -4  -5  26    3.94    1.98
   5   5 -26   -0.13    5.83
  -5  -5  26    0.87    1.71
  -5  -5  26    0.12    2.52
   6   5 -26    1.43    6.46
   6   5 -26   -1.72    1.29
  -6  -5  26   -5.35    2.77
  -6  -5  26   -0.25    1.71
   6   4 -26    0.25    5.75
   6   4 -26   -1.56    1.29
  -6  -4  26   -0.65    1.64
  -6  -4  26   -0.24    2.53
   6   3 -26   -0.48    5.53
   6   3 -26    2.50    1.26
  -6  -3  26    1.98    1.69
  -6  -3  26    0.48    2.58
   6   2 -26   -1.04    5.40
   6   2 -26    2.49    1.17
  -6  -2  26   -6.89    2.43
  -6  -2  26    0.08    1.48
   6   1 -26    0.46    1.04
  -6  -1  26   -1.84    1.46
  -6  -1  26    2.30    2.51
   6   0 -26    2.60    5.02
   6   0 -26    0.67    1.02
  -6   0  26    0.79    1.36
  -6   0  26   -1.48    2.27
   6  -1 -26   -0.07    1.01
   6  -1 -26   -5.42    5.07
  -6   1  26    3.16    2.40
  -6   1  26    2.66    1.34
   6  -2 -26    0.21    0.94
   2   6 -26   -0.99    5.35
   6  -2 -26    0.61    4.82
  -6   2  26   -1.16    1.17
  -6   2  26    1.11    2.25
   3   6 -26    6.22    5.74
  -3  -6  26    3.81    1.98
  -3  -6  26   -0.13    2.54
   4   6 -26   -0.82    5.91
  -4  -6  26    0.10    1.75
  -4  -6  26    0.13    2.50
   5   6 -26   -3.55    6.32
  -5  -6  26    1.40    2.55
  -5  -6  26    0.63    1.77
   6   6 -26   -0.47    1.40
   6   6 -26   -3.67    6.31
  -6  -6  26    0.09    1.84
  -6  -6  26    0.13    2.71
   7   6 -26   -0.10    1.32
   7   6 -26    1.87    6.31
  -7  -6  26   -1.31    2.70
  -7  -6  26    1.42    1.70
   7   5 -26    1.28    6.01
   7   5 -26    1.21    1.35
  -7  -5  26   -0.51    2.87
  -7  -5  26    2.91    1.77
   7   4 -26    3.65    2.29
   7   4 -26   24.10    7.04
  -7  -4  26    8.18    3.63
  -7  -4  26    6.92    2.51
   7   3 -26    0.26    1.24
   7   3 -26   -4.47    6.18
  -7  -3  26   -8.99    2.75
  -7  -3  26   -0.24    1.60
   7   2 -26    3.17    5.57
   7   2 -26    2.79    1.28
  -7  -2  26    0.36    2.66
  -7  -2  26    0.69    1.63
   7   1 -26    2.76    1.37
   7   1 -26    3.27    5.35
  -7  -1  26    1.02    1.60
  -7  -1  26    5.55    2.68
   7   0 -26    5.36    5.05
   7   0 -26    0.70    1.00
  -7   0  26   -0.63    1.31
  -7   0  26    1.05    2.46
   7  -1 -26    3.38    5.15
   7  -1 -26    1.71    1.40
  -7   1  26    5.25    1.56
  -7   1  26    3.34    2.80
   2   7 -26    0.15    5.33
  -7   2  26    5.65    2.63
  -7   2  26    2.06    1.33
  -2  -7  26    1.33    2.12
   3   7 -26   -2.72    5.90
  -3  -7  26   -0.80    2.57
  -3  -7  26   -0.10    1.91
   4   7 -26    9.12    6.44
  -4  -7  26   -1.19    2.75
   5   7 -26    3.99    6.45
  -5  -7  26    2.65    2.75
   6   7 -26    2.56    6.50
  -6  -7  26   -3.06    2.82
   7   7 -26   -1.04    1.41
   7   7 -26    3.54    6.67
  -7  -7  26    4.08    2.77
   8   7 -26    1.60    1.43
   8   7 -26    2.43    6.82
  -8  -7  26   -5.12    3.00
   8   6 -26    0.55    6.66
   8   6 -26    1.53    1.58
  -8  -6  26    1.64    1.78
  -8  -6  26    0.93    2.86
   8   5 -26    0.49    1.37
   8   5 -26    5.93    6.44
  -8  -5  26   -0.53    1.68
  -8  -5  26   -0.64    2.68
   8   4 -26    2.81    1.51
   8   4 -26    0.25    6.33
  -8  -4  26    0.13    2.74
  -8  -4  26    5.14    1.82
   8   3 -26    0.97    6.04
   8   3 -26   -1.17    1.32
  -8  -3  26    0.08    1.61
  -8  -3  26   -4.67    2.63
   8   2 -26    0.35    1.15
  -8  -2  26   -4.73    2.70
  -8  -2  26   -1.16    1.55
   8   1 -26   42.06   10.03
  -8  -1  26   26.18    8.48
   8   0 -26   43.72   10.47
  -8   0  26   26.67    8.95
   8  -1 -26    4.11    1.85
  -8   1  26    4.70    2.01
  -8   1  26    7.81    3.24
   3   8 -26    1.94    6.16
  -3  -8  26    0.83    2.59
  -3  -8  26    0.97    2.11
   4   8 -26   -0.30    6.59
  -4  -8  26   -0.14    2.96
  -4  -8  26    6.59    2.14
   5   8 -26    6.12    6.71
  -5  -8  26    0.14    2.79
  -5  -8  26    0.88    1.78
   6   8 -26    0.15    6.77
   6   8 -26   -0.52    1.44
  -6  -8  26    0.14    2.75
  -6  -8  26    0.39    1.84
   7   8 -26    8.64    7.19
   7   8 -26   -0.11    1.43
  -7  -8  26    2.13    2.94
  -7  -8  26   -2.80    1.90
   8   8 -26  -15.83    7.65
  -8  -8  26    0.14    3.19
  -8  -8  26    0.10    1.96
   9   8 -26    0.16    7.99
  -9  -8  26   -7.87    3.53
   9   7 -26   -2.44    1.76
  -9  -7  26   -0.14    3.03
  -9  -7  26   -4.92    2.06
   9   6 -26    5.91    7.03
   9   6 -26   -2.33    1.45
  -9  -6  26    1.91    1.82
  -9  -6  26   -0.13    2.86
   9   5 -26    1.49    6.50
   9   5 -26    1.70    1.59
  -9  -5  26    2.50    1.92
  -9  -5  26    2.33    2.87
   9   4 -26   -0.41    1.28
   9   4 -26    0.13    6.31
  -9  -4  26   -0.13    2.81
  -9  -4  26    1.66    1.71
   9   3 -26    4.64    6.20
   9   3 -26   -0.10    1.34
  -9  -3  26    0.97    1.75
  -9  -3  26    3.23    2.72
   9   2 -26    8.69    5.97
   9   2 -26    0.09    1.16
  -9  -2  26    0.12    2.73
  -9  -2  26    1.86    1.61
   9   1 -26    9.64    5.88
   9   1 -26    1.80    1.48
  -9  -1  26   -1.95    2.81
  -9  -1  26    5.67    1.79
   9   0 -26    1.23    5.48
   9   0 -26   -0.09    1.19
  -9   0  26   -3.39    2.72
  -9   0  26    0.08    1.37
   9  -1 -26    0.96    5.42
   9  -1 -26    1.79    1.30
  -9   1  26    2.65    1.54
  -9   1  26    5.66    2.86
   3   9 -26    6.67    6.48
  -3  -9  26    1.46    2.36
  -3  -9  26    3.62    3.02
   4   9 -26    8.07    6.58
  -4  -9  26    0.32    2.06
  -4  -9  26    0.14    2.96
   5   9 -26    1.30    1.52
   5   9 -26   -6.13    6.99
  -5  -9  26    0.40    1.96
  -5  -9  26    0.87    2.94
   6   9 -26    1.44    1.55
   6   9 -26   -8.81    7.34
  -6  -9  26    0.10    1.96
  -6  -9  26    0.15    3.10
   7   9 -26   -0.69    1.68
  -7  -9  26    1.19    3.43
  -7  -9  26   -0.10    2.06
   8   9 -26   -2.58    1.98
   8   9 -26  -14.68    7.89
  -8  -9  26   -8.50    2.29
   9   9 -26   -0.39    1.80
   9   9 -26   14.88    8.20
  -9  -9  26    0.11    2.21
  -9  -9  26    0.15    3.45
  10   9 -26    0.17    8.37
 -10  -9  26    0.15    3.39
  10   8 -26   -2.56    8.13
 -10  -8  26   -1.76    3.12
  10   7 -26   -0.12    1.73
  10   7 -26   20.58    8.05
 -10  -7  26    0.14    2.93
 -10  -7  26    0.11    1.91
  10   5 -26   -1.26    6.93
  10   5 -26   -0.90    1.54
 -10  -5  26    1.69    2.86
 -10  -5  26    0.10    1.68
  10   4 -26    5.24    6.86
  10   4 -26    2.23    1.47
 -10  -4  26    0.13    2.80
 -10  -4  26    0.38    1.81
  10   3 -26   -7.50    6.56
  10   3 -26   -0.75    1.36
 -10  -3  26   -0.12    2.73
 -10  -3  26   -0.73    1.72
  10   2 -26   -0.82    1.37
  10   2 -26   -6.61    6.35
 -10  -2  26    0.12    2.64
 -10  -2  26    0.09    1.68
  10   1 -26    0.48    5.95
  10   1 -26    0.99    1.22
 -10  -1  26   -0.09    1.51
 -10  -1  26   -3.06    2.67
  10   0 -26    8.78    5.88
  10   0 -26    1.63    1.30
 -10   0  26    2.56    2.78
 -10   0  26   -0.41    1.46
  10  -1 -26   -1.84    1.27
  10  -1 -26    2.77    5.71
 -10   1  26   -1.82    2.58
 -10   1  26    1.47    1.47
   3  10 -26    1.29    6.47
  -3 -10  26    2.67    2.27
  -3 -10  26   -3.34    2.77
   4  10 -26    1.46    6.82
  -4 -10  26   -0.30    3.11
  -4 -10  26    0.55    2.12
   5  10 -26   -1.15    6.98
   5  10 -26   -0.80    1.66
  -5 -10  26    3.82    2.96
  -5 -10  26    0.42    2.07
   7  10 -26    0.85    1.65
   7  10 -26  -12.67    7.81
  -7 -10  26    3.28    2.10
  -7 -10  26   -0.79    3.30
   8  10 -26  -10.68    8.03
   8  10 -26    0.39    1.79
  -8 -10  26    1.77    3.58
  -8 -10  26   -6.88    2.25
   9  10 -26   -2.31    1.90
   9  10 -26  -10.80    8.66
  -9 -10  26    0.12    2.11
  -9 -10  26    0.16    3.36
  11   8 -26  -13.67    8.38
 -11  -8  26    0.29    3.23
  11   7 -26   -1.86    1.84
  11   7 -26   -6.14    7.98
 -11  -7  26   -0.84    3.10
 -11  -7  26    0.12    2.15
  11   6 -26   -0.51    1.81
  11   6 -26    8.87    7.47
 -11  -6  26    0.23    2.10
 -11  -6  26    0.14    2.72
  11   5 -26   -7.21    7.36
  11   5 -26   -1.70    1.61
 -11  -5  26   -0.13    2.78
 -11  -5  26    0.11    1.97
 -11  -4  26   15.36    5.45
  11   3 -26   -0.89    1.50
 -11  -3  26    0.10    1.90
 -11  -3  26   -8.30    2.87
  11   2 -26    0.22    1.38
  11   2 -26   -2.17    6.40
 -11  -2  26   -0.12    2.67
 -11  -2  26   -0.39    1.74
  11   1 -26   -2.76    1.34
  11   1 -26    3.80    6.41
 -11  -1  26    2.34    2.71
 -11  -1  26    1.64    1.75
  11   0 -26   -3.19    6.08
  11   0 -26   -2.06    1.31
 -11   0  26    4.61    1.65
 -11   0  26    0.12    2.64
  11  -1 -26    0.41    1.28
 -11   1  26   -2.99    1.55
 -11   1  26    0.12    2.64
   3  11 -26  -15.89    7.00
  -3 -11  26   -2.07    3.11
  -3 -11  26    2.20    2.46
   5  11 -26   -7.10    7.57
   5  11 -26   -2.30    1.76
  -5 -11  26   -0.33    2.16
  -5 -11  26   -1.95    3.30
   6  11 -26   -0.18    8.13
   6  11 -26    0.25    1.71
  -6 -11  26   -0.16    3.29
  -6 -11  26    1.22    2.18
   7  11 -26   -6.06    8.18
   7  11 -26    1.04    1.79
  -7 -11  26    0.83    3.36
  -7 -11  26   -0.78    2.11
   8  11 -26   -1.78    1.85
   8  11 -26   10.55    8.70
  -8 -11  26   -0.35    2.25
  -8 -11  26    2.91    3.57
  12   6 -26    5.07    8.32
  12   6 -26    4.78    1.97
 -12  -6  26   -1.23    2.97
 -12  -6  26    0.25    2.27
  12   5 -26    1.86    1.62
  12   5 -26  -11.91    7.61
 -12  -5  26   -0.48    2.06
 -12  -5  26    0.13    2.71
  12   4 -26   11.15    7.05
  12   4 -26    0.51    1.66
 -12  -4  26    4.50    2.10
 -12  -4  26   -1.94    2.82
  12   3 -26    4.21    6.92
  12   3 -26    0.12    1.61
 -12  -3  26   -0.23    1.98
 -12  -3  26    2.03    2.82
  12   2 -26   -1.66    1.64
  12   2 -26    2.48    6.81
 -12  -2  26   -1.96    1.87
 -12  -2  26   -2.88    2.78
  12   1 -26   -3.11    1.49
 -12  -1  26   -0.12    2.74
 -12  -1  26   -1.15    1.85
  12   0 -26  -12.05    6.73
  12   0 -26   -5.95    1.68
 -12   0  26  -12.32    3.05
 -12   0  26   -6.22    2.00
 -12   1  26   -1.24    1.64
   3  12 -26    6.37    7.12
  -3 -12  26    5.51    2.85
   4  12 -26    0.51    1.70
   4  12 -26   -5.36    7.47
  -4 -12  26    0.51    3.30
  -4 -12  26    2.38    2.27
   5  12 -26    2.91    8.02
   5  12 -26    0.13    1.88
  -5 -12  26    1.87    2.31
  -5 -12  26    2.24    3.57
   6  12 -26    0.13    1.94
   6  12 -26   -3.53    8.53
  -6 -12  26   -0.69    2.18
  -6 -12  26    2.45    3.59
   7  12 -26   -3.01    8.89
   7  12 -26    1.37    2.07
  -7 -12  26    1.97    3.66
 -13  -5  26    0.53    3.08
  13   4 -26    0.14    1.77
  13   4 -26   -6.82    7.34
 -13  -4  26    2.64    2.21
 -13  -4  26   -2.99    2.73
  13   3 -26    5.14    1.87
  13   3 -26    5.57    7.19
 -13  -3  26   -0.12    2.03
 -13  -3  26   -4.20    2.71
  13   2 -26    0.53    1.60
  13   2 -26   -6.55    6.97
 -13  -2  26    0.13    2.70
  13   1 -26    1.04    1.70
  13   1 -26    0.77    6.65
 -13  -1  26    3.95    2.86
  13   0 -26    2.96    6.48
  13   0 -26   -2.53    1.51
 -13   0  26   -4.52    2.74
   3  13 -26    5.17    7.26
  -3 -13  26    2.35    2.56
   4  13 -26   -3.50    1.90
   4  13 -26    0.75    7.93
  -4 -13  26    0.18    3.49
  -4 -13  26    2.70    2.40
   5  13 -26   -8.77    8.41
   5  13 -26    0.14    1.95
  -5 -13  26    2.57    2.41
  -5 -13  26    2.02    3.77
   6  13 -26    4.12    8.78
  -6 -13  26    0.19    3.76
  14   3 -26   -1.15    7.44
 -14  -3  26   -1.41    2.64
  14   2 -26    6.44    7.16
 -14  -2  26    0.13    2.79
  14   1 -26   -8.14    6.94
 -14  -1  26   -0.12    2.59
  -3 -14  26   -0.80    2.52
   4  14 -26    0.78    8.00
   4  14 -26   -2.42    1.90
  -4 -14  26   -0.95    3.66
  -2   1  27    2.18    1.93
  -2   2  27   -0.09    1.83
   3   2 -27    0.13    5.16
  -3  -2  27    0.28    1.79
  -3  -2  27   -0.13    2.44
   3   1 -27    0.63    5.02
  -3  -1  27   -0.09    1.76
   3   0 -27    6.42    5.30
  -3   0  27    8.18    2.79
  -3   1  27   -2.34    1.78
  -3   2  27    0.92    1.64
   3   3 -27    0.13    5.31
  -3  -3  27    1.56    2.56
  -3  -3  27    0.58    1.88
   4   3 -27    0.13    5.55
  -4  -3  27   -0.09    1.77
  -4  -3  27    3.45    2.64
   4   2 -27   -3.16    5.39
  -4  -2  27    1.64    2.59
  -4  -2  27   -0.18    1.68
   4   1 -27   -5.04    5.29
  -4  -1  27   -0.09    1.74
  -4  -1  27    0.25    2.38
   4   0 -27    0.60    4.85
  -4   0  27    0.12    2.41
  -4   0  27   -1.83    1.64
   4  -1 -27    3.36    4.93
  -4   1  27    1.59    2.55
  -4   1  27    1.86    1.69
   4  -2 -27   -7.64    4.81
  -4   2  27    1.32    2.36
  -4   2  27   -3.35    1.61
   3   4 -27    0.27    5.42
  -3  -4  27    1.85    2.52
  -3  -4  27   -1.28    1.92
   4   4 -27   -4.44    5.59
  -4  -4  27   -1.56    2.65
  -4  -4  27    0.37    1.80
  -5  -4  27    0.13    2.55
  -5  -4  27   -0.63    1.77
   5   3 -27   -2.47    6.05
  -5  -3  27    0.52    1.87
  -5  -3  27   10.73    2.80
   5   2 -27    0.25    5.70
  -5  -2  27    0.76    1.65
  -5  -2  27    0.12    2.43
   5   1 -27   -2.91    5.46
  -5  -1  27    1.72    1.66
  -5  -1  27   -0.12    2.49
   5   0 -27    0.12    5.13
  -5   0  27   -0.39    1.51
  -5   0  27    0.12    2.46
   5  -1 -27   -3.17    5.12
  -5   1  27   -3.61    2.49
  -5   1  27   -2.24    1.52
  -5   2  27   -1.54    2.60
  -5   2  27    3.99    1.58
   3   5 -27   -0.85    5.77
  -3  -5  27    1.12    1.92
  -3  -5  27    0.81    2.73
   4   5 -27    0.42    6.03
  -4  -5  27    0.10    1.85
  -4  -5  27   -2.25    2.68
   5   5 -27   -3.91    6.44
  -5  -5  27    2.01    1.86
  -5  -5  27    0.13    2.74
   6   5 -27    0.57    1.36
   6   5 -27    3.47    6.43
  -6  -5  27    5.82    2.84
  -6  -5  27    0.27    1.76
   6   4 -27   -0.09    1.31
   6   4 -27   -2.40    6.54
  -6  -4  27    0.86    1.69
  -6  -4  27   -0.13    2.56
   6   3 -27    1.03    6.49
   6   3 -27   -0.26    1.24
  -6  -3  27   -0.13    2.51
  -6  -3  27    3.17    1.72
   6   2 -27    0.74    5.97
   6   2 -27    5.25    1.31
  -6  -2  27   -2.59    1.76
  -6  -2  27    2.00    2.56
   6   1 -27    1.88    1.19
   6   1 -27   -6.45    5.62
  -6  -1  27   -5.44    2.66
  -6  -1  27    0.08    1.51
   6   0 -27   -1.65    1.09
   6   0 -27   -5.12    5.47
  -6   0  27    0.12    2.52
  -6   0  27    4.55    1.52
   6  -1 -27   -0.67    5.41
   6  -1 -27    1.05    1.06
  -6   1  27    3.48    1.44
  -6   1  27   -0.12    2.53
  -6   2  27   -0.83    1.37
   3   6 -27   -0.87    5.99
  -3  -6  27    0.14    2.62
  -3  -6  27   -0.53    1.96
   4   6 -27   -3.61    6.22
  -4  -6  27    0.80    1.96
  -4  -6  27    0.14    2.84
   5   6 -27   -1.02    6.48
  -5  -6  27    0.66    1.82
  -5  -6  27   -0.14    2.68
   6   6 -27   -0.99    1.40
   6   6 -27    8.24    6.66
  -6  -6  27   -4.37    1.84
  -6  -6  27   -2.19    2.77
   7   6 -27    1.93    1.48
   7   6 -27   -8.52    6.91
  -7  -6  27    0.37    1.79
  -7  -6  27   -1.81    2.88
   7   5 -27    0.14    6.34
   7   5 -27    0.97    1.45
  -7  -5  27    1.35    2.94
  -7  -5  27    0.18    1.75
   7   4 -27    0.19    1.38
   7   4 -27   -0.26    6.30
  -7  -4  27    0.13    2.64
  -7  -4  27    1.04    1.69
   7   3 -27    0.90    1.33
   7   3 -27   -1.66    6.08
  -7  -3  27    3.75    2.68
  -7  -3  27    0.59    1.70
   7   2 -27   -8.23    6.15
   7   2 -27    0.52    1.31
  -7  -2  27    0.13    2.71
  -7  -2  27    0.65    1.58
   7   1 -27    0.43    1.15
   7   1 -27   -7.46    5.87
  -7  -1  27   -1.71    1.59
  -7  -1  27  -13.59    2.99
   7   0 -27    7.99    5.82
   7   0 -27    8.64    1.80
  -7   0  27    1.49    3.22
  -7   0  27    1.34    1.96
   7  -1 -27   -0.71    1.05
   7  -1 -27   -6.82    5.38
  -7   1  27   -6.11    2.86
  -7   1  27   -0.78    1.36
  -3  -7  27    0.14    2.79
   4   7 -27    7.06    6.54
  -4  -7  27    0.14    2.86
   5   7 -27    3.03    6.66
  -5  -7  27   -0.14    2.85
   6   7 -27   -2.27    1.49
   6   7 -27    1.21    6.99
  -6  -7  27    0.43    2.98
   7   7 -27   -0.11    1.44
   7   7 -27   -5.90    7.12
  -7  -7  27    0.20    1.83
  -7  -7  27   -0.43    3.12
   8   7 -27    0.45    1.70
  -8  -7  27   -1.33    3.42
  -8  -7  27   -2.81    2.08
   8   6 -27    0.58    7.03
   8   6 -27    0.11    1.41
  -8  -6  27    0.14    3.02
  -8  -6  27    0.96    1.77
   8   5 -27    0.10    1.47
   8   5 -27    0.42    6.64
  -8  -5  27   -0.14    2.86
  -8  -5  27    1.48    1.77
   8   4 -27    0.13    6.38
   8   4 -27   -0.39    1.36
  -8  -4  27   -2.15    2.89
  -8  -4  27    0.18    1.64
   8   3 -27    0.38    1.36
   8   3 -27   -0.90    6.51
  -8  -3  27    1.20    1.69
  -8  -3  27    2.51    2.91
   8   2 -27   -1.86    6.14
   8   2 -27   -1.27    1.19
  -8  -2  27   -1.40    1.61
  -8  -2  27    0.13    2.86
   8   1 -27    2.62    1.46
   8   1 -27   -4.41    5.83
  -8  -1  27    5.66    1.73
  -8  -1  27    0.13    2.94
   8   0 -27   -0.57    5.65
   8   0 -27    0.61    1.27
  -8   0  27    1.42    1.43
  -8   0  27   -2.43    2.74
   8  -1 -27   -1.58    1.15
   8  -1 -27    4.81    5.38
  -8   1  27    0.51    2.78
  -8   1  27    0.72    1.35
   3   8 -27    0.63    6.27
  -3  -8  27    0.15    2.89
  -3  -8  27    0.34    2.19
   4   8 -27   -4.70    6.62
  -4  -8  27    2.93    2.82
  -4  -8  27    0.11    2.13
   5   8 -27   -3.01    6.68
  -5  -8  27    3.48    2.00
  -5  -8  27    0.44    3.01
   6   8 -27    0.11    1.41
   6   8 -27   -1.44    7.32
  -6  -8  27   -1.63    3.06
  -6  -8  27   -1.12    1.93
  -7  -8  27   -9.97    2.16
  -7  -8  27   -3.30    3.50
   8   8 -27  -18.96    8.31
  -8  -8  27   -0.15    3.65
   9   8 -27   -3.77    8.42
  -9  -8  27   -3.57    3.58
   9   7 -27   -0.49    1.68
   9   7 -27    2.67    7.76
  -9  -7  27   -2.97    3.14
  -9  -7  27    1.97    1.98
  -9  -6  27    3.77    2.21
  -9  -6  27    0.14    3.40
   9   5 -27    0.45    1.45
   9   5 -27   -8.51    7.21
  -9  -5  27    0.14    2.99
  -9  -5  27    0.10    1.67
   9   4 -27   -0.11    1.52
   9   4 -27   -0.28    6.82
  -9  -4  27    1.77    2.96
  -9  -4  27   -2.56    1.73
   9   3 -27    0.92    1.43
   9   3 -27   10.45    6.39
  -9  -3  27   -0.09    1.78
  -9  -3  27   -2.68    2.89
   9   2 -27    6.24    6.27
   9   2 -27    0.49    1.28
  -9  -2  27    2.38    2.91
  -9  -2  27   -1.08    1.69
   9   1 -27   -1.42    1.29
   9   1 -27   11.03    6.19
  -9  -1  27    0.86    1.63
  -9  -1  27   -3.28    2.86
   9   0 -27    2.71    1.62
   9   0 -27    4.12    5.88
  -9   0  27    1.22    1.82
  -9   0  27   12.25    3.14
   9  -1 -27    0.68    5.67
   9  -1 -27   -0.18    1.17
  -9   1  27   -1.32    1.43
  -9   1  27    1.04    2.91
   3   9 -27  -11.26    6.44
  -3  -9  27    0.61    2.92
  -3  -9  27    0.12    2.17
   4   9 -27    1.15    6.88
  -4  -9  27    6.79    2.38
  -4  -9  27   -2.29    3.07
   5   9 -27  -11.60    7.28
   5   9 -27   -1.25    1.62
  -5  -9  27    2.91    3.07
  -5  -9  27    0.74    2.06
   7   9 -27   -1.93    1.68
   7   9 -27   -7.99    8.04
  -7  -9  27   -7.86    3.54
  -7  -9  27   -0.64    2.05
   8   9 -27   -3.84    1.83
   8   9 -27   -9.51    8.27
  -8  -9  27   -0.11    2.04
  -8  -9  27   -1.13    3.48
   9   9 -27   -0.69    8.56
  -9  -9  27    0.16    3.63
  10   8 -27   -4.55    8.49
 -10  -8  27    3.76    3.57
  10   7 -27   -1.42    1.86
  10   7 -27   -4.02    8.19
 -10  -7  27    1.95    3.27
 -10  -7  27   -2.06    2.15
  10   6 -27    5.56    7.65
  10   6 -27    0.12    1.70
 -10  -6  27   -1.45    3.14
 -10  -6  27   -0.66    1.92
  10   5 -27   -1.77    1.74
 -10  -5  27   -2.83    2.02
  10   4 -27  -10.96    7.83
  10   4 -27   -1.24    1.72
 -10  -4  27   -0.69    3.18
  10   3 -27   10.41    7.05
  10   3 -27    0.11    1.53
 -10  -3  27    0.10    1.81
 -10  -3  27    1.21    2.90
  10   2 -27   -5.81    6.71
  10   2 -27   -1.61    1.47
 -10  -2  27    0.37    1.72
 -10  -2  27   -7.73    2.88
  10   1 -27    1.91    6.30
  10   1 -27   -2.17    1.36
 -10  -1  27    4.50    3.02
 -10  -1  27    0.18    1.71
  10   0 -27    0.37    6.37
  10   0 -27   -1.69    1.32
 -10   0  27    0.09    1.59
 -10   0  27   -0.13    2.76
 -10   1  27    1.66    1.46
 -10   1  27   -8.95    3.03
   3  10 -27   -0.68    6.76
  -3 -10  27    1.71    2.26
   4  10 -27  -13.89    8.10
  -4 -10  27   -2.21    2.44
  -4 -10  27    0.16    3.57
   5  10 -27    0.36    1.59
  -5 -10  27   -1.55    2.27
   6  10 -27   -0.73    1.72
   6  10 -27   -1.06    8.01
  -6 -10  27   -0.89    2.13
  -6 -10  27   -0.16    3.44
   7  10 -27   -2.53    1.84
   7  10 -27   11.64    8.60
  -7 -10  27   -5.64    3.62
  -7 -10  27    0.45    2.16
   8  10 -27  -15.48    8.74
  -8 -10  27   -0.34    3.71
 -11  -7  27   -0.15    3.17
  11   6 -27   -2.07    8.23
  11   6 -27   -1.33    1.80
 -11  -6  27   -6.37    2.11
 -11  -6  27   -0.15    3.34
  11   5 -27   -1.02    1.84
  11   5 -27   13.76    7.73
 -11  -5  27    0.12    2.06
 -11  -5  27   -0.14    3.03
  11   4 -27   -0.61    1.61
  11   4 -27   -6.61    7.35
 -11  -4  27    0.90    2.00
 -11  -4  27    2.06    3.00
  11   3 -27   -9.75    7.16
  11   3 -27    0.47    1.57
 -11  -3  27   -2.16    2.98
 -11  -3  27   -0.11    1.95
 -11  -2  27   -7.25    2.09
 -11  -2  27   -6.56    3.41
  11   1 -27   -3.14    7.03
 -11  -1  27  -10.64    3.28
 -11  -1  27    0.40    2.07
  11   0 -27   19.46    3.91
 -11   0  27    0.53    5.16
 -11   0  27   11.52    4.17
 -11   1  27    3.49    2.05
   3  11 -27   -0.89    6.85
  -3 -11  27    3.08    2.60
   4  11 -27   -0.54    7.49
  -4 -11  27   -0.17    3.36
  -4 -11  27    3.11    2.43
   5  11 -27    1.64    8.05
   5  11 -27    0.38    1.78
  -5 -11  27    3.77    3.52
  -5 -11  27   -0.93    2.34
   6  11 -27    0.19    8.62
   6  11 -27    1.29    1.86
  -6 -11  27    0.82    2.23
  -6 -11  27   -4.51    3.52
   7  11 -27  -16.46    9.03
  -7 -11  27    0.18    3.62
  12   5 -27    1.50    1.80
  12   5 -27  -11.94    8.01
 -12  -5  27    0.14    2.90
 -12  -5  27    0.63    2.11
  12   4 -27    2.23    1.73
  12   4 -27    9.34    7.79
 -12  -4  27    0.12    2.19
 -12  -4  27   -0.28    2.89
  12   3 -27    2.88    7.63
  12   3 -27    0.26    1.63
 -12  -3  27    1.09    2.85
 -12  -3  27    2.67    2.03
  12   2 -27    1.48    1.60
  12   2 -27   -4.02    7.22
 -12  -2  27   -0.92    2.02
 -12  -2  27   -0.13    2.80
  12   1 -27   -2.27    1.61
  12   1 -27  -11.30    7.00
 -12  -1  27   -4.92    2.96
 -12  -1  27   -1.09    2.00
  12   0 -27    1.77    1.53
  12   0 -27   -2.94    6.72
 -12   0  27   -0.13    2.87
 -12   0  27    0.21    1.78
  -3 -12  27    1.85    2.62
   4  12 -27    3.01    8.08
  -4 -12  27    7.26    2.69
  -4 -12  27    0.18    3.52
   5  12 -27    5.36    8.48
   5  12 -27   -1.74    1.94
  -5 -12  27    0.18    3.64
  -5 -12  27    0.62    2.27
   6  12 -27   17.31    9.09
  -6 -12  27   -0.18    3.68
  13   3 -27    2.53    1.82
  13   3 -27  -10.64    7.71
 -13  -3  27   -3.41    2.11
 -13  -3  27   -0.14    3.01
  13   2 -27  -10.07    7.48
  13   2 -27    0.14    1.75
 -13  -2  27   -9.91    2.32
 -13  -2  27   -3.65    3.03
  13   1 -27   -2.04    6.93
  13   1 -27   -2.82    1.76
 -13  -1  27    0.40    2.88
  13   0 -27    3.92    1.89
  13   0 -27   14.69    6.90
 -13   0  27    0.13    3.03
  -3 -13  27    2.61    2.76
   4  13 -27    1.41    1.79
   4  13 -27    6.28    8.12
  -4 -13  27    0.76    3.70
  14   1 -27    3.05    7.29
 -14  -1  27    4.25    3.14
 -14   0  27   -2.88    2.91
   3   2 -28   -1.50    5.43
  -3  -2  28    0.30    1.98
   3   1 -28    1.73    5.13
  -3  -1  28    0.10    1.93
  -3   0  28   -2.45    1.97
  -3   1  28    2.30    1.90
  -3   2  28    1.16    1.77
   3   3 -28   -0.56    5.60
  -3  -3  28    0.10    1.97
   4   3 -28   -1.10    5.90
  -4  -3  28    0.10    1.85
  -4  -3  28   -2.85    2.61
   4   2 -28    0.54    5.56
  -4  -2  28   -0.13    2.55
  -4  -2  28   -0.65    1.80
   4   1 -28    2.99    5.43
  -4  -1  28   -1.63    1.86
  -4  -1  28    5.17    2.77
   4   0 -28    0.13    5.17
  -4   0  28   -2.21    1.72
  -4   0  28   -5.77    2.69
   4  -1 -28    2.93    4.95
  -4   1  28   -0.09    1.67
  -4   1  28   -0.13    2.51
  -4   2  28   -1.24    1.61
   3   4 -28   -5.33    5.68
  -3  -4  28    1.04    2.02
   4   4 -28   -1.14    6.15
  -4  -4  28    0.83    2.63
  -4  -4  28    0.10    1.98
   5   4 -28   -0.14    6.16
  -5  -4  28   -2.28    1.90
  -5  -4  28    0.14    2.77
   5   3 -28   -1.24    6.30
  -5  -3  28    0.28    1.75
  -5  -3  28  -12.11    2.79
   5   2 -28   11.68    6.08
  -5  -2  28    9.45    3.18
  -5  -2  28    0.09    2.09
   5   1 -28   -7.72    5.68
  -5  -1  28   -0.13    2.81
  -5  -1  28   -0.78    1.82
   5   0 -28  -12.79    5.70
  -5   0  28    0.08    1.66
  -5   0  28   -7.02    2.73
   5  -1 -28    2.03    5.52
  -5   1  28    0.16    1.53
  -5   1  28    3.34    2.69
   3   5 -28   -2.67    5.96
  -3  -5  28    2.58    2.09
   4   5 -28    3.39    6.34
  -4  -5  28    0.14    2.65
  -4  -5  28    0.10    1.93
   5   5 -28  -11.08    6.43
  -5  -5  28    0.14    2.84
  -5  -5  28    0.29    1.77
   6   5 -28   -0.50    1.37
   6   5 -28   -2.23    6.78
  -6  -5  28    0.09    1.85
  -6  -5  28   -7.34    2.97
   6   4 -28    1.72    6.47
   6   4 -28   -0.95    1.19
  -6  -4  28    0.91    1.79
  -6  -4  28   -0.14    2.84
   6   3 -28    3.87    6.48
   6   3 -28    0.92    1.29
  -6  -3  28    0.68    2.73
  -6  -3  28    0.35    1.74
   6   2 -28   11.18    6.36
   6   2 -28   -0.09    1.30
  -6  -2  28   -3.34    2.75
  -6  -2  28    0.17    1.71
   6   1 -28    3.60    5.87
   6   1 -28    0.17    1.23
  -6  -1  28    0.53    2.86
  -6  -1  28   -2.32    1.64
   6   0 -28   -8.66    5.86
   6   0 -28    0.50    1.18
  -6   0  28    0.13    2.63
  -6   0  28    0.16    1.50
   6  -1 -28    6.80    5.46
   6  -1 -28   -0.32    1.15
  -6   1  28    2.30    2.71
  -6   1  28    2.85    1.62
   3   6 -28   -5.83    6.18
  -3  -6  28    4.01    2.12
   4   6 -28   -3.21    6.45
  -4  -6  28   -0.14    2.71
  -4  -6  28    0.42    2.06
   5   6 -28   13.20    6.65
  -5  -6  28   -1.30    2.97
  -5  -6  28    0.30    1.89
   6   6 -28    0.78    7.07
   6   6 -28    1.24    1.60
  -6  -6  28    5.96    3.11
  -6  -6  28    0.10    1.99
   7   6 -28    5.78    7.02
   7   6 -28    1.59    1.55
  -7  -6  28   -5.82    1.94
  -7  -6  28    2.65    2.96
   7   5 -28   -5.39    6.83
   7   5 -28    3.36    1.60
  -7  -5  28    2.43    3.09
  -7  -5  28    1.43    1.86
   7   4 -28   -2.25    1.52
   7   4 -28    5.11    6.69
  -7  -4  28    0.09    1.75
  -7  -4  28    0.14    2.85
   7   3 -28    0.47    1.35
   7   3 -28    0.14    6.22
  -7  -3  28    0.09    1.67
  -7  -3  28    5.08    2.96
   7   2 -28   -2.13    6.12
   7   2 -28   -1.37    1.28
  -7  -2  28   -6.63    3.00
  -7  -2  28    0.26    1.59
   7   1 -28    5.77    6.12
   7   1 -28    0.53    1.26
  -7  -1  28   -0.16    1.55
  -7  -1  28   -8.56    2.80
   7   0 -28    0.09    1.23
   7   0 -28   -2.10    5.75
  -7   0  28   -2.51    2.85
  -7   0  28    0.63    1.53
   7  -1 -28   11.71    5.74
   7  -1 -28    1.74    1.33
  -7   1  28    2.48    1.59
  -7   1  28    3.38    2.77
   3   7 -28    1.91    6.23
   4   7 -28   -8.42    6.78
  -4  -7  28   -0.15    2.91
   5   7 -28   -3.68    6.95
  -5  -7  28   -0.60    2.99
   6   7 -28  -12.01    7.61
   6   7 -28    2.49    1.51
  -6  -7  28   -0.15    3.07
  -6  -7  28    1.44    2.09
   7   7 -28   -4.22    1.55
   7   7 -28   -8.67    8.40
  -7  -7  28    0.15    3.51
  -7  -7  28    0.62    2.15
   8   7 -28   -0.35    1.64
   8   7 -28  -10.31    7.95
  -8  -7  28   -0.63    1.98
  -8  -7  28    0.16    3.30
   8   5 -28    0.21    1.51
   8   5 -28    8.13    7.22
  -8  -5  28   -3.03    1.82
  -8  -5  28   -0.15    2.95
   8   4 -28    1.42    6.65
   8   4 -28    0.10    1.45
  -8  -4  28    0.09    1.74
  -8  -4  28   -0.43    2.97
   8   3 -28   -9.69    6.54
   8   3 -28    1.69    1.38
  -8  -3  28    0.09    1.66
  -8  -3  28    0.71    2.88
   8   2 -28    3.44    1.46
   8   2 -28    8.13    6.43
  -8  -2  28   -0.14    2.93
  -8  -2  28    0.87    1.74
   8   1 -28    7.83    6.20
   8   1 -28    1.01    1.36
  -8  -1  28    1.38    3.01
  -8  -1  28    0.33    1.60
   8   0 -28    7.12    6.18
   8   0 -28    1.73    1.62
  -8   0  28    8.46    3.28
  -8   0  28    5.25    1.92
   8  -1 -28    0.35    1.17
   8  -1 -28   -4.36    5.68
  -8   1  28    0.08    1.52
  -8   1  28   -5.12    3.01
   3   8 -28    0.33    6.40
  -3  -8  28   -1.90    2.36
   4   8 -28   -0.17    6.71
  -4  -8  28    0.22    2.18
  -4  -8  28    5.10    3.09
   5   8 -28   -1.34    7.20
  -5  -8  28   -0.11    2.00
  -5  -8  28    3.26    3.28
   7   8 -28    3.77    8.46
  -7  -8  28   -0.16    3.22
   8   8 -28   -9.31    8.39
  -8  -8  28   -2.76    3.77
   9   8 -28  -16.66    8.84
  -9  -8  28    1.49    3.48
   9   7 -28    9.64    8.53
   9   7 -28    0.13    1.91
  -9  -7  28   -0.22    2.00
  -9  -7  28    5.40    3.45
   9   6 -28    0.85    1.70
   9   6 -28   -2.38    7.93
  -9  -6  28    0.15    3.27
  -9  -6  28    0.10    1.96
   9   5 -28    0.47    1.88
  -9  -5  28   -3.42    1.97
   9   4 -28   -3.58    1.71
  -9  -4  28    0.48    1.95
  -9  -4  28   -0.29    3.43
   9   3 -28    5.50    7.12
   9   3 -28    1.94    1.60
  -9  -3  28    1.30    1.83
  -9  -3  28    0.14    2.96
   9   2 -28   -4.07    6.88
   9   2 -28   -1.14    1.41
  -9  -2  28   -3.89    1.85
  -9  -2  28   -5.82    3.02
   9   1 -28   -9.51    6.61
   9   1 -28    0.70    1.36
  -9  -1  28   -0.14    3.04
  -9  -1  28    1.81    1.70
   9   0 -28    0.50    6.16
   9   0 -28    0.57    1.28
  -9   0  28   -0.17    1.61
  -9   0  28   -6.86    3.04
  -9   1  28    0.65    1.52
   3   9 -28   11.53    7.00
  -3  -9  28    6.23    3.11
  -4  -9  28    0.64    3.51
  -4  -9  28   -6.79    2.60
   5   9 -28    0.12    1.63
  -5  -9  28   -2.66    2.22
  -5  -9  28  -16.25    3.63
   6   9 -28    0.60    1.78
   6   9 -28   -1.96    8.11
  -6  -9  28    0.90    2.20
  -6  -9  28   -0.98    3.47
   7   9 -28    0.76    1.71
   7   9 -28    6.30    8.52
  -7  -9  28   -3.13    2.15
  -7  -9  28   -1.84    3.48
   8   9 -28    0.13    1.82
   8   9 -28  -15.60    8.83
  -8  -9  28    0.12    2.00
  -8  -9  28    0.17    3.81
  10   7 -28   -2.75    8.60
 -10  -7  28    0.32    3.44
  10   6 -28   20.06    8.35
  10   6 -28   -2.20    1.78
 -10  -6  28    0.35    2.15
 -10  -6  28   -2.17    3.41
  10   5 -28   -3.44    7.70
  10   5 -28    0.12    1.69
 -10  -5  28   -1.32    2.05
 -10  -5  28    3.46    3.28
  10   4 -28    0.36    1.47
  10   4 -28   -0.45    7.62
 -10  -4  28    0.11    1.97
 -10  -4  28   -3.83    3.11
  10   3 -28  -16.91    7.87
  10   3 -28   -5.23    1.85
 -10  -3  28   -8.26    3.47
 -10  -3  28   -8.54    2.14
  10   2 -28  -15.31    8.39
  10   2 -28   13.44    2.33
 -10  -2  28    0.20    2.50
 -10  -1  28  128.54   33.03
   3  10 -28   -1.79    7.15
  -3 -10  28   -3.08    2.79
   4  10 -28   -4.16    7.51
  -4 -10  28    0.12    2.40
  -4 -10  28    0.51    3.34
   5  10 -28   -3.24    1.76
   5  10 -28   -3.12    7.83
  -5 -10  28   -3.93    3.49
  -5 -10  28    0.12    2.29
   6  10 -28    3.45    2.10
   6  10 -28    5.08    8.50
  -6 -10  28   -0.12    2.23
  -6 -10  28    0.17    3.50
   7  10 -28    0.13    1.45
   7  10 -28   13.42    9.09
  -7 -10  28    0.70    3.67
  11   5 -28    1.20    1.98
  11   5 -28   -6.15    8.02
 -11  -5  28    0.15    3.24
 -11  -5  28    5.47    2.34
  11   4 -28   -3.57    1.76
  11   4 -28   -2.18    7.80
 -11  -4  28    0.30    3.13
 -11  -4  28    0.91    2.04
  11   3 -28  -13.02    7.60
  11   3 -28   -0.37    1.62
 -11  -3  28   -2.18    3.25
 -11  -3  28    0.34    2.02
  11   2 -28   -1.15    7.42
  11   2 -28   -1.29    1.56
 -11  -2  28   -0.33    1.92
 -11  -2  28    0.72    3.21
  11   1 -28   -0.79    1.52
  11   1 -28    0.42    7.03
 -11  -1  28    0.14    3.06
 -11  -1  28    0.21    1.73
  11   0 -28   -6.78    6.75
  11   0 -28   -1.45    1.43
 -11   0  28    5.13    3.15
 -11   0  28   -5.47    1.81
  -3 -11  28    2.16    2.73
   4  11 -28    4.53    7.87
  -4 -11  28    1.26    2.39
  -4 -11  28   -7.11    3.52
   5  11 -28    6.22    2.27
   5  11 -28    8.46    8.40
  -5 -11  28   -0.18    3.76
  -5 -11  28    2.20    2.57
   6  11 -28  -10.26    8.95
  -6 -11  28    1.10    3.69
  12   4 -28  -11.53    8.03
  12   4 -28    2.47    1.61
 -12  -4  28   -0.45    3.22
  12   3 -28   -6.00    7.61
  12   3 -28   -1.98    1.81
 -12  -3  28   -0.44    3.15
 -12  -3  28   -3.54    2.20
  12   2 -28    1.29    1.63
  12   2 -28   -5.03    7.30
 -12  -2  28   -0.29    3.10
 -12  -2  28    1.17    2.09
  12   1 -28   -0.50    1.57
  12   1 -28    5.40    7.01
 -12  -1  28    0.71    3.13
 -12  -1  28   -1.15    1.92
  12   0 -28    9.81    6.81
  12   0 -28   -4.21    1.54
 -12   0  28    1.64    1.94
 -12   0  28    1.84    3.03
  -3 -12  28    0.14    2.67
   4  12 -28   -2.17    8.05
  -4 -12  28    0.94    3.84
  13   2 -28   -0.28    1.79
  13   2 -28   -3.60    7.90
 -13  -2  28   -2.46    3.13
 -13  -2  28    0.13    1.72
  13   1 -28   -2.30    7.51
  13   1 -28    0.14    1.64
 -13  -1  28    0.29    3.02
 -13  -1  28   -2.42    2.02
 -13   0  28    8.52    3.88
  -3  -2  29    0.10    2.01
  -3  -1  29    0.31    2.07
  -3   0  29    0.10    1.93
  -3   1  29    3.98    2.24
  -3   2  29    0.28    1.97
   3   3 -29    0.15    5.74
  -3  -3  29   -1.39    2.02
   4   3 -29    5.40    5.93
  -4  -3  29   -0.14    2.90
  -4  -3  29    0.30    2.02
   4   2 -29    0.14    5.92
  -4  -2  29    1.28    2.21
  -4  -2  29   10.67    3.13
   4   1 -29    4.24    5.75
  -4  -1  29    0.29    1.89
  -4  -1  29   -1.27    2.97
   4   0 -29   -0.40    5.44
  -4   0  29    0.09    1.83
   4  -1 -29    7.59    5.14
  -4   1  29    0.45    1.77
   3   4 -29   -0.30    5.73
  -3  -4  29   -2.97    2.21
   4   4 -29   -0.75    6.19
  -4  -4  29   -1.56    1.99
  -4  -4  29    0.15    2.90
   5   4 -29    0.15    6.47
  -5  -4  29    1.46    2.92
  -5  -4  29    0.20    1.96
   5   3 -29    0.15    6.22
  -5  -3  29    2.16    2.98
  -5  -3  29    0.10    1.91
   5   2 -29    9.98    6.23
  -5  -2  29    0.09    2.01
  -5  -2  29    7.80    3.11
   5   1 -29   -1.49    6.00
  -5  -1  29    0.55    1.75
  -5  -1  29    0.14    2.80
   5   0 -29   -4.20    5.70
  -5   0  29   -4.29    2.81
  -5   0  29    0.17    1.81
   5  -1 -29   -0.25    5.22
  -5   1  29    0.14    2.68
  -5   1  29   -5.23    1.74
   3   5 -29    4.24    6.07
  -3  -5  29    2.27    2.26
   4   5 -29    3.74    6.43
  -4  -5  29   -1.07    2.11
  -4  -5  29    0.15    2.82
   5   5 -29   11.42    6.80
  -5  -5  29   -1.49    3.10
  -5  -5  29   -1.92    2.02
   6   5 -29   -9.18    7.21
   6   5 -29    0.10    1.39
  -6  -5  29    1.29    1.92
  -6  -5  29    2.55    3.09
   6   4 -29   -2.28    6.79
   6   4 -29    0.30    1.34
  -6  -4  29   -2.05    3.01
  -6  -4  29    0.29    1.83
   6   3 -29   -2.41    1.35
   6   3 -29    1.61    6.50
  -6  -3  29    4.61    3.07
  -6  -3  29    1.40    1.78
   6   2 -29    1.95    1.34
   6   2 -29   -0.99    6.38
  -6  -2  29   -3.55    3.15
  -6  -2  29    0.09    1.81
   6   1 -29   12.16    6.35
   6   1 -29   -3.17    1.29
  -6  -1  29    1.14    1.74
  -6  -1  29    0.84    2.97
   6   0 -29    1.83    1.30
   6   0 -29    6.82    5.89
  -6   0  29    1.37    1.70
  -6   0  29   -5.54    2.93
   6  -1 -29    0.08    1.15
   6  -1 -29    5.66    5.76
  -6   1  29    7.38    2.96
   3   6 -29   -6.32    6.21
  -3  -6  29    2.46    2.28
   4   6 -29   -1.13    6.42
  -4  -6  29    0.15    2.79
  -4  -6  29    1.55    2.16
   5   6 -29    2.28    6.87
  -5  -6  29    0.46    3.26
  -5  -6  29    1.26    1.99
   6   6 -29    0.43    1.40
   6   6 -29  -16.31    7.65
  -6  -6  29   -0.46    3.18
  -6  -6  29   -4.22    2.07
   7   6 -29  -14.27    8.50
   7   6 -29    3.23    1.74
  -7  -6  29    2.70    2.05
  -7  -6  29    0.16    3.50
   7   5 -29   -2.35    1.60
  -7  -5  29    0.15    3.22
  -7  -5  29   -1.90    2.03
   7   4 -29    0.51    1.41
   7   4 -29   -2.14    7.20
  -7  -4  29   -3.58    1.88
  -7  -4  29    0.30    3.04
   7   3 -29    1.09    1.33
   7   3 -29   -5.30    6.91
  -7  -3  29    0.15    2.92
  -7  -3  29    0.19    1.85
   7   2 -29    0.10    1.19
   7   2 -29   -2.83    6.59
  -7  -2  29    2.03    2.88
  -7  -2  29   -2.63    1.72
   7   1 -29    0.46    1.42
   7   1 -29    3.54    6.51
  -7  -1  29    1.83    1.75
  -7  -1  29    0.72    2.98
   7   0 -29   -0.55    1.21
   7   0 -29   -1.59    6.04
  -7   0  29   -0.08    1.59
  -7   0  29   -3.96    2.96
   7  -1 -29    0.09    1.16
  -7   1  29   -2.22    2.99
  -7   1  29    1.04    1.50
   3   7 -29   14.10    7.42
   4   7 -29   -7.38    7.16
  -4  -7  29   -1.38    2.14
  -4  -7  29    0.16    3.05
   5   7 -29  -24.54    7.83
  -5  -7  29    5.54    3.36
  -5  -7  29   -0.11    2.11
   6   7 -29    5.87    8.75
   6   7 -29    4.08    1.74
  -6  -7  29    0.16    3.51
  -6  -7  29   -7.99    2.31
   7   7 -29    1.74    1.67
   7   7 -29    9.56    8.41
  -7  -7  29   -3.08    3.33
  -7  -7  29    0.11    2.08
   8   7 -29   -0.18    8.44
   8   7 -29    0.61    1.67
  -8  -7  29   -2.11    2.09
  -8  -7  29   -0.16    3.57
   8   6 -29   -4.51    7.80
   8   6 -29    1.99    1.58
  -8  -6  29   -1.50    2.06
  -8  -6  29   -1.44    3.46
   8   5 -29   -3.72    1.76
  -8  -5  29   -2.99    2.11
  -8  -5  29   -0.47    3.66
  -8  -4  29    0.15    3.58
   8   3 -29  -10.48    7.28
   8   3 -29    0.10    1.35
  -8  -3  29    0.48    1.84
  -8  -3  29    0.75    3.15
   8   2 -29    7.66    6.73
   8   2 -29   -1.10    1.34
  -8  -2  29    4.00    3.23
  -8  -2  29   -0.09    1.80
   8   1 -29   -5.46    6.51
   8   1 -29    2.32    1.41
  -8  -1  29    1.03    3.10
  -8  -1  29    0.09    1.68
   8   0 -29    3.54    6.06
   8   0 -29   -4.35    1.35
  -8   0  29   -0.14    3.20
  -8   0  29   -0.08    1.59
  -8   1  29    1.72    1.65
   3   8 -29    1.92    6.72
  -3  -8  29    0.38    2.41
   4   8 -29   42.58    8.40
  -4  -8  29    0.12    2.83
  -4  -8  29    0.16    3.76
   6   8 -29    8.84    8.61
  -6  -8  29    0.17    3.49
   7   8 -29   11.21    8.87
  -7  -8  29    0.17    3.51
   8   8 -29   -3.35    8.84
  -8  -8  29    0.17    3.66
   9   7 -29    0.70    8.60
  -9  -7  29    0.17    3.63
   9   6 -29   -0.50    1.84
   9   6 -29    2.52    8.29
  -9  -6  29   -2.62    3.71
  -9  -6  29   -3.86    2.18
   9   5 -29   10.14    7.74
   9   5 -29    0.60    1.73
  -9  -5  29    0.16    3.49
  -9  -5  29    0.64    2.02
   9   4 -29   -4.02    7.65
   9   4 -29   -0.92    1.65
  -9  -4  29    0.51    2.01
  -9  -4  29    0.63    3.30
   9   3 -29   -5.21    7.62
   9   3 -29   -3.50    1.83
  -9  -3  29   -2.65    2.12
  -9  -3  29  -11.23    3.56
   9   2 -29   17.48    2.94
  -9  -2  29   -1.13    3.10
  -9  -1  29  205.92   52.03
   9   0 -29  161.07   50.19
   4   9 -29    5.82    7.64
  -4  -9  29   -0.17    3.43
  -4  -9  29    2.09    2.39
   5   9 -29    2.21    7.99
   5   9 -29   -0.12    1.60
  -5  -9  29    2.68    2.34
  -5  -9  29    0.17    3.30
   6   9 -29   -0.87    1.79
   6   9 -29  -23.42    8.52
  -6  -9  29    0.12    2.33
  -6  -9  29    2.25    3.64
   7   9 -29    6.76    8.83
  -7  -9  29   -0.18    3.74
 -10  -6  29   -8.29    3.65
  10   5 -29    2.20    1.99
  10   5 -29   -4.17    8.26
 -10  -5  29    2.26    3.57
 -10  -5  29    6.62    2.41
  10   4 -29    6.90    8.03
  10   4 -29    2.73    1.86
 -10  -4  29    0.33    2.07
 -10  -4  29   -2.69    3.30
  10   3 -29   -8.03    7.77
  10   3 -29    0.84    1.48
 -10  -3  29    1.50    2.09
 -10  -3  29    4.52    3.52
  10   2 -29   19.15    7.68
  10   2 -29   -0.11    1.58
 -10  -2  29   -0.21    1.93
 -10  -2  29    0.62    3.45
  10   1 -29   -6.14    1.54
  10   1 -29    1.00    7.21
 -10  -1  29   -1.38    1.86
 -10  -1  29   -4.91    3.42
  10   0 -29   -0.55    1.52
  10   0 -29   11.34    6.96
 -10   0  29   -0.67    1.79
 -10   0  29    2.14    3.43
   4  10 -29   -0.76    7.89
  -4 -10  29   -0.18    3.52
  -4 -10  29   -2.45    2.54
   5  10 -29  -11.82    8.53
   5  10 -29    2.35    1.90
  -5 -10  29    0.18    3.61
  -5 -10  29    2.81    2.46
  -6 -10  29    0.18    3.86
  11   4 -29    1.47    1.77
  11   4 -29   -6.74    8.13
 -11  -4  29    0.80    3.55
  11   3 -29   -0.79    7.78
  11   3 -29   -0.26    1.83
 -11  -3  29    2.53    2.09
 -11  -3  29    3.14    3.38
  11   2 -29   -0.74    1.73
  11   2 -29    9.57    7.56
 -11  -2  29    0.16    3.37
 -11  -2  29   -0.11    2.14
  11   1 -29    0.24    1.57
  11   1 -29    6.13    7.28
 -11  -1  29    0.15    3.39
 -11  -1  29   -0.22    1.89
  11   0 -29   -1.97    1.56
  11   0 -29    9.36    7.05
 -11   0  29    0.63    1.88
 -11   0  29    0.77    3.32
   4  11 -29   11.73    7.90
  -4 -11  29    0.37    3.77
  12   3 -29  -10.26    8.26
 -12  -3  29   -1.57    3.38
  12   2 -29   -2.39    1.65
  12   2 -29   -9.07    8.14
 -12  -2  29   -0.12    2.16
 -12  -2  29   -4.81    3.40
  12   1 -29    0.78    1.57
  12   1 -29    5.10    7.72
 -12  -1  29   -0.35    2.07
 -12  -1  29   -6.93    3.28
 -12   0  29    0.57    1.92
  13   1 -29    0.57    1.45
  13   1 -29   -0.61    7.36
 -13  -1  29    0.15    3.19
  -3  -2  30    0.11    2.12
  -3  -1  30   -0.22    2.10
  -3   0  30    0.32    2.14
  -3   1  30    2.16    2.10
  -3  -3  30    0.11    2.10
   4   3 -30    6.30    6.08
  -4  -3  30   -2.60    3.07
  -4  -3  30   -3.73    2.11
   4   2 -30    0.74    5.73
  -4  -2  30    0.52    2.05
   4   1 -30    1.01    5.78
  -4  -1  30   -0.20    1.99
   4   0 -30    5.45    5.52
  -4   0  30   -1.58    1.97
  -4   1  30    1.54    1.89
   4   4 -30   -4.28    6.38
  -4  -4  30    2.64    2.98
  -4  -4  30    1.97    2.17
   5   4 -30   -5.41    6.69
  -5  -4  30   -0.78    2.98
  -5  -4  30   -3.92    2.03
   5   3 -30   11.51    6.57
  -5  -3  30    0.61    3.08
  -5  -3  30   -1.54    2.01
   5   2 -30   -4.60    6.34
  -5  -2  30    7.69    3.25
  -5  -2  30    2.20    2.12
   5   1 -30  -11.61    6.13
  -5  -1  30    0.30    2.93
  -5  -1  30   -0.95    1.87
   5   0 -30    1.24    5.60
  -5   0  30    1.03    2.90
  -5   0  30   -0.09    1.72
   5  -1 -30    0.40    5.59
  -5   1  30    1.87    2.87
  -5   1  30   -4.10    1.78
   4   5 -30   -6.24    6.76
  -4  -5  30    1.13    2.22
  -4  -5  30   -0.16    3.10
   5   5 -30  -10.89    7.22
  -5  -5  30   -0.43    2.10
  -5  -5  30    1.75    3.14
  -6  -5  30    5.22    2.61
  -6  -5  30    1.28    3.82
   6   4 -30   -2.30    1.40
   6   4 -30   -9.53    7.15
  -6  -4  30   -0.71    1.93
  -6  -4  30    0.16    3.11
   6   3 -30    3.58    6.88
   6   3 -30    2.53    1.45
  -6  -3  30    0.77    3.18
  -6  -3  30    0.69    1.96
   6   2 -30   -1.27    1.48
   6   2 -30   -5.24    6.80
  -6  -2  30    2.42    3.08
  -6  -2  30    1.53    1.86
   6   1 -30    1.05    1.43
   6   1 -30   -2.30    6.28
  -6  -1  30    0.60    3.22
  -6  -1  30    0.83    1.80
   6   0 -30    5.68    6.01
   6   0 -30   -0.92    1.34
  -6   0  30    0.15    3.02
  -6   0  30   -0.09    1.71
  -6   1  30    3.19    3.03
  -6   1  30   -1.65    1.68
   4   6 -30   -9.02    6.88
  -4  -6  30   -0.16    3.23
  -4  -6  30    0.12    2.27
  -5  -6  30   -3.26    4.03
  -5  -6  30   10.90    3.00
   6   6 -30   -3.67    7.85
   6   6 -30    0.11    1.49
  -6  -6  30   -0.16    3.33
  -6  -6  30   -0.11    2.18
   7   6 -30    6.77    8.39
   7   6 -30    0.23    1.64
  -7  -6  30    0.17    3.54
  -7  -6  30   -5.03    2.14
   7   5 -30   -1.01    1.41
   7   5 -30    0.86    7.87
  -7  -5  30    0.16    3.22
  -7  -5  30   -5.28    2.09
   7   4 -30   -1.48    8.75
   7   4 -30    6.79    1.90
  -7  -4  30   -0.10    2.12
  -7  -4  30    0.16    3.59
   7   3 -30   -0.42    1.54
  -7  -3  30   -3.95    2.29
   7   2 -30   -1.37    6.98
   7   2 -30    1.21    1.49
  -7  -2  30  -12.64    3.50
  -7  -2  30    0.19    1.94
   7   1 -30    2.04    1.43
   7   1 -30   -3.36    6.74
  -7  -1  30    2.74    3.22
  -7  -1  30   -0.65    1.81
   7   0 -30    6.87    6.47
   7   0 -30    0.77    1.40
  -7   0  30    0.15    3.07
  -7   0  30    0.62    1.76
  -7   1  30    1.86    1.74
   4   7 -30   28.44    8.49
  -4  -7  30   -0.12    3.09
   5   7 -30   11.42    7.82
  -5  -7  30    0.46    2.27
  -5  -7  30    0.17    3.29
   6   7 -30    0.71    1.76
   6   7 -30    8.56    8.33
  -6  -7  30    0.17    3.53
  -6  -7  30   -0.91    2.26
   7   7 -30    0.73    1.73
   7   7 -30   -6.52    8.80
  -7  -7  30    0.11    2.13
  -7  -7  30   -1.72    3.50
   8   7 -30   -0.57    9.08
  -8  -7  30    0.17    3.63
   8   6 -30    2.83    1.92
   8   6 -30   -3.25    8.55
  -8  -6  30    2.93    2.13
  -8  -6  30    0.17    3.64
   8   5 -30    6.05    7.84
   8   5 -30   -0.83    1.50
  -8  -5  30    0.17    3.34
  -8  -5  30   -1.06    2.02
   8   4 -30    4.15    7.77
   8   4 -30    0.23    1.53
  -8  -4  30    0.16    3.41
  -8  -4  30    1.13    1.95
   8   3 -30   -1.64    1.57
   8   3 -30    0.32    7.59
  -8  -3  30   -1.52    1.90
  -8  -3  30   -4.62    3.35
   8   2 -30   -5.90    1.90
   8   1 -30  -18.73    8.88
  -8  -1  30   -8.25    4.08
  -8  -1  30   -3.93    2.25
   4   8 -30   22.61    7.65
  -4  -8  30   -2.93    3.60
   5   8 -30   10.82    8.22
  -5  -8  30    0.17    3.62
   6   8 -30   -3.61    8.62
  -6  -8  30    0.18    3.61
  -7  -8  30    0.18    3.85
  -9  -6  30    0.17    3.65
   9   5 -30    1.88    2.03
   9   5 -30   28.60    8.42
  -9  -5  30    1.36    3.66
  -9  -5  30    2.35    2.29
   9   4 -30    0.48    1.70
   9   4 -30   -6.33    8.10
  -9  -4  30   -2.04    2.13
  -9  -4  30    0.17    3.32
   9   3 -30  -13.45    8.01
   9   3 -30   -2.31    1.58
  -9  -3  30   -1.14    2.02
  -9  -3  30   -0.16    3.47
   9   2 -30    2.51    1.58
   9   2 -30   -0.77    7.64
  -9  -2  30    0.49    3.38
  -9  -2  30    0.10    1.87
   9   1 -30    2.66    7.37
   9   1 -30   -0.66    1.50
  -9  -1  30   -1.32    1.93
  -9  -1  30    0.16    3.55
   9   0 -30   -1.71    6.88
   9   0 -30   -4.83    1.46
  -9   0  30   -3.97    1.82
  -9   0  30    3.50    3.49
   4   9 -30   12.84    7.78
  -4  -9  30   -4.31    3.46
  -4  -9  30   -4.14    2.54
   5   9 -30  -19.51    8.41
  -5  -9  30   -0.54    3.62
  10   4 -30    6.79    8.44
  10   4 -30    1.04    1.93
 -10  -4  30    0.47    2.21
 -10  -4  30    0.17    3.59
  10   3 -30   -1.14    7.90
  10   3 -30   -2.26    1.70
 -10  -3  30    0.11    2.13
 -10  -3  30   -5.02    3.56
  10   2 -30   19.33    8.00
  10   2 -30    0.24    1.68
 -10  -2  30   -9.44    3.63
 -10  -2  30    0.11    2.04
  10   1 -30   -0.92    1.63
  10   1 -30    0.15    7.43
 -10  -1  30    0.21    2.01
 -10  -1  30   -4.61    3.60
  10   0 -30   -7.47    7.04
  10   0 -30    1.83    1.47
 -10   0  30   -0.30    1.87
 -10   0  30    3.77    3.62
  11   3 -30   -3.37    8.31
 -11  -3  30   -0.68    3.67
  11   2 -30    1.42    1.71
  11   2 -30    1.29    8.16
 -11  -2  30  -14.55    3.83
 -11  -2  30   -3.95    2.10
  11   1 -30    2.11    1.76
  11   1 -30    1.71    7.65
 -11  -1  30    0.17    3.58
 -11  -1  30   -0.23    2.08
 -11   0  30    0.11    1.91
  12   1 -30   -1.08    1.67
  12   1 -30    3.96    7.75
 -12  -1  30   -1.60    2.16
 -12  -1  30   -5.82    3.65
   4   3 -31    5.67    6.52
  -4  -3  31    3.15    2.43
   4   2 -31   -2.82    6.03
  -4  -2  31    0.11    2.12
  -4  -1  31   -0.21    2.19
  -4   0  31    1.57    2.21
  -4   1  31    2.34    2.08
   4   4 -31   -3.18    6.45
  -4  -4  31    0.12    2.23
  -5  -4  31    3.63    7.04
  -5  -4  31   20.69    5.61
   5   3 -31   -7.79    6.96
  -5  -3  31    0.16    2.99
  -5  -3  31    0.21    2.11
   5   2 -31   -5.17    6.49
  -5  -2  31    0.16    3.03
  -5  -2  31   -1.14    2.02
   5   1 -31    4.38    6.50
  -5  -1  31    3.42    1.91
  -5  -1  31   -7.09    3.09
   5   0 -31    0.29    6.02
  -5   0  31    1.86    3.18
  -5   0  31    1.27    1.94
  -5   1  31    0.09    1.90
   4   5 -31   93.09   25.09
   5   5 -31  -10.30    7.45
  -5  -5  31    0.17    3.53
  -5  -5  31   -6.95    2.40
   6   5 -31   -2.84    7.65
   6   5 -31   -0.11    1.59
  -6  -5  31    0.51    3.38
  -6  -5  31    1.32    2.17
   6   4 -31   -5.49    1.68
   6   4 -31    8.54    7.39
  -6  -4  31    0.21    2.14
  -6  -4  31   -6.00    3.22
   6   3 -31    9.77    2.04
   6   3 -31    3.62    8.95
  -6  -3  31   -0.52    2.26
  -6  -3  31   -4.43    3.86
   6   2 -31   41.28    8.12
  -6  -2  31    0.16    4.27
  -6  -2  31    3.63    2.87
   6   1 -31   -2.20    1.51
  -6  -1  31   -4.21    2.37
   6   0 -31    0.10    1.51
  -6   0  31   -8.42    2.05
   4   6 -31    5.56    7.21
  -4  -6  31   -1.48    2.47
   5   6 -31    4.72    7.73
  -5  -6  31    0.17    3.52
  -5  -6  31    0.12    2.22
   6   6 -31    0.12    1.62
   6   6 -31    1.11    7.93
  -6  -6  31   -1.71    2.32
  -6  -6  31    0.17    3.61
   7   6 -31    0.61    1.84
   7   6 -31    3.78    8.73
  -7  -6  31   -1.24    3.66
  -7  -6  31    1.84    2.16
   7   5 -31   -2.54    8.37
   7   5 -31    1.64    1.53
  -7  -5  31    1.78    2.18
  -7  -5  31    0.17    3.53
   7   4 -31    7.49    7.97
   7   4 -31    0.11    1.56
  -7  -4  31   -0.17    3.63
  -7  -4  31   -0.11    2.06
   7   3 -31    2.51    1.57
   7   3 -31    2.51    7.56
  -7  -3  31   -6.98    3.43
  -7  -3  31    0.52    2.12
   7   2 -31    0.32    1.51
   7   2 -31    4.52    7.50
  -7  -2  31    0.16    3.45
  -7  -2  31   -0.10    1.89
   7   1 -31   -7.13    1.71
  -7  -1  31   -5.86    2.14
   7   0 -31   -6.75    1.71
   4   7 -31   -2.61    7.58
  -4  -7  31   -4.14    2.44
   5   7 -31    4.34    8.04
  -5  -7  31   -5.69    3.75
  -5  -7  31   -1.08    2.30
   6   7 -31   -1.16    8.33
   6   7 -31   -0.12    1.71
  -6  -7  31   -4.86    3.67
  -6  -7  31   -2.63    2.52
   8   5 -31    0.12    1.74
   8   5 -31    3.86    8.63
  -8  -5  31    0.18    3.60
  -8  -5  31    0.34    2.06
   8   4 -31   12.17    8.36
   8   4 -31   -1.19    1.72
  -8  -4  31    1.04    3.55
  -8  -4  31    0.32    2.09
   8   3 -31   -0.34    1.48
   8   3 -31    4.40    8.10
  -8  -3  31   -0.10    1.95
  -8  -3  31   -4.77    3.51
   8   2 -31    9.61    7.85
   8   2 -31    1.44    1.51
  -8  -2  31    0.34    3.48
  -8  -2  31   -4.53    1.88
   8   1 -31   -4.37    1.54
   8   1 -31    0.79    7.42
  -8  -1  31   -0.79    1.89
  -8  -1  31    0.17    3.43
   8   0 -31    1.51    7.07
   8   0 -31   -0.10    1.36
  -8   0  31   -0.09    1.81
  -8   0  31    0.16    3.41
   4   8 -31   -6.01    7.95
   5   8 -31  -24.03    8.80
  -5  -8  31   -0.18    3.83
   9   4 -31    1.07    8.30
   9   4 -31    0.38    1.56
  -9  -4  31   -4.42    3.73
   9   3 -31   -2.67    1.70
   9   3 -31   -0.34    7.99
  -9  -3  31    1.22    3.63
  -9  -3  31    0.11    2.14
   9   2 -31   -0.82    1.56
   9   2 -31   -1.97    7.73
  -9  -2  31    0.17    3.70
  -9  -2  31    0.11    1.95
   9   1 -31    0.16    7.38
   9   1 -31   -0.11    1.56
  -9  -1  31   -0.17    3.50
  -9  -1  31   -2.21    1.85
   9   0 -31    3.08    1.51
  -9   0  31   -7.98    2.03
  -9   0  31    1.35    3.52
  10   3 -31   -2.58    8.46
 -10  -3  31   -0.18    3.90
  10   2 -31   -2.81    8.02
  10   2 -31    2.65    1.57
 -10  -2  31   -0.69    2.16
 -10  -2  31    0.18    3.70
  10   1 -31    8.41    7.92
  10   1 -31    1.33    1.83
 -10  -1  31    4.39    4.00
 -10  -1  31    4.05    2.24
 -10   0  31   -0.10    1.98
 -11  -2  31    0.18    3.84
  11   1 -31    0.16    8.03
  11   1 -31    1.68    1.74
 -11  -1  31    0.12    2.20
 -11  -1  31    6.42    3.89
  -4  -2  32    9.85    3.88
  -4  -1  32   -9.06    2.43
  -4   1  32   -0.43    2.34
   4   4 -32    4.24    6.64
  -4  -4  32    0.37    2.46
   5   4 -32   -8.16    7.26
  -5  -4  32    0.23    2.24
  -5  -4  32    0.17    3.36
   5   3 -32   -4.27    7.02
  -5  -3  32   -1.45    2.13
  -5  -3  32    4.99    3.49
  -5  -2  32   -5.43    3.60
  -5  -2  32   -2.18    2.22
  -5  -1  32   -1.06    2.21
   5   0 -32   -6.41    6.62
  -5   0  32   -2.27    2.13
   4   5 -32   -0.73    6.88
  -4  -5  32    2.14    2.47
   5   5 -32    4.97    7.56
  -5  -5  32   -0.83    2.36
  -5  -5  32   -4.10    3.53
   6   5 -32    1.80    1.63
   6   5 -32   10.86    8.35
  -6  -5  32   -5.42    3.67
  -6  -5  32    0.35    2.43
   6   4 -32    0.93    1.74
   6   4 -32    5.76    7.91
  -6  -4  32   -1.42    3.67
  -6  -4  32    6.07    2.41
   6   3 -32    0.45    1.70
   6   3 -32   -7.45    7.76
  -6  -3  32   -7.85    3.53
  -6  -3  32    2.30    2.16
   6   2 -32   16.14    7.34
   6   2 -32    0.98    1.53
  -6  -2  32   -0.17    3.31
  -6  -2  32    0.53    2.12
   6   1 -32    1.05    1.37
   6   1 -32    2.40    6.89
  -6  -1  32    0.10    2.05
  -6  -1  32  -10.49    3.37
   6   0 -32   -1.53    6.45
   6   0 -32   -3.55    1.43
  -6   0  32   -2.63    2.03
  -6   0  32   -0.17    3.32
   4   6 -32   -1.89    7.40
  -4  -6  32   -0.39    2.50
   5   6 -32  -12.06    8.20
  -5  -6  32   -0.18    3.55
  -5  -6  32   -0.85    2.38
   6   6 -32    6.04    8.48
   6   6 -32    0.13    1.57
  -6  -6  32   -2.59    3.71
   7   5 -32   -4.80    8.33
  -7  -5  32   -0.18    3.65
   7   4 -32    4.98    8.07
   7   4 -32   -0.59    1.76
  -7  -4  32   -4.19    2.35
  -7  -4  32   -6.29    3.55
   7   3 -32    2.29    1.74
   7   3 -32   -2.84    7.93
  -7  -3  32   -0.22    2.09
  -7  -3  32   -6.01    3.70
   7   2 -32    0.22    1.59
   7   2 -32   11.39    7.83
  -7  -2  32   -0.85    2.03
  -7  -2  32    0.17    3.46
   7   1 -32   -2.44    7.31
   7   1 -32    0.96    1.48
  -7  -1  32    0.69    3.49
  -7  -1  32   -2.17    1.91
   7   0 -32   -7.03    7.11
   7   0 -32    1.06    1.41
  -7   0  32   -0.17    3.42
  -7   0  32   -0.20    1.94
   4   7 -32    0.79    7.60
  -4  -7  32    0.53    2.20
  -5  -7  32    1.50    3.78
   8   4 -32   -0.19    8.74
   8   4 -32    1.13    1.67
  -8  -4  32   -3.68    3.77
   8   3 -32   -1.45    1.64
   8   3 -32   -0.18    8.18
  -8  -3  32    0.18    3.67
  -8  -3  32   -0.11    2.16
   8   2 -32  -13.60    8.14
   8   2 -32   -0.12    1.61
  -8  -2  32    1.09    2.18
  -8  -2  32   -2.68    3.67
   8   1 -32  -10.85    7.76
   8   1 -32   -3.58    1.66
  -8  -1  32    0.94    1.95
  -8  -1  32   -4.76    3.73
  -8   0  32   -0.70    1.90
  -8   0  32    6.95    3.68
   9   3 -32   -0.74    8.78
  -9  -3  32   -3.70    3.93
   9   2 -32   -2.30    8.50
   9   2 -32    0.12    1.70
  -9  -2  32   -0.73    3.79
  -9  -2  32    0.22    2.20
   9   1 -32   -3.86    1.71
   9   1 -32    6.60    7.87
  -9  -1  32   -0.21    2.00
  -9  -1  32    1.45    3.78
 -10  -2  32   -3.95    4.01
  10   1 -32    8.21    8.09
  10   1 -32    0.13    1.77
 -10  -1  32   -4.62    2.26
 -10  -1  32    1.12    3.98
  -4  -2  33    0.61    2.39
  -4  -1  33    1.43    2.32
  -4   0  33    1.40    2.34
   5   4 -33   11.39    7.59
  -5  -4  33    0.85    2.46
  -5  -4  33    0.19    3.62
   5   3 -33    1.08    7.26
  -5  -3  33   -0.59    2.38
   5   2 -33    5.72    6.90
  -5  -2  33    0.92    2.25
   5   1 -33   16.18    7.70
  -5   0  33   -2.07    2.17
   5   5 -33  -11.06    7.79
  -5  -5  33    0.12    2.25
  -5  -5  33    0.19    3.75
   6   4 -33    1.10    1.81
   6   4 -33    0.19    8.09
  -6  -4  33    5.10    2.51
  -6  -4  33   -2.26    3.66
   6   3 -33    0.12    1.63
   6   3 -33   -1.46    7.70
  -6  -3  33    0.18    3.57
  -6  -3  33   -1.04    2.29
   6   2 -33    0.34    1.69
   6   2 -33    2.28    7.34
  -6  -2  33   -1.01    2.20
  -6  -2  33    2.91    3.66
   6   1 -33    3.03    7.01
   6   1 -33   -1.88    1.60
  -6  -1  33    3.94    3.61
  -6  -1  33   -0.22    2.11
   6   0 -33   10.94    6.85
   6   0 -33   -0.11    1.54
  -6   0  33   -0.32    2.12
  -6   0  33    1.58    3.50
  -7  -4  33   -0.96    3.81
   7   3 -33    0.72    1.62
   7   3 -33   -3.37    8.38
  -7  -3  33   -0.19    3.81
  -7  -3  33    2.55    2.23
   7   2 -33    0.58    1.77
   7   2 -33    8.62    7.73
  -7  -2  33    5.77    3.92
  -7  -2  33    0.11    2.27
   7   1 -33  -13.04    7.64
   7   1 -33   -2.70    1.56
  -7  -1  33    3.85    3.73
  -7  -1  33   -1.09    2.11
  -7   0  33   -4.20    2.09
   8   3 -33   -0.58    8.88
  -8  -3  33   -5.96    4.02
   8   2 -33    0.18    8.54
   8   2 -33    0.37    1.64
  -8  -2  33    0.19    3.92
  -8  -2  33    0.23    2.17
   8   1 -33    3.29    1.75
   8   1 -33    3.53    8.11
  -8  -1  33    0.33    2.10
  -8  -1  33  -10.12    3.92
   9   1 -33  -10.68    8.34
   9   1 -33   -1.14    1.74
  -9  -1  33    0.39    4.09
   5   4 -34   -0.59    7.52
   5   3 -34    1.14    7.36
  -5  -3  34    0.12    2.45
  -5  -2  34    0.36    2.38
  -5  -1  34    0.71    2.32
  -5   0  34    1.15    2.28
   6   3 -34   -3.47    8.20
  -6  -3  34    1.96    3.99
   6   2 -34    2.52    1.70
   6   2 -34  -13.84    7.91
  -6  -2  34   -9.45    3.80
  -6  -2  34    1.19    2.31
   6   1 -34   -1.63    1.70
   6   1 -34   -3.71    7.24
  -6  -1  34    0.12    2.28
  -6  -1  34    0.19    3.61
  -6   0  34   -0.56    2.16
   7   2 -34   -2.64    8.16
   7   2 -34    0.49    1.69
  -7  -2  34    0.20    3.98
   7   1 -34   -0.83    1.73
   7   1 -34   -0.90    7.69
  -7  -1  34   -0.19    3.83
  -7  -1  34    0.12    2.15
   8   1 -34   -2.97    8.29
   8   1 -34    0.49    1.72
  -8  -1  34  -13.37    4.15
  -5  -1  35    1.99    2.53
   6   1 -35   -0.12    1.67
   6   1 -35   -0.19    7.36
   0   0   0    0.00    0.00
;
_shelx_hkl_checksum              69936
_shelx_fab_checksum              25158
_shelx_fab_file
;
    0    2    0   -125.62      0.00
    1    2    0    312.83      0.00
    1    3    0     21.31      0.00
    2    3    0    138.27      0.00
    0    4    0      6.37      0.00
    1    4    0     71.69      0.00
    2    4    0     46.53      0.00
    1    5    0    -46.97      0.00
    2    5    0     37.32      0.00
    3    5    0     -3.21      0.00
    0    6    0     29.87      0.00
    1    6    0    -66.25      0.00
    2    6    0     73.83      0.00
    3    6    0     -7.95      0.00
    4    6    0    -25.92      0.00
    1    7    0     -3.61      0.00
    2    7    0    -19.99      0.00
    3    7    0     55.84      0.00
    4    7    0     16.72      0.00
    0    8    0      1.66      0.00
    1    8    0    -21.50      0.00
    2    8    0     -7.26      0.00
    3    8    0    -12.46      0.00
    4    8    0     -0.12      0.00
    5    8    0     -1.83      0.00
    1    9    0     25.98      0.00
    2    9    0     12.13      0.00
    3    9    0     15.37      0.00
    4    9    0     10.43      0.00
    5    9    0      9.01      0.00
    0   10    0     34.60      0.00
    1   10    0     -7.55      0.00
    2   10    0      0.26      0.00
    3   10    0     -8.03      0.00
    4   10    0    -14.08      0.00
    5   10    0     10.82      0.00
    1   11    0    -14.45      0.00
    2   11    0    -10.15      0.00
    3   11    0     -0.67      0.00
    4   11    0    -18.38      0.00
    5   11    0     -9.44      0.00
    6   11    0    -26.45      0.00
    0   12    0    -56.33      0.00
    1   12    0     26.74      0.00
    2   12    0     -8.38      0.00
    3   12    0     12.37      0.00
    4   12    0      7.59      0.00
    5   12    0      1.64      0.00
    6   12    0    -25.67      0.00
    1   13    0    -19.28      0.00
    2   13    0     16.35      0.00
    4   13    0      0.83      0.00
    5   13    0    -46.55      0.00
    0   14    0     27.74      0.00
    1   14    0      1.16      0.00
    2   14    0     15.47      0.00
    3   14    0      1.64      0.00
    4   14    0    -53.51      0.00
    5   14    0     23.58      0.00
    6   14    0    -26.89      0.00
    1   15    0     -3.70      0.00
    2   15    0    -48.19      0.00
    3   15    0    -21.98      0.00
    4   15    0      0.49      0.00
    5   15    0     -2.56      0.00
    6   15    0    -17.77      0.00
    0   16    0    -49.15      0.00
    1   16    0    -51.46      0.00
    2   16    0    -15.47      0.00
    3   16    0     16.62      0.00
    4   16    0      3.42      0.00
    5   16    0     14.22      0.00
    6   16    0     40.66      0.00
    7   16    0     25.92      0.00
    1   17    0     59.41      0.00
    2   17    0     -0.79      0.00
    3   17    0      4.34      0.00
    4   17    0      2.40      0.00
    5   17    0      5.65      0.00
    6   17    0     20.48      0.00
    7   17    0    -24.49      0.00
    0   18    0   -266.01      0.00
    1   18    0   -112.83      0.00
    2   18    0    -97.47      0.00
    3   18    0      3.65      0.00
    4   18    0     18.17      0.00
    5   18    0     -9.52      0.00
    6   18    0     -7.64      0.00
    7   18    0     -0.07      0.00
    1   19    0    211.88      0.00
    2   19    0    -20.53      0.00
    3   19    0    -24.64      0.00
    4   19    0     -6.37      0.00
    5   19    0      9.15      0.00
    6   19    0     20.58      0.00
    7   19    0     10.95      0.00
    0   20    0   -265.86      0.00
    1   20    0    -15.46      0.00
    2   20    0    -66.68      0.00
    3   20    0     23.57      0.00
    4   20    0     -1.47      0.00
    5   20    0    -10.89      0.00
    6   20    0     -3.35      0.00
    1    2    1     75.14      0.00
    0    3    1    -64.64      0.00
    1    3    1    152.58      0.00
    2    3    1     25.05      0.00
    1    4    1      6.55      0.00
    2    4    1     39.79      0.00
    3    4    1     32.52      0.00
    0    5    1      7.64      0.00
    1    5    1     -2.16      0.00
    2    5    1     35.28      0.00
    3    5    1    -19.12      0.00
    1    6    1     17.78      0.00
    2    6    1    -47.46      0.00
    3    6    1     15.77      0.00
    4    6    1     26.98      0.00
    0    7    1    -42.48      0.00
    1    7    1    -14.69      0.00
    2    7    1      6.07      0.00
    3    7    1     14.63      0.00
    4    7    1      0.36      0.00
    1    8    1     -7.42      0.00
    2    8    1     -8.96      0.00
    3    8    1     -3.78      0.00
    4    8    1      5.91      0.00
    5    8    1     21.02      0.00
    0    9    1    -20.00      0.00
    1    9    1     11.48      0.00
    2    9    1      0.78      0.00
    3    9    1      6.17      0.00
    4    9    1      8.30      0.00
    5    9    1     -3.67      0.00
    1   10    1      8.02      0.00
    2   10    1     -3.12      0.00
    3   10    1      0.12      0.00
    4   10    1      5.84      0.00
    5   10    1     -5.20      0.00
    6   10    1    -29.51      0.00
    0   11    1      4.65      0.00
    1   11    1     -0.23      0.00
    2   11    1    -14.71      0.00
    3   11    1      0.08      0.00
    4   11    1      0.26      0.00
    5   11    1     -1.42      0.00
    6   11    1     12.01      0.00
    2   12    1     -8.27      0.00
    3   12    1      1.87      0.00
    4   12    1     -7.02      0.00
    5   12    1      4.83      0.00
    6   12    1     36.43      0.00
    0   13    1      0.66      0.00
    1   13    1      4.20      0.00
    2   13    1      1.69      0.00
    3   13    1      2.61      0.00
    5   13    1     -0.06      0.00
    1   14    1     17.77      0.00
    2   14    1     29.69      0.00
    3   14    1     -0.17      0.00
    4   14    1     12.67      0.00
    5   14    1      1.25      0.00
    6   14    1     -2.62      0.00
    7   14    1     13.21      0.00
    0   15    1     -6.21      0.00
    1   15    1    -43.11      0.00
    2   15    1     -2.39      0.00
    3   15    1     -4.39      0.00
    4   15    1      5.99      0.00
    5   15    1      5.18      0.00
    6   15    1    -18.98      0.00
    7   15    1     25.32      0.00
    1   16    1      1.21      0.00
    2   16    1      6.58      0.00
    3   16    1      7.01      0.00
    4   16    1    -14.96      0.00
    5   16    1    -16.45      0.00
    6   16    1    -86.95      0.00
    7   16    1     30.95      0.00
    0   17    1     67.04      0.00
    1   17    1     50.71      0.00
    2   17    1    -12.68      0.00
    3   17    1      9.90      0.00
    4   17    1     11.45      0.00
    5   17    1     -8.01      0.00
    6   17    1    -19.53      0.00
    7   17    1     -0.10      0.00
    1   18    1   -163.73      0.00
    2   18    1     -6.20      0.00
    3   18    1      5.82      0.00
    4   18    1      2.94      0.00
    5   18    1     -6.46      0.00
    6   18    1     15.13      0.00
    7   18    1    -24.14      0.00
    0   19    1     88.14      0.00
    1   19    1    167.21      0.00
    2   19    1    -69.24      0.00
    3   19    1      0.78      0.00
    4   19    1      3.25      0.00
    5   19    1      2.44      0.00
    6   19    1     -3.31      0.00
    7   19    1      1.22      0.00
    1   20    1   -103.91      0.00
    2   20    1    -51.88      0.00
    3   20    1     -2.31      0.00
    4   20    1     -1.21      0.00
    5   20    1     -4.62      0.00
    6   20    1    -36.30      0.00
    1    1    2   -618.56      0.00
    0    2    2     46.35      0.00
    1    2    2   -112.86      0.00
    2    2    2     65.17      0.00
    1    3    2      9.51      0.00
    2    3    2    -44.27      0.00
    3    3    2    -90.38      0.00
    0    4    2     12.03      0.00
    1    4    2     54.09      0.00
    2    4    2    -34.31      0.00
    3    4    2    -27.62      0.00
    1    5    2      0.79      0.00
    2    5    2    -33.63      0.00
    3    5    2      3.15      0.00
    0    6    2    -32.34      0.00
    1    6    2    -10.26      0.00
    2    6    2     21.64      0.00
    3    6    2     -7.40      0.00
    4    6    2      1.02      0.00
    1    7    2    -32.70      0.00
    2    7    2      4.52      0.00
    3    7    2      4.92      0.00
    4    7    2      3.61      0.00
    5    7    2    -24.88      0.00
    0    8    2      2.31      0.00
    1    8    2     -7.46      0.00
    2    8    2    -25.41      0.00
    3    8    2     10.53      0.00
    4    8    2     -2.11      0.00
    5    8    2     -6.57      0.00
    1    9    2      8.33      0.00
    2    9    2      3.34      0.00
    3    9    2     -7.00      0.00
    4    9    2      2.46      0.00
    5    9    2     -8.58      0.00
    6    9    2      2.51      0.00
    0   10    2      8.81      0.00
    1   10    2      3.45      0.00
    2   10    2     -5.56      0.00
    3   10    2     -0.75      0.00
    4   10    2     12.53      0.00
    5   10    2      6.61      0.00
    6   10    2     -4.17      0.00
    1   11    2      1.34      0.00
    2   11    2      3.89      0.00
    3   11    2     -7.69      0.00
    4   11    2      5.86      0.00
    5   11    2     -4.47      0.00
    6   11    2    -24.24      0.00
    1   12    2      6.23      0.00
    2   12    2    -11.19      0.00
    3   12    2     -6.91      0.00
    4   12    2     -5.61      0.00
    5   12    2     -1.41      0.00
    6   12    2    -18.90      0.00
    7   12    2     18.80      0.00
    1   13    2      0.93      0.00
    2   13    2    -18.37      0.00
    3   13    2     -9.71      0.00
    4   13    2    -29.53      0.00
    5   13    2    -15.34      0.00
    6   13    2     -3.20      0.00
    0   14    2    -14.41      0.00
    1   14    2      1.02      0.00
    2   14    2     12.67      0.00
    3   14    2     -5.83      0.00
    4   14    2    -16.97      0.00
    5   14    2     25.72      0.00
    6   14    2      1.73      0.00
    7   14    2     13.52      0.00
    1   15    2    -17.31      0.00
    2   15    2     -5.09      0.00
    3   15    2     -2.21      0.00
    4   15    2      1.48      0.00
    5   15    2    -19.05      0.00
    6   15    2     -5.30      0.00
    7   15    2     30.77      0.00
    0   16    2     24.37      0.00
    1   16    2    -11.41      0.00
    2   16    2     13.38      0.00
    3   16    2      1.86      0.00
    4   16    2     11.68      0.00
    5   16    2     17.71      0.00
    6   16    2     -4.16      0.00
    7   16    2     16.18      0.00
    1   17    2     29.66      0.00
    2   17    2    -14.51      0.00
    3   17    2     19.23      0.00
    4   17    2     21.01      0.00
    5   17    2      3.61      0.00
    6   17    2    -10.63      0.00
    7   17    2     10.54      0.00
    0   18    2     -1.45      0.00
    1   18    2     15.61      0.00
    2   18    2      7.31      0.00
    3   18    2     44.91      0.00
    4   18    2      8.05      0.00
    5   18    2    -29.61      0.00
    6   18    2     56.70      0.00
    7   18    2    -26.33      0.00
    1   19    2    501.28      0.00
    2   19    2    -13.28      0.00
    3   19    2    -12.10      0.00
    4   19    2      5.39      0.00
    5   19    2     -9.39      0.00
    6   19    2    -15.70      0.00
    7   19    2      5.68      0.00
    0   20    2    -32.86      0.00
    1   20    2    -51.58      0.00
    2   20    2    -10.22      0.00
    3   20    2    -49.54      0.00
    4   20    2      3.84      0.00
    5   20    2     -7.64      0.00
    6   20    2    -21.89      0.00
    7   20    2     21.39      0.00
    0    1    3    125.20      0.00
    1    2    3   -100.65      0.00
    0    3    3    124.84      0.00
    1    3    3   -104.05      0.00
    2    3    3    -12.76      0.00
    1    4    3    -36.38      0.00
    2    4    3    -41.76      0.00
    3    4    3    -27.98      0.00
    0    5    3    -13.97      0.00
    1    5    3     13.06      0.00
    2    5    3    -67.11      0.00
    3    5    3    -17.72      0.00
    4    5    3     14.51      0.00
    1    6    3     16.45      0.00
    2    6    3      8.76      0.00
    3    6    3     -5.36      0.00
    4    6    3      0.30      0.00
    5    6    3     -2.14      0.00
    0    7    3     16.99      0.00
    1    7    3     13.97      0.00
    2    7    3     -4.67      0.00
    3    7    3     -2.95      0.00
    4    7    3     -9.06      0.00
    5    7    3    -18.15      0.00
    1    8    3    -13.20      0.00
    2    8    3      1.57      0.00
    3    8    3    -17.74      0.00
    4    8    3      7.78      0.00
    5    8    3    -16.53      0.00
    6    8    3     -5.88      0.00
    0    9    3      8.15      0.00
    1    9    3     -6.14      0.00
    2    9    3     -4.76      0.00
    3    9    3     -9.44      0.00
    4    9    3     -4.38      0.00
    5    9    3     14.22      0.00
    6    9    3      5.46      0.00
    1   10    3      2.92      0.00
    2   10    3      4.57      0.00
    3   10    3      4.36      0.00
    4   10    3      2.14      0.00
    5   10    3      8.80      0.00
    6   10    3     -8.63      0.00
    0   11    3    -19.17      0.00
    1   11    3      3.28      0.00
    2   11    3     -4.56      0.00
    3   11    3      0.15      0.00
    4   11    3    -19.65      0.00
    5   11    3      3.21      0.00
    6   11    3      3.93      0.00
    7   11    3     13.73      0.00
    1   12    3     10.94      0.00
    2   12    3      2.61      0.00
    3   12    3      0.05      0.00
    4   12    3      4.53      0.00
    5   12    3     -0.73      0.00
    6   12    3     -5.90      0.00
    7   12    3    -31.56      0.00
    0   13    3      1.78      0.00
    1   13    3     -0.20      0.00
    2   13    3     -5.29      0.00
    3   13    3     -3.36      0.00
    4   13    3      1.46      0.00
    5   13    3     -7.78      0.00
    6   13    3    -18.27      0.00
    1   14    3    -26.09      0.00
    2   14    3     24.67      0.00
    3   14    3     14.50      0.00
    4   14    3    -12.90      0.00
    5   14    3    -11.37      0.00
    6   14    3     32.45      0.00
    7   14    3      1.11      0.00
    0   15    3     -8.36      0.00
    1   15    3    -14.63      0.00
    2   15    3    -19.50      0.00
    3   15    3     -2.64      0.00
    4   15    3      4.92      0.00
    5   15    3     13.38      0.00
    6   15    3      8.39      0.00
    7   15    3     30.26      0.00
    1   16    3     25.68      0.00
    2   16    3      1.68      0.00
    3   16    3     -8.10      0.00
    4   16    3    -20.28      0.00
    5   16    3      6.56      0.00
    6   16    3      6.02      0.00
    7   16    3      8.18      0.00
    0   17    3     38.20      0.00
    1   17    3     -6.52      0.00
    2   17    3     12.14      0.00
    3   17    3     -1.03      0.00
    4   17    3      9.10      0.00
    5   17    3     10.86      0.00
    6   17    3      6.33      0.00
    7   17    3     -6.35      0.00
    1   18    3   -103.37      0.00
    2   18    3    -22.73      0.00
    3   18    3     22.56      0.00
    4   18    3      6.64      0.00
    5   18    3    -14.85      0.00
    6   18    3    136.35      0.00
    7   18    3     40.20      0.00
    2   19    3    -39.92      0.00
    3   19    3      0.32      0.00
    4   19    3    -11.50      0.00
    5   19    3      4.09      0.00
    6   19    3    -22.61      0.00
    7   19    3     23.19      0.00
    1   20    3    -59.89      0.00
    2   20    3     -3.76      0.00
    3   20    3     22.05      0.00
    4   20    3      6.20      0.00
    5   20    3      3.12      0.00
    6   20    3    -31.64      0.00
    7   20    3      9.16      0.00
    0    0    4     60.08      0.00
    1    1    4     10.57      0.00
    0    2    4     82.99      0.00
    1    2    4    -12.17      0.00
    2    2    4     -5.92      0.00
    1    3    4     65.44      0.00
    2    3    4     16.74      0.00
    3    3    4    -39.89      0.00
    0    4    4    -78.92      0.00
    1    4    4    -26.52      0.00
    2    4    4     13.08      0.00
    3    4    4     30.20      0.00
    4    4    4     -5.68      0.00
    1    5    4    -56.32      0.00
    2    5    4    -36.57      0.00
    3    5    4     17.59      0.00
    4    5    4     -9.17      0.00
    5    5    4     20.29      0.00
    0    6    4     35.35      0.00
    1    6    4     29.90      0.00
    2    6    4    -21.73      0.00
    3    6    4     15.10      0.00
    4    6    4      2.34      0.00
    5    6    4      0.22      0.00
    1    7    4      9.31      0.00
    2    7    4     12.46      0.00
    3    7    4      0.02      0.00
    4    7    4      3.54      0.00
    5    7    4    -13.91      0.00
    6    7    4    -11.04      0.00
    0    8    4      7.94      0.00
    1    8    4     22.69      0.00
    2    8    4      7.87      0.00
    3    8    4      8.85      0.00
    4    8    4     -2.21      0.00
    5    8    4     -4.17      0.00
    6    8    4    -12.96      0.00
    1    9    4     13.86      0.00
    2    9    4    -18.50      0.00
    3    9    4     11.00      0.00
    4    9    4      4.08      0.00
    5    9    4     -1.39      0.00
    6    9    4      2.14      0.00
    0   10    4     -2.49      0.00
    1   10    4     -1.39      0.00
    2   10    4      1.29      0.00
    3   10    4     -8.04      0.00
    4   10    4     -2.58      0.00
    5   10    4      7.34      0.00
    6   10    4     -6.50      0.00
    7   10    4      9.94      0.00
    1   11    4     -4.67      0.00
    2   11    4      5.08      0.00
    3   11    4     -2.99      0.00
    4   11    4      7.34      0.00
    5   11    4      3.23      0.00
    6   11    4      2.46      0.00
    7   11    4     -0.46      0.00
    0   12    4     -7.44      0.00
    1   12    4     -4.83      0.00
    2   12    4      8.28      0.00
    3   12    4     11.91      0.00
    4   12    4     19.53      0.00
    5   12    4      5.85      0.00
    6   12    4     12.84      0.00
    7   12    4     13.39      0.00
    1   13    4     -5.51      0.00
    2   13    4     10.80      0.00
    3   13    4    -12.35      0.00
    4   13    4      8.48      0.00
    5   13    4     33.12      0.00
    6   13    4    -14.99      0.00
    0   14    4     34.99      0.00
    1   14    4     -8.05      0.00
    2   14    4      5.15      0.00
    3   14    4     10.32      0.00
    4   14    4     40.48      0.00
    5   14    4     -2.77      0.00
    6   14    4      3.21      0.00
    7   14    4    -20.43      0.00
    8   14    4    -46.17      0.00
    1   15    4     -8.98      0.00
    2   15    4     -0.50      0.00
    3   15    4    -10.99      0.00
    4   15    4      8.44      0.00
    5   15    4     -2.29      0.00
    6   15    4     -3.75      0.00
    7   15    4    -25.24      0.00
    0   16    4     24.56      0.00
    1   16    4     31.38      0.00
    2   16    4     13.99      0.00
    3   16    4      9.91      0.00
    4   16    4      2.46      0.00
    5   16    4     11.60      0.00
    6   16    4     -4.34      0.00
    7   16    4     17.05      0.00
    1   17    4    -15.31      0.00
    2   17    4     -9.08      0.00
    3   17    4      7.86      0.00
    4   17    4    -18.69      0.00
    5   17    4     -7.93      0.00
    6   17    4    -13.20      0.00
    7   17    4    -30.01      0.00
    0   18    4    -83.59      0.00
    1   18    4     -5.91      0.00
    2   18    4    -43.16      0.00
    3   18    4    -27.60      0.00
    4   18    4      9.83      0.00
    5   18    4    -12.41      0.00
    6   18    4     -3.23      0.00
    1   19    4     49.57      0.00
    2   19    4    -19.40      0.00
    3   19    4     17.90      0.00
    4   19    4     -0.21      0.00
    5   19    4     -5.57      0.00
    6   19    4    -27.82      0.00
    0   20    4    -85.76      0.00
    1   20    4     25.86      0.00
    2   20    4    -39.32      0.00
    3   20    4     22.85      0.00
    4   20    4     -1.57      0.00
    5   20    4     -0.45      0.00
    6   20    4     -9.92      0.00
    0    1    5    -71.27      0.00
    1    2    5     82.91      0.00
    0    3    5     55.17      0.00
    1    3    5    -59.93      0.00
    2    3    5     65.24      0.00
    1    4    5     10.10      0.00
    2    4    5      7.14      0.00
    3    4    5    -47.10      0.00
    0    5    5     -8.97      0.00
    1    5    5      1.61      0.00
    2    5    5     35.60      0.00
    3    5    5      2.32      0.00
    4    5    5     11.12      0.00
    1    6    5     27.29      0.00
    2    6    5     13.78      0.00
    3    6    5      1.65      0.00
    4    6    5      9.34      0.00
    5    6    5     26.10      0.00
    0    7    5     25.70      0.00
    1    7    5     32.30      0.00
    2    7    5     -5.13      0.00
    3    7    5      9.47      0.00
    4    7    5     48.26      0.00
    5    7    5    -19.34      0.00
    6    7    5     -4.42      0.00
    1    8    5      9.18      0.00
    2    8    5     16.72      0.00
    3    8    5    -12.43      0.00
    4    8    5    -11.91      0.00
    5    8    5      0.90      0.00
    6    8    5      6.84      0.00
    7    8    5      8.87      0.00
    0    9    5     -0.01      0.00
    1    9    5      0.81      0.00
    2    9    5     15.38      0.00
    3    9    5    -19.99      0.00
    4    9    5     -4.76      0.00
    5    9    5     -2.21      0.00
    6    9    5     -6.68      0.00
    7    9    5      5.87      0.00
    1   10    5     -7.68      0.00
    2   10    5      1.84      0.00
    3   10    5     28.31      0.00
    4   10    5      3.21      0.00
    5   10    5     25.42      0.00
    6   10    5      1.02      0.00
    7   10    5     -0.27      0.00
    0   11    5    -15.71      0.00
    1   11    5     -6.81      0.00
    2   11    5     11.78      0.00
    3   11    5      5.51      0.00
    4   11    5    -15.05      0.00
    5   11    5     -3.20      0.00
    6   11    5      3.79      0.00
    7   11    5      2.13      0.00
    1   12    5      7.08      0.00
    2   12    5    -16.94      0.00
    3   12    5    -10.15      0.00
    4   12    5     -3.43      0.00
    5   12    5     -3.76      0.00
    6   12    5     -0.19      0.00
    7   12    5     21.15      0.00
    8   12    5    -93.77      0.00
    0   13    5      3.48      0.00
    1   13    5     -3.20      0.00
    2   13    5      9.59      0.00
    3   13    5     -6.23      0.00
    4   13    5    -14.90      0.00
    5   13    5    -17.50      0.00
    6   13    5      3.18      0.00
    7   13    5     -6.58      0.00
    1   14    5    -18.40      0.00
    2   14    5     -0.03      0.00
    3   14    5    -11.48      0.00
    4   14    5      6.17      0.00
    5   14    5      9.28      0.00
    6   14    5      6.99      0.00
    7   14    5     24.85      0.00
    0   15    5     -5.24      0.00
    1   15    5     11.32      0.00
    2   15    5    -21.70      0.00
    3   15    5      9.92      0.00
    4   15    5      3.28      0.00
    5   15    5    -22.54      0.00
    6   15    5     -1.63      0.00
    7   15    5     20.43      0.00
    1   16    5     36.68      0.00
    2   16    5     20.27      0.00
    3   16    5     14.07      0.00
    4   16    5     -3.36      0.00
    5   16    5    -20.14      0.00
    6   16    5      5.89      0.00
    7   16    5     -5.78      0.00
    0   17    5    -32.16      0.00
    1   17    5      1.15      0.00
    2   17    5     -9.51      0.00
    3   17    5     -4.76      0.00
    4   17    5    -19.29      0.00
    5   17    5    -52.99      0.00
    6   17    5    -10.79      0.00
    7   17    5    -37.80      0.00
    1   18    5     16.01      0.00
    2   18    5     -1.75      0.00
    3   18    5     10.73      0.00
    4   18    5    -11.22      0.00
    5   18    5      2.75      0.00
    6   18    5     -4.84      0.00
    0   19    5     15.44      0.00
    1   19    5    -12.27      0.00
    2   19    5     21.07      0.00
    3   19    5     11.33      0.00
    4   19    5      6.82      0.00
    5   19    5     -5.60      0.00
    6   19    5    -29.17      0.00
    1   20    5     19.64      0.00
    2   20    5     17.13      0.00
    3   20    5     -3.69      0.00
    4   20    5     36.06      0.00
    5   20    5     13.35      0.00
    0    0    6    -64.90      0.00
    1    1    6     31.62      0.00
    0    2    6    -56.40      0.00
    1    2    6    -37.93      0.00
    2    2    6    -13.70      0.00
    1    3    6     66.10      0.00
    2    3    6    -42.21      0.00
    3    3    6     48.18      0.00
    0    4    6     66.63      0.00
    1    4    6    -51.06      0.00
    2    4    6      1.37      0.00
    3    4    6     40.78      0.00
    4    4    6     37.58      0.00
    1    5    6    -18.51      0.00
    2    5    6    -12.29      0.00
    3    5    6     -9.11      0.00
    4    5    6      1.17      0.00
    5    5    6     81.14      0.00
    0    6    6     33.99      0.00
    1    6    6      3.21      0.00
    2    6    6     -2.51      0.00
    3    6    6     12.14      0.00
    4    6    6     -2.53      0.00
    5    6    6     -4.95      0.00
    6    6    6     11.64      0.00
    1    7    6      4.26      0.00
    2    7    6      6.70      0.00
    3    7    6     -1.85      0.00
    4    7    6    -11.77      0.00
    5    7    6    -19.91      0.00
    6    7    6      4.00      0.00
    7    7    6     -9.00      0.00
    0    8    6    -10.16      0.00
    1    8    6      9.16      0.00
    2    8    6    -11.56      0.00
    3    8    6     -5.85      0.00
    4    8    6    -11.11      0.00
    5    8    6     -0.44      0.00
    6    8    6    -14.11      0.00
    7    8    6      8.08      0.00
    1    9    6     -4.40      0.00
    2    9    6     -3.47      0.00
    3    9    6      6.31      0.00
    4    9    6    -13.90      0.00
    5    9    6     -5.31      0.00
    6    9    6     13.31      0.00
    7    9    6     10.80      0.00
    0   10    6     -2.40      0.00
    1   10    6     -0.63      0.00
    2   10    6     -3.82      0.00
    3   10    6     -5.01      0.00
    4   10    6     -4.54      0.00
    5   10    6     -2.28      0.00
    6   10    6     -2.81      0.00
    7   10    6    -10.19      0.00
    8   10    6      7.94      0.00
    1   11    6     -8.29      0.00
    2   11    6     -5.35      0.00
    3   11    6     14.92      0.00
    4   11    6     -8.79      0.00
    5   11    6    -11.92      0.00
    6   11    6     -2.57      0.00
    7   11    6     -5.46      0.00
    8   11    6      1.12      0.00
    0   12    6     -3.14      0.00
    1   12    6    -20.64      0.00
    2   12    6      0.63      0.00
    3   12    6      2.60      0.00
    4   12    6     -2.82      0.00
    5   12    6      0.97      0.00
    6   12    6      2.36      0.00
    7   12    6     -1.44      0.00
    8   12    6     -5.08      0.00
    1   13    6     23.98      0.00
    2   13    6     19.52      0.00
    3   13    6     -8.04      0.00
    4   13    6     28.31      0.00
    5   13    6    -18.73      0.00
    6   13    6    -33.57      0.00
    7   13    6     -2.16      0.00
    0   14    6    -17.79      0.00
    1   14    6      8.58      0.00
    2   14    6     -0.43      0.00
    3   14    6    -12.66      0.00
    4   14    6      5.16      0.00
    5   14    6    -24.45      0.00
    6   14    6     -6.26      0.00
    7   14    6      0.36      0.00
    1   15    6     -7.26      0.00
    2   15    6      7.65      0.00
    3   15    6    -10.25      0.00
    4   15    6    -34.82      0.00
    5   15    6      0.43      0.00
    6   15    6     31.36      0.00
    7   15    6     -7.53      0.00
    0   16    6     15.43      0.00
    1   16    6    -13.14      0.00
    2   16    6     -2.03      0.00
    3   16    6     17.49      0.00
    4   16    6    -12.77      0.00
    5   16    6    -17.14      0.00
    6   16    6      4.81      0.00
    7   16    6    -28.27      0.00
    1   17    6     -1.03      0.00
    2   17    6     -1.18      0.00
    3   17    6    -13.09      0.00
    4   17    6     -2.28      0.00
    5   17    6      7.88      0.00
    6   17    6     26.64      0.00
    7   17    6     21.55      0.00
    0   18    6      3.51      0.00
    1   18    6     -2.04      0.00
    2   18    6    -11.29      0.00
    3   18    6     -8.47      0.00
    4   18    6    -16.12      0.00
    5   18    6     97.90      0.00
    6   18    6      3.92      0.00
    7   18    6      6.44      0.00
    1   19    6    -15.32      0.00
    2   19    6     -1.26      0.00
    3   19    6    -11.11      0.00
    4   19    6    -10.83      0.00
    5   19    6     13.24      0.00
    6   19    6    -12.60      0.00
    0   20    6      0.76      0.00
    1   20    6     12.02      0.00
    2   20    6     -2.63      0.00
    3   20    6     24.10      0.00
    4   20    6    -22.20      0.00
    0    1    7    -26.49      0.00
    1    2    7    -23.67      0.00
    0    3    7     33.47      0.00
    1    3    7    -45.75      0.00
    2    3    7    -74.68      0.00
    1    4    7     12.54      0.00
    2    4    7     15.68      0.00
    3    4    7    -11.92      0.00
    0    5    7    -98.91      0.00
    1    5    7     12.37      0.00
    2    5    7     19.30      0.00
    3    5    7      3.07      0.00
    4    5    7     -0.29      0.00
    1    6    7     13.12      0.00
    2    6    7     -1.55      0.00
    3    6    7    -11.13      0.00
    4    6    7     -0.32      0.00
    5    6    7     -9.98      0.00
    0    7    7     10.96      0.00
    1    7    7      7.61      0.00
    2    7    7    -15.41      0.00
    3    7    7      0.30      0.00
    4    7    7     -9.66      0.00
    5    7    7      4.00      0.00
    6    7    7     -7.04      0.00
    1    8    7     -8.20      0.00
    2    8    7     -8.36      0.00
    3    8    7    -14.38      0.00
    4    8    7     -1.45      0.00
    5    8    7     -0.51      0.00
    6    8    7      9.43      0.00
    7    8    7     -0.33      0.00
    0    9    7     -1.26      0.00
    1    9    7     -2.44      0.00
    2    9    7      3.08      0.00
    3    9    7     -9.98      0.00
    4    9    7      3.16      0.00
    5    9    7    -12.07      0.00
    6    9    7     -2.76      0.00
    7    9    7     -4.07      0.00
    8    9    7     -7.41      0.00
    1   10    7    -11.92      0.00
    2   10    7      3.24      0.00
    3   10    7      0.53      0.00
    4   10    7     -5.66      0.00
    5   10    7      7.91      0.00
    6   10    7      1.09      0.00
    7   10    7      4.38      0.00
    8   10    7     -6.47      0.00
    0   11    7     10.85      0.00
    1   11    7     -5.69      0.00
    2   11    7     -1.60      0.00
    3   11    7      3.58      0.00
    4   11    7      2.39      0.00
    5   11    7     10.25      0.00
    6   11    7    -20.35      0.00
    7   11    7      2.89      0.00
    8   11    7      0.83      0.00
    1   12    7    -13.16      0.00
    2   12    7      2.23      0.00
    3   12    7      7.55      0.00
    4   12    7     12.36      0.00
    5   12    7      7.08      0.00
    6   12    7     14.17      0.00
    7   12    7      3.24      0.00
    8   12    7    -11.12      0.00
    0   13    7      4.19      0.00
    1   13    7     -7.35      0.00
    2   13    7     12.90      0.00
    3   13    7     -9.66      0.00
    4   13    7     -8.94      0.00
    5   13    7     -4.40      0.00
    6   13    7     12.13      0.00
    7   13    7     14.13      0.00
    1   14    7     28.68      0.00
    2   14    7    -39.10      0.00
    3   14    7      9.69      0.00
    4   14    7     10.83      0.00
    5   14    7    -10.96      0.00
    6   14    7     -5.94      0.00
    7   14    7    -13.18      0.00
    0   15    7      3.62      0.00
    1   15    7     -8.50      0.00
    2   15    7    -20.43      0.00
    3   15    7      9.79      0.00
    4   15    7     -4.82      0.00
    5   15    7     -5.10      0.00
    6   15    7    -10.76      0.00
    7   15    7     -6.75      0.00
    1   16    7      4.17      0.00
    2   16    7      6.63      0.00
    3   16    7      1.81      0.00
    4   16    7     62.91      0.00
    5   16    7      2.84      0.00
    6   16    7    -11.97      0.00
    7   16    7     -2.27      0.00
    0   17    7     19.30      0.00
    1   17    7    -15.18      0.00
    2   17    7      5.51      0.00
    3   17    7     13.98      0.00
    4   17    7     12.63      0.00
    5   17    7    -22.27      0.00
    6   17    7      7.18      0.00
    7   17    7      5.87      0.00
    1   18    7      4.24      0.00
    2   18    7     -3.25      0.00
    3   18    7     30.65      0.00
    4   18    7    -27.30      0.00
    6   18    7    -20.86      0.00
    7   18    7    -31.92      0.00
    0   19    7    -18.20      0.00
    1   19    7     -0.19      0.00
    2   19    7     10.94      0.00
    3   19    7     -8.28      0.00
    4   19    7     -0.72      0.00
    5   19    7     -2.94      0.00
    6   19    7      4.27      0.00
    1   20    7    -12.70      0.00
    2   20    7      8.95      0.00
    3   20    7     20.45      0.00
    0    0    8    -68.45      0.00
    1    1    8    -15.48      0.00
    0    2    8     50.66      0.00
    1    2    8     64.66      0.00
    2    2    8     11.18      0.00
    1    3    8    -36.69      0.00
    2    3    8    -39.84      0.00
    3    3    8    -71.58      0.00
    0    4    8   -126.69      0.00
    1    4    8      8.60      0.00
    2    4    8    -17.52      0.00
    3    4    8      8.01      0.00
    4    4    8    -14.30      0.00
    1    5    8    -26.12      0.00
    2    5    8     22.85      0.00
    3    5    8      9.00      0.00
    4    5    8     10.88      0.00
    5    5    8     -4.25      0.00
    0    6    8      0.79      0.00
    1    6    8      5.85      0.00
    2    6    8     17.53      0.00
    3    6    8     -8.90      0.00
    4    6    8    -12.27      0.00
    5    6    8    -13.37      0.00
    6    6    8    -19.65      0.00
    1    7    8      1.84      0.00
    2    7    8     -4.28      0.00
    3    7    8     -2.99      0.00
    4    7    8     -0.74      0.00
    5    7    8      0.36      0.00
    6    7    8      2.03      0.00
    7    7    8      2.65      0.00
    0    8    8      0.58      0.00
    1    8    8    -12.99      0.00
    2    8    8      3.04      0.00
    3    8    8     -2.14      0.00
    4    8    8      4.52      0.00
    5    8    8      6.96      0.00
    6    8    8     -8.06      0.00
    7    8    8     21.79      0.00
    8    8    8     -0.79      0.00
    1    9    8      1.93      0.00
    2    9    8      0.64      0.00
    3    9    8      2.14      0.00
    4    9    8     -2.14      0.00
    5    9    8     17.24      0.00
    6    9    8     -2.35      0.00
    7    9    8     -3.07      0.00
    8    9    8     10.73      0.00
    0   10    8     -9.35      0.00
    1   10    8      6.19      0.00
    2   10    8     -7.00      0.00
    3   10    8      5.80      0.00
    4   10    8     -0.07      0.00
    5   10    8      5.86      0.00
    6   10    8     -2.69      0.00
    7   10    8     13.01      0.00
    8   10    8      3.20      0.00
    1   11    8     -2.14      0.00
    2   11    8     -5.86      0.00
    3   11    8      5.23      0.00
    4   11    8     -1.45      0.00
    5   11    8     -6.02      0.00
    6   11    8      2.05      0.00
    7   11    8      8.50      0.00
    8   11    8    -20.59      0.00
    0   12    8      2.85      0.00
    1   12    8      8.57      0.00
    2   12    8    -11.67      0.00
    3   12    8    -19.72      0.00
    4   12    8     -6.50      0.00
    5   12    8     -2.07      0.00
    6   12    8     -5.38      0.00
    7   12    8      6.80      0.00
    8   12    8     24.14      0.00
    1   13    8     -7.35      0.00
    2   13    8     15.04      0.00
    3   13    8      1.65      0.00
    4   13    8      6.12      0.00
    5   13    8    -16.67      0.00
    6   13    8    -11.24      0.00
    7   13    8      9.52      0.00
    8   13    8    -11.67      0.00
    1   14    8     38.19      0.00
    2   14    8     26.95      0.00
    3   14    8    -17.60      0.00
    4   14    8      9.54      0.00
    5   14    8     -2.61      0.00
    6   14    8     21.30      0.00
    7   14    8      0.31      0.00
    8   14    8     33.91      0.00
    1   15    8      9.67      0.00
    2   15    8    -47.69      0.00
    3   15    8    -12.18      0.00
    4   15    8     -1.95      0.00
    5   15    8     23.43      0.00
    6   15    8      4.27      0.00
    7   15    8     -6.61      0.00
    8   15    8     13.16      0.00
    0   16    8     11.36      0.00
    1   16    8      5.77      0.00
    2   16    8      7.34      0.00
    3   16    8     -9.54      0.00
    4   16    8     11.47      0.00
    5   16    8     -9.41      0.00
    6   16    8     -6.65      0.00
    7   16    8    -18.16      0.00
    8   16    8     13.76      0.00
    1   17    8    -17.57      0.00
    2   17    8      5.36      0.00
    3   17    8      1.87      0.00
    4   17    8      1.13      0.00
    5   17    8     -3.38      0.00
    6   17    8    -30.41      0.00
    7   17    8    -29.98      0.00
    0   18    8     18.55      0.00
    1   18    8    -11.47      0.00
    2   18    8     27.86      0.00
    3   18    8    -17.27      0.00
    4   18    8    -87.92      0.00
    5   18    8      1.77      0.00
    6   18    8     18.05      0.00
    7   18    8     25.96      0.00
    1   19    8     -8.03      0.00
    2   19    8     -7.12      0.00
    3   19    8      8.95      0.00
    4   19    8     -9.09      0.00
    5   19    8     20.54      0.00
    6   19    8     13.77      0.00
    0   20    8     -3.55      0.00
    1   20    8      6.23      0.00
    2   20    8     -5.68      0.00
    0    1    9    -25.26      0.00
    1    2    9     -4.73      0.00
    0    3    9     17.37      0.00
    1    3    9    -21.32      0.00
    2    3    9     -4.37      0.00
    1    4    9     36.16      0.00
    2    4    9     21.56      0.00
    3    4    9     11.14      0.00
    0    5    9    -41.36      0.00
    1    5    9      2.48      0.00
    2    5    9      7.47      0.00
    3    5    9      7.28      0.00
    4    5    9     -2.45      0.00
    1    6    9     11.05      0.00
    2    6    9     -6.05      0.00
    3    6    9    -22.38      0.00
    4    6    9     -1.73      0.00
    5    6    9      1.61      0.00
    0    7    9     29.34      0.00
    1    7    9     -5.96      0.00
    2    7    9     -2.01      0.00
    3    7    9     -6.43      0.00
    4    7    9    -12.88      0.00
    5    7    9      0.52      0.00
    6    7    9      1.02      0.00
    1    8    9     -3.33      0.00
    2    8    9    -16.74      0.00
    3    8    9      7.79      0.00
    4    8    9      9.28      0.00
    5    8    9      8.43      0.00
    6    8    9     11.66      0.00
    7    8    9     -2.54      0.00
    0    9    9     -8.18      0.00
    1    9    9     12.28      0.00
    2    9    9     -3.08      0.00
    3    9    9     10.69      0.00
    4    9    9      7.90      0.00
    5    9    9      4.35      0.00
    6    9    9      4.26      0.00
    7    9    9     -5.28      0.00
    8    9    9    -13.47      0.00
    1   10    9      9.57      0.00
    2   10    9      5.74      0.00
    3   10    9     -4.45      0.00
    4   10    9      2.19      0.00
    5   10    9     -3.15      0.00
    6   10    9      6.73      0.00
    7   10    9     -4.40      0.00
    8   10    9     -4.79      0.00
    0   11    9     13.63      0.00
    1   11    9      5.19      0.00
    2   11    9     -4.67      0.00
    3   11    9     -4.42      0.00
    4   11    9      8.19      0.00
    5   11    9     -0.32      0.00
    6   11    9     -4.76      0.00
    7   11    9     12.75      0.00
    8   11    9     24.66      0.00
    1   12    9      2.61      0.00
    2   12    9     19.41      0.00
    3   12    9    -14.08      0.00
    4   12    9     23.25      0.00
    5   12    9     -3.90      0.00
    6   12    9     -4.21      0.00
    7   12    9      3.24      0.00
    8   12    9      2.83      0.00
    9   12    9     -1.37      0.00
    0   13    9     15.42      0.00
    1   13    9    -13.27      0.00
    2   13    9    -15.07      0.00
    3   13    9      9.05      0.00
    4   13    9    -13.51      0.00
    5   13    9     15.93      0.00
    6   13    9     13.22      0.00
    7   13    9     17.06      0.00
    8   13    9     -8.88      0.00
    1   14    9     13.16      0.00
    2   14    9     29.55      0.00
    3   14    9     14.06      0.00
    4   14    9      1.21      0.00
    5   14    9    -15.17      0.00
    6   14    9     40.80      0.00
    7   14    9     15.52      0.00
    8   14    9    -10.20      0.00
    0   15    9      1.72      0.00
    1   15    9      0.65      0.00
    2   15    9    -13.89      0.00
    3   15    9      4.90      0.00
    4   15    9     -0.48      0.00
    5   15    9      7.23      0.00
    6   15    9      2.71      0.00
    7   15    9     28.99      0.00
    8   15    9    -17.43      0.00
    1   16    9    -22.34      0.00
    2   16    9      9.96      0.00
    3   16    9      7.56      0.00
    4   16    9      9.14      0.00
    5   16    9     15.03      0.00
    6   16    9     26.10      0.00
    7   16    9     -0.85      0.00
    8   16    9    -49.78      0.00
    0   17    9      0.38      0.00
    1   17    9    -13.77      0.00
    2   17    9      8.33      0.00
    3   17    9      8.13      0.00
    4   17    9      1.18      0.00
    5   17    9     -1.22      0.00
    6   17    9     15.63      0.00
    7   17    9     -2.56      0.00
    8   17    9      6.74      0.00
    1   18    9    -12.75      0.00
    2   18    9    -15.45      0.00
    3   18    9    -44.31      0.00
    4   18    9     -0.93      0.00
    5   18    9     19.70      0.00
    6   18    9    -13.29      0.00
    7   18    9    -19.92      0.00
    8   18    9     57.90      0.00
    0   19    9     -4.08      0.00
    1   19    9    -13.77      0.00
    2   19    9      6.14      0.00
    3   19    9     -6.36      0.00
    4   19    9    -14.14      0.00
    5   19    9     23.64      0.00
    6   19    9      6.79      0.00
    1   20    9     -2.66      0.00
    2   20    9     24.19      0.00
    0    0   10     36.49      0.00
    1    1   10    -31.45      0.00
    0    2   10     84.09      0.00
    1    2   10    -11.93      0.00
    2    2   10    -26.82      0.00
    1    3   10      2.49      0.00
    2    3   10    -18.57      0.00
    3    3   10      2.33      0.00
    0    4   10     12.89      0.00
    1    4   10     -1.48      0.00
    2    4   10     42.59      0.00
    3    4   10      9.05      0.00
    4    4   10     -4.92      0.00
    1    5   10      6.20      0.00
    2    5   10     -2.91      0.00
    3    5   10     23.39      0.00
    4    5   10      5.72      0.00
    5    5   10      8.99      0.00
    0    6   10      5.96      0.00
    1    6   10     -6.39      0.00
    2    6   10     -0.15      0.00
    3    6   10    -12.27      0.00
    4    6   10      2.14      0.00
    5    6   10     -0.33      0.00
    6    6   10     -2.71      0.00
    1    7   10      4.20      0.00
    2    7   10    -10.51      0.00
    3    7   10     -7.31      0.00
    4    7   10      6.32      0.00
    5    7   10      8.51      0.00
    6    7   10      1.44      0.00
    7    7   10      4.85      0.00
    0    8   10     -6.55      0.00
    1    8   10    -11.23      0.00
    2    8   10     -1.08      0.00
    3    8   10      9.98      0.00
    4    8   10     -3.08      0.00
    5    8   10     -7.69      0.00
    6    8   10      8.74      0.00
    7    8   10    -13.66      0.00
    8    8   10     13.49      0.00
    1    9   10     -9.59      0.00
    2    9   10     20.90      0.00
    3    9   10     -1.57      0.00
    4    9   10      1.22      0.00
    5    9   10     13.62      0.00
    6    9   10     -7.01      0.00
    7    9   10      0.60      0.00
    8    9   10    -19.85      0.00
    9    9   10     30.60      0.00
    0   10   10     12.11      0.00
    1   10   10     -4.26      0.00
    2   10   10     -5.86      0.00
    3   10   10     11.11      0.00
    4   10   10      9.79      0.00
    5   10   10    -13.64      0.00
    6   10   10     -7.50      0.00
    7   10   10     -1.04      0.00
    8   10   10     -5.11      0.00
    1   11   10      5.76      0.00
    2   11   10      1.69      0.00
    3   11   10     -9.04      0.00
    4   11   10     -0.64      0.00
    5   11   10     13.68      0.00
    6   11   10     -0.52      0.00
    7   11   10     -7.82      0.00
    8   11   10     -8.14      0.00
    9   11   10    -55.79      0.00
    0   12   10     24.61      0.00
    1   12   10     -0.68      0.00
    2   12   10      4.11      0.00
    3   12   10     12.79      0.00
    4   12   10      4.44      0.00
    5   12   10      1.17      0.00
    6   12   10     -9.71      0.00
    7   12   10      0.87      0.00
    8   12   10    -11.56      0.00
    9   12   10      6.36      0.00
    1   13   10     12.49      0.00
    2   13   10     16.00      0.00
    3   13   10     -7.35      0.00
    4   13   10    -38.19      0.00
    5   13   10      3.33      0.00
    6   13   10     -3.82      0.00
    7   13   10    -22.37      0.00
    8   13   10      7.58      0.00
    9   13   10     12.15      0.00
    0   14   10     24.20      0.00
    1   14   10    -29.73      0.00
    2   14   10     18.99      0.00
    3   14   10     -9.96      0.00
    4   14   10     26.75      0.00
    5   14   10     -1.75      0.00
    6   14   10      2.70      0.00
    7   14   10      1.49      0.00
    8   14   10    -31.66      0.00
    1   15   10    -37.72      0.00
    2   15   10    -23.15      0.00
    3   15   10      7.05      0.00
    4   15   10      6.46      0.00
    5   15   10      3.05      0.00
    6   15   10      4.27      0.00
    7   15   10     -7.01      0.00
    8   15   10    -13.47      0.00
    0   16   10     61.80      0.00
    1   16   10    180.15      0.00
    2   16   10    -11.44      0.00
    3   16   10     15.61      0.00
    4   16   10    -12.10      0.00
    5   16   10      9.18      0.00
    6   16   10     -6.44      0.00
    7   16   10      9.07      0.00
    8   16   10     31.41      0.00
    1   17   10     31.94      0.00
    2   17   10    -22.03      0.00
    3   17   10     36.78      0.00
    4   17   10     23.38      0.00
    5   17   10    -27.48      0.00
    6   17   10      0.35      0.00
    7   17   10      8.13      0.00
    8   17   10      5.37      0.00
    0   18   10    -63.10      0.00
    1   18   10    -14.08      0.00
    2   18   10    103.68      0.00
    3   18   10      1.62      0.00
    4   18   10    -15.13      0.00
    5   18   10    -21.68      0.00
    6   18   10    -14.52      0.00
    7   18   10      4.03      0.00
    8   18   10     30.24      0.00
    1   19   10     -0.45      0.00
    2   19   10    -15.56      0.00
    3   19   10    -16.41      0.00
    4   19   10     10.62      0.00
    5   19   10    -22.36      0.00
    1   20   10    -34.86      0.00
    2   20   10     -7.39      0.00
    0    1   11      6.67      0.00
    1    2   11     40.09      0.00
    0    3   11    -23.94      0.00
    1    3   11      5.06      0.00
    2    3   11      5.87      0.00
    1    4   11     -7.02      0.00
    2    4   11     -9.59      0.00
    3    4   11      7.74      0.00
    0    5   11      7.43      0.00
    1    5   11     -1.75      0.00
    2    5   11     30.96      0.00
    3    5   11     12.15      0.00
    4    5   11    -12.32      0.00
    1    6   11      6.88      0.00
    2    6   11      4.10      0.00
    3    6   11     -1.43      0.00
    4    6   11     -2.36      0.00
    5    6   11     -1.37      0.00
    0    7   11    -10.62      0.00
    1    7   11     -6.33      0.00
    2    7   11     -9.69      0.00
    3    7   11     -6.21      0.00
    4    7   11      5.46      0.00
    5    7   11     -8.61      0.00
    6    7   11      6.78      0.00
    1    8   11      0.15      0.00
    2    8   11      0.56      0.00
    3    8   11     13.25      0.00
    4    8   11     13.94      0.00
    5    8   11     11.07      0.00
    6    8   11    -13.66      0.00
    7    8   11     12.77      0.00
    0    9   11     15.51      0.00
    1    9   11      4.23      0.00
    2    9   11      6.14      0.00
    3    9   11     -2.76      0.00
    4    9   11     -1.73      0.00
    5    9   11      0.59      0.00
    6    9   11     -3.49      0.00
    7    9   11     -5.57      0.00
    8    9   11      1.97      0.00
    1   10   11     -4.44      0.00
    2   10   11    -28.25      0.00
    3   10   11     -6.41      0.00
    4   10   11     -1.94      0.00
    5   10   11     -4.31      0.00
    6   10   11    -13.25      0.00
    7   10   11    -13.74      0.00
    8   10   11     -9.54      0.00
    9   10   11      6.56      0.00
    0   11   11     -7.77      0.00
    1   11   11     12.31      0.00
    2   11   11      1.70      0.00
    3   11   11      0.98      0.00
    4   11   11     13.89      0.00
    5   11   11     -3.51      0.00
    6   11   11     -4.70      0.00
    7   11   11    -21.20      0.00
    8   11   11      6.67      0.00
    9   11   11     -3.01      0.00
   10   11   11     -8.06      0.00
    1   12   11     26.14      0.00
    2   12   11     -1.26      0.00
    3   12   11     -7.30      0.00
    4   12   11     14.26      0.00
    5   12   11     -0.40      0.00
    6   12   11    -18.62      0.00
    7   12   11      0.41      0.00
    8   12   11    -20.63      0.00
    9   12   11     30.73      0.00
   10   12   11    -11.94      0.00
    0   13   11     -0.85      0.00
    1   13   11    -10.35      0.00
    2   13   11    -25.55      0.00
    3   13   11    -74.78      0.00
    4   13   11      3.92      0.00
    5   13   11      7.01      0.00
    6   13   11     -5.11      0.00
    7   13   11      7.45      0.00
    8   13   11      0.32      0.00
    9   13   11     40.48      0.00
   10   13   11    -21.55      0.00
    1   14   11    -13.90      0.00
    2   14   11      0.83      0.00
    3   14   11      0.55      0.00
    4   14   11      5.85      0.00
    5   14   11     18.40      0.00
    6   14   11    -14.61      0.00
    7   14   11     16.71      0.00
    8   14   11    -61.45      0.00
    0   15   11      3.08      0.00
    1   15   11    -23.64      0.00
    2   15   11      6.71      0.00
    3   15   11      0.10      0.00
    4   15   11     -2.95      0.00
    5   15   11    -22.88      0.00
    6   15   11    -24.52      0.00
    7   15   11     16.46      0.00
    8   15   11      3.08      0.00
    1   16   11    -10.75      0.00
    2   16   11    -33.92      0.00
    3   16   11     -0.54      0.00
    4   16   11    -16.75      0.00
    5   16   11    -15.78      0.00
    6   16   11     -0.92      0.00
    7   16   11     -5.19      0.00
    8   16   11    -36.01      0.00
    0   17   11      6.90      0.00
    1   17   11     -3.62      0.00
    2   17   11    -10.18      0.00
    3   17   11     -6.51      0.00
    4   17   11    -10.90      0.00
    5   17   11     -2.29      0.00
    6   17   11     -5.10      0.00
    7   17   11    -50.02      0.00
    8   17   11     -2.69      0.00
    2   18   11    -20.24      0.00
    3   18   11    -28.39      0.00
    4   18   11     14.84      0.00
    5   18   11    -48.42      0.00
    6   18   11     -7.50      0.00
    7   18   11    -11.35      0.00
    8   18   11     55.86      0.00
    0   19   11     -9.61      0.00
    1   19   11     11.55      0.00
    2   19   11     -0.11      0.00
    3   19   11     -1.98      0.00
    4   19   11     14.87      0.00
    5   19   11    -17.24      0.00
    0    0   12     52.45      0.00
    1    1   12    -17.36      0.00
    0    2   12     11.39      0.00
    1    2   12     -2.31      0.00
    2    2   12     -0.78      0.00
    1    3   12      8.31      0.00
    2    3   12     -0.72      0.00
    3    3   12    -16.20      0.00
    0    4   12      9.42      0.00
    1    4   12      6.52      0.00
    2    4   12     -4.71      0.00
    3    4   12     -6.25      0.00
    4    4   12      8.82      0.00
    1    5   12    -12.56      0.00
    2    5   12      9.06      0.00
    3    5   12      3.24      0.00
    4    5   12     -7.22      0.00
    5    5   12      0.47      0.00
    0    6   12     -8.56      0.00
    1    6   12     10.53      0.00
    2    6   12     -3.25      0.00
    3    6   12     -3.48      0.00
    4    6   12      4.04      0.00
    5    6   12     -1.47      0.00
    6    6   12    -10.29      0.00
    1    7   12      4.63      0.00
    2    7   12    -17.08      0.00
    3    7   12     -2.62      0.00
    4    7   12      0.39      0.00
    5    7   12     -8.12      0.00
    6    7   12      4.32      0.00
    7    7   12      1.72      0.00
    0    8   12     11.13      0.00
    1    8   12     -8.73      0.00
    2    8   12     -1.13      0.00
    3    8   12      5.75      0.00
    4    8   12      8.95      0.00
    5    8   12      0.17      0.00
    6    8   12     -8.95      0.00
    7    8   12      0.65      0.00
    8    8   12     -7.33      0.00
    1    9   12     -2.84      0.00
    2    9   12     10.40      0.00
    3    9   12     -3.23      0.00
    4    9   12     30.68      0.00
    5    9   12     -3.64      0.00
    6    9   12      1.99      0.00
    7    9   12      2.20      0.00
    8    9   12      5.23      0.00
    9    9   12     -7.54      0.00
    0   10   12      0.23      0.00
    1   10   12      7.94      0.00
    2   10   12      2.14      0.00
    3   10   12    -30.35      0.00
    4   10   12      0.68      0.00
    5   10   12      2.77      0.00
    6   10   12     -4.91      0.00
    7   10   12     -2.17      0.00
    8   10   12      5.03      0.00
    9   10   12      9.16      0.00
   10   10   12     19.00      0.00
    1   11   12      4.03      0.00
    2   11   12      3.62      0.00
    3   11   12     -7.38      0.00
    4   11   12    -23.36      0.00
    5   11   12     13.41      0.00
    6   11   12     15.39      0.00
    8   11   12     39.85      0.00
    9   11   12     -0.28      0.00
   10   11   12      1.59      0.00
    0   12   12     18.13      0.00
    1   12   12      7.16      0.00
    2   12   12     12.00      0.00
    3   12   12     13.26      0.00
    4   12   12     -5.49      0.00
    5   12   12    -26.89      0.00
    7   12   12    -13.05      0.00
    8   12   12      3.35      0.00
    9   12   12    -21.12      0.00
   10   12   12    -19.55      0.00
    1   13   12    -25.70      0.00
    2   13   12      2.54      0.00
    3   13   12     -9.56      0.00
    4   13   12     -3.29      0.00
    5   13   12     -9.34      0.00
    6   13   12     18.17      0.00
    7   13   12     -3.29      0.00
    8   13   12    -14.46      0.00
    9   13   12    -12.38      0.00
   10   13   12     -7.29      0.00
    0   14   12    -61.89      0.00
    1   14   12      0.26      0.00
    2   14   12     20.70      0.00
    3   14   12     16.72      0.00
    4   14   12     12.50      0.00
    5   14   12      5.54      0.00
    6   14   12    -11.31      0.00
    7   14   12     -2.09      0.00
    8   14   12      0.73      0.00
    9   14   12    -13.80      0.00
    1   15   12     15.51      0.00
    2   15   12     -5.00      0.00
    3   15   12    -25.65      0.00
    4   15   12    -46.98      0.00
    5   15   12     -0.83      0.00
    6   15   12      0.58      0.00
    7   15   12      7.68      0.00
    8   15   12    -23.71      0.00
    9   15   12      4.53      0.00
    0   16   12    -30.20      0.00
    1   16   12     18.11      0.00
    2   16   12      3.40      0.00
    3   16   12     13.73      0.00
    4   16   12    -32.16      0.00
    5   16   12      2.60      0.00
    6   16   12      3.35      0.00
    7   16   12     10.51      0.00
    8   16   12    -20.22      0.00
    9   16   12     25.44      0.00
    1   17   12    -22.96      0.00
    2   17   12    -14.57      0.00
    3   17   12    -19.85      0.00
    4   17   12     -4.95      0.00
    5   17   12     74.46      0.00
    6   17   12     -1.32      0.00
    7   17   12    -15.71      0.00
    8   17   12      8.12      0.00
    0   18   12     -5.68      0.00
    1   18   12    -16.12      0.00
    2   18   12     -3.45      0.00
    3   18   12     13.26      0.00
    4   18   12      4.20      0.00
    5   18   12     32.43      0.00
    6   18   12     36.19      0.00
    7   18   12      5.68      0.00
    8   18   12     -3.75      0.00
    1   19   12     20.29      0.00
    2   19   12     -1.70      0.00
    3   19   12    -12.96      0.00
    4   19   12     14.50      0.00
    0    1   13    -12.12      0.00
    1    2   13    -11.01      0.00
    0    3   13    -22.87      0.00
    1    3   13     -1.64      0.00
    2    3   13    -11.10      0.00
    1    4   13     -1.25      0.00
    2    4   13     23.49      0.00
    3    4   13     -1.14      0.00
    0    5   13      5.57      0.00
    1    5   13      6.59      0.00
    2    5   13      8.59      0.00
    3    5   13     13.48      0.00
    4    5   13     -0.35      0.00
    1    6   13     -8.37      0.00
    2    6   13      0.26      0.00
    3    6   13      0.22      0.00
    4    6   13     -6.04      0.00
    5    6   13     -5.35      0.00
    0    7   13      3.68      0.00
    1    7   13      0.02      0.00
    2    7   13     -4.34      0.00
    3    7   13    -10.24      0.00
    4    7   13    -11.65      0.00
    5    7   13     -0.74      0.00
    6    7   13      3.56      0.00
    1    8   13     -3.92      0.00
    2    8   13      5.76      0.00
    3    8   13     -3.87      0.00
    4    8   13      1.55      0.00
    5    8   13      4.19      0.00
    6    8   13     14.90      0.00
    7    8   13      1.65      0.00
    0    9   13     -1.61      0.00
    1    9   13      3.02      0.00
    2    9   13    -15.24      0.00
    3    9   13      2.57      0.00
    4    9   13     -3.43      0.00
    5    9   13     -1.14      0.00
    6    9   13    -20.81      0.00
    7    9   13      1.21      0.00
    8    9   13     -7.72      0.00
    1   10   13    -11.63      0.00
    2   10   13      1.42      0.00
    3   10   13     11.73      0.00
    4   10   13    -12.50      0.00
    5   10   13      8.99      0.00
    6   10   13     -3.39      0.00
    7   10   13     15.07      0.00
    8   10   13      5.18      0.00
    9   10   13      5.80      0.00
    0   11   13      8.86      0.00
    1   11   13      7.38      0.00
    2   11   13     -6.07      0.00
    3   11   13    -13.50      0.00
    4   11   13    -15.81      0.00
    5   11   13     17.18      0.00
    6   11   13     -5.59      0.00
    7   11   13     14.10      0.00
    8   11   13      7.55      0.00
    9   11   13    -18.76      0.00
   10   11   13    -20.97      0.00
    1   12   13    -22.76      0.00
    2   12   13      7.90      0.00
    3   12   13    -22.07      0.00
    4   12   13     34.50      0.00
    5   12   13     -3.82      0.00
    6   12   13     24.15      0.00
    7   12   13      0.56      0.00
    8   12   13     -7.41      0.00
    9   12   13      6.25      0.00
   10   12   13    -16.58      0.00
    0   13   13     11.34      0.00
    1   13   13      0.35      0.00
    2   13   13     29.38      0.00
    3   13   13    -18.59      0.00
    4   13   13     -0.34      0.00
    5   13   13      3.13      0.00
    6   13   13    -15.15      0.00
    7   13   13      5.98      0.00
    8   13   13     18.23      0.00
    9   13   13     29.78      0.00
   10   13   13      1.66      0.00
    1   14   13      6.15      0.00
    2   14   13      9.57      0.00
    3   14   13     18.85      0.00
    4   14   13      6.00      0.00
    5   14   13     21.92      0.00
    6   14   13    -36.87      0.00
    7   14   13     13.36      0.00
    8   14   13    -17.93      0.00
    9   14   13    -20.87      0.00
    0   15   13    -16.76      0.00
    1   15   13     -5.82      0.00
    2   15   13    -23.78      0.00
    3   15   13     54.99      0.00
    4   15   13    -12.59      0.00
    5   15   13     -2.29      0.00
    6   15   13      2.73      0.00
    7   15   13     21.60      0.00
    8   15   13    -26.17      0.00
    9   15   13     78.93      0.00
    1   16   13     -8.04      0.00
    2   16   13    -18.68      0.00
    3   16   13     16.25      0.00
    4   16   13     14.74      0.00
    5   16   13    -11.70      0.00
    6   16   13     23.16      0.00
    7   16   13     92.70      0.00
    8   16   13      3.14      0.00
    9   16   13     -3.33      0.00
    0   17   13     19.66      0.00
    1   17   13     32.21      0.00
    2   17   13     13.17      0.00
    3   17   13    -15.79      0.00
    4   17   13    107.02      0.00
    5   17   13      0.53      0.00
    6   17   13    -21.60      0.00
    7   17   13    -10.19      0.00
    8   17   13     14.03      0.00
    9   17   13    -10.81      0.00
    1   18   13      9.44      0.00
    2   18   13     20.09      0.00
    3   18   13     -6.91      0.00
    4   18   13    -13.65      0.00
    5   18   13     -5.05      0.00
    6   18   13     13.10      0.00
    7   18   13    -21.50      0.00
    8   18   13     18.97      0.00
    0   19   13     11.20      0.00
    1   19   13      2.26      0.00
    2   19   13     -3.91      0.00
    3   19   13     15.92      0.00
    1    1   14      3.93      0.00
    0    2   14    -22.46      0.00
    1    2   14      8.74      0.00
    2    2   14    -13.42      0.00
    1    3   14    -26.37      0.00
    2    3   14      2.14      0.00
    3    3   14     -9.83      0.00
    0    4   14     -0.36      0.00
    1    4   14     -9.67      0.00
    2    4   14    -10.72      0.00
    3    4   14    -10.05      0.00
    4    4   14      1.90      0.00
    1    5   14      0.21      0.00
    2    5   14     -5.66      0.00
    3    5   14    -12.53      0.00
    4    5   14     -3.29      0.00
    5    5   14     -3.00      0.00
    0    6   14     -9.23      0.00
    1    6   14      9.10      0.00
    2    6   14     -4.86      0.00
    3    6   14      0.61      0.00
    4    6   14     -5.17      0.00
    5    6   14     16.35      0.00
    6    6   14      0.76      0.00
    1    7   14     -0.47      0.00
    2    7   14    -11.26      0.00
    3    7   14     -4.92      0.00
    4    7   14    -10.77      0.00
    5    7   14    -11.04      0.00
    6    7   14     -5.17      0.00
    7    7   14     -7.24      0.00
    0    8   14      2.64      0.00
    1    8   14      1.49      0.00
    2    8   14      3.41      0.00
    3    8   14     -1.15      0.00
    4    8   14     17.14      0.00
    5    8   14    -12.33      0.00
    6    8   14     -4.99      0.00
    7    8   14      0.61      0.00
    1    9   14      8.39      0.00
    2    9   14     11.94      0.00
    3    9   14      0.15      0.00
    4    9   14     11.83      0.00
    5    9   14     -5.40      0.00
    6    9   14      1.86      0.00
    7    9   14     -2.23      0.00
    8    9   14      7.96      0.00
    9    9   14      0.67      0.00
    0   10   14    -38.93      0.00
    1   10   14     -6.15      0.00
    2   10   14      2.99      0.00
    3   10   14     -7.20      0.00
    4   10   14     -8.23      0.00
    5   10   14    -12.01      0.00
    6   10   14    -12.98      0.00
    7   10   14     -5.90      0.00
    8   10   14     -5.99      0.00
    9   10   14    -14.38      0.00
   10   10   14     -4.19      0.00
    1   11   14     -8.48      0.00
    2   11   14      5.59      0.00
    3   11   14      7.10      0.00
    4   11   14     14.54      0.00
    5   11   14    -10.90      0.00
    6   11   14     12.83      0.00
    7   11   14     -7.26      0.00
    8   11   14     10.04      0.00
    9   11   14     -3.01      0.00
   10   11   14     12.97      0.00
   11   11   14     10.61      0.00
    0   12   14    -13.28      0.00
    1   12   14     -4.97      0.00
    2   12   14     -2.93      0.00
    3   12   14     19.70      0.00
    5   12   14      6.69      0.00
    6   12   14     -8.90      0.00
    7   12   14    -31.32      0.00
    8   12   14     20.44      0.00
    9   12   14     44.28      0.00
   10   12   14      4.50      0.00
   11   12   14    -13.89      0.00
    1   13   14     -9.09      0.00
    2   13   14    -11.12      0.00
    3   13   14     -8.60      0.00
    4   13   14      9.65      0.00
    5   13   14     -2.36      0.00
    6   13   14     -8.35      0.00
    7   13   14    -22.58      0.00
    8   13   14      2.51      0.00
    9   13   14     -4.87      0.00
   10   13   14     24.56      0.00
   11   13   14    -37.77      0.00
    0   14   14      9.21      0.00
    1   14   14     11.01      0.00
    2   14   14    -17.23      0.00
    3   14   14      7.62      0.00
    4   14   14     -2.90      0.00
    5   14   14     23.49      0.00
    6   14   14     -5.51      0.00
    7   14   14    -10.33      0.00
    8   14   14     -5.84      0.00
    9   14   14    -15.54      0.00
   10   14   14     42.43      0.00
   11   14   14     29.68      0.00
    1   15   14    111.42      0.00
    2   15   14     -1.63      0.00
    3   15   14    -17.25      0.00
    4   15   14      3.36      0.00
    5   15   14      1.33      0.00
    6   15   14     -7.39      0.00
    7   15   14      9.10      0.00
    8   15   14      6.52      0.00
    0   16   14    -11.24      0.00
    1   16   14    -25.11      0.00
    2   16   14     14.79      0.00
    3   16   14    -14.48      0.00
    4   16   14    -46.62      0.00
    5   16   14    -13.09      0.00
    6   16   14    -24.59      0.00
    7   16   14     12.35      0.00
    8   16   14     -6.30      0.00
    1   17   14    -24.81      0.00
    2   17   14    -10.04      0.00
    4   17   14      2.52      0.00
    5   17   14      5.21      0.00
    6   17   14    -21.92      0.00
    7   17   14    -29.79      0.00
    8   17   14     -4.83      0.00
    0   18   14    -28.73      0.00
    1   18   14      3.20      0.00
    2   18   14      4.89      0.00
    3   18   14     -6.83      0.00
    4   18   14     -5.13      0.00
    5   18   14     22.85      0.00
    6   18   14      8.79      0.00
    7   18   14     23.41      0.00
    8   18   14      7.85      0.00
    0    1   15      3.47      0.00
    1    2   15     -7.09      0.00
    0    3   15    -17.73      0.00
    1    3   15     -9.13      0.00
    2    3   15     16.88      0.00
    1    4   15     -1.17      0.00
    2    4   15     -8.79      0.00
    3    4   15     -4.07      0.00
    0    5   15     22.24      0.00
    1    5   15      4.08      0.00
    2    5   15     -9.60      0.00
    3    5   15      8.08      0.00
    4    5   15      5.08      0.00
    1    6   15     -4.74      0.00
    2    6   15     14.71      0.00
    3    6   15      2.76      0.00
    4    6   15     -3.10      0.00
    5    6   15     12.09      0.00
    0    7   15      3.56      0.00
    1    7   15      4.82      0.00
    2    7   15      5.16      0.00
    3    7   15     -6.47      0.00
    4    7   15    -11.77      0.00
    5    7   15     -6.72      0.00
    6    7   15      0.05      0.00
    1    8   15     -0.16      0.00
    2    8   15     -4.08      0.00
    3    8   15      5.14      0.00
    4    8   15      1.26      0.00
    5    8   15      0.98      0.00
    6    8   15     21.03      0.00
    0    9   15    -13.86      0.00
    1    9   15      0.17      0.00
    2    9   15     13.43      0.00
    3    9   15      0.45      0.00
    4    9   15    -12.82      0.00
    5    9   15      4.14      0.00
    6    9   15      7.14      0.00
    7    9   15     -6.90      0.00
    8    9   15      8.61      0.00
    1   10   15      1.94      0.00
    2   10   15      2.10      0.00
    3   10   15     12.67      0.00
    4   10   15     -1.00      0.00
    5   10   15     10.98      0.00
    6   10   15     -3.91      0.00
    7   10   15     15.71      0.00
    8   10   15      2.20      0.00
    9   10   15    -11.71      0.00
    1   11   15      5.89      0.00
    2   11   15     17.93      0.00
    3   11   15    -28.07      0.00
    4   11   15    -15.59      0.00
    5   11   15    -22.46      0.00
    6   11   15     -0.71      0.00
    7   11   15    -11.44      0.00
    8   11   15     19.59      0.00
    9   11   15      9.92      0.00
   10   11   15      7.85      0.00
    1   12   15     11.56      0.00
    2   12   15     -0.87      0.00
    4   12   15      6.70      0.00
    5   12   15     -1.96      0.00
    6   12   15     30.53      0.00
    7   12   15     10.52      0.00
    8   12   15      2.51      0.00
    9   12   15     -0.78      0.00
   10   12   15    -39.76      0.00
   11   12   15    -10.56      0.00
    0   13   15     -5.36      0.00
    1   13   15    -11.87      0.00
    2   13   15     25.31      0.00
    3   13   15      2.35      0.00
    4   13   15      6.03      0.00
    5   13   15     22.31      0.00
    6   13   15      2.73      0.00
    7   13   15     29.98      0.00
    8   13   15     -1.02      0.00
    9   13   15    -19.13      0.00
   10   13   15      5.42      0.00
   11   13   15      0.67      0.00
    1   14   15    -16.17      0.00
    2   14   15    -12.21      0.00
    3   14   15      9.76      0.00
    4   14   15     -0.31      0.00
    5   14   15     -3.54      0.00
    6   14   15     14.65      0.00
    7   14   15      8.47      0.00
    8   14   15     14.17      0.00
    9   14   15    -16.00      0.00
   10   14   15      5.22      0.00
   11   14   15      6.27      0.00
    0   15   15    -13.44      0.00
    1   15   15     -2.76      0.00
    2   15   15      3.31      0.00
    3   15   15     17.38      0.00
    4   15   15     -2.89      0.00
    5   15   15      2.34      0.00
    6   15   15    -22.22      0.00
    7   15   15     12.68      0.00
    1   16   15      8.89      0.00
    2   16   15     -7.59      0.00
    3   16   15    -18.02      0.00
    4   16   15    -15.72      0.00
    5   16   15     -2.88      0.00
    6   16   15      5.50      0.00
    7   16   15      0.04      0.00
    2   17   15    -18.66      0.00
    3   17   15    -12.55      0.00
    4   17   15     21.28      0.00
    5   17   15     18.54      0.00
    6   17   15      7.99      0.00
    7   17   15      2.86      0.00
    1   18   15     -6.35      0.00
    2   18   15     -1.90      0.00
    3   18   15    -21.53      0.00
    4   18   15      0.74      0.00
    5   18   15     13.49      0.00
    6   18   15     32.98      0.00
    7   18   15    -16.14      0.00
    1    1   16     15.18      0.00
    0    2   16      6.34      0.00
    1    2   16     -6.02      0.00
    2    2   16     44.08      0.00
    1    3   16     19.48      0.00
    2    3   16     -9.60      0.00
    3    3   16     -5.18      0.00
    0    4   16     16.97      0.00
    1    4   16    -14.69      0.00
    2    4   16     -7.71      0.00
    3    4   16     -5.37      0.00
    4    4   16     13.95      0.00
    1    5   16     10.61      0.00
    2    5   16      6.62      0.00
    3    5   16      1.37      0.00
    4    5   16     -4.37      0.00
    5    5   16     29.37      0.00
    0    6   16      5.49      0.00
    1    6   16      1.43      0.00
    2    6   16    -16.59      0.00
    3    6   16      2.52      0.00
    4    6   16      1.81      0.00
    5    6   16      4.07      0.00
    6    6   16      0.27      0.00
    1    7   16      6.65      0.00
    2    7   16      4.97      0.00
    3    7   16     14.86      0.00
    4    7   16     -5.44      0.00
    5    7   16     -4.13      0.00
    6    7   16      4.45      0.00
    0    8   16      3.31      0.00
    1    8   16     20.76      0.00
    2    8   16     10.13      0.00
    3    8   16     -4.04      0.00
    4    8   16     15.18      0.00
    5    8   16      5.03      0.00
    7    8   16      5.59      0.00
    8    8   16     -4.71      0.00
    1    9   16     -3.46      0.00
    2    9   16      1.31      0.00
    3    9   16      8.17      0.00
    4    9   16      3.53      0.00
    6    9   16     -3.85      0.00
    7    9   16      7.10      0.00
    8    9   16      2.58      0.00
    9    9   16    -21.09      0.00
    0   10   16      2.78      0.00
    1   10   16    -24.69      0.00
    2   10   16      6.78      0.00
    3   10   16      9.43      0.00
    4   10   16     -1.30      0.00
    5   10   16     -8.96      0.00
    6   10   16     16.19      0.00
    7   10   16     -9.19      0.00
    8   10   16     -2.79      0.00
    9   10   16      3.83      0.00
   10   10   16     -4.51      0.00
    1   11   16      8.80      0.00
    2   11   16    -15.72      0.00
    3   11   16      7.56      0.00
    4   11   16     -2.88      0.00
    5   11   16      1.40      0.00
    6   11   16      5.77      0.00
    7   11   16     18.86      0.00
    8   11   16      6.72      0.00
    9   11   16    -12.31      0.00
   10   11   16    -12.67      0.00
   11   11   16     -3.49      0.00
    0   12   16    -10.36      0.00
    1   12   16      3.67      0.00
    2   12   16    -51.29      0.00
    3   12   16     18.42      0.00
    4   12   16     14.61      0.00
    5   12   16    -14.25      0.00
    6   12   16      6.86      0.00
    7   12   16      8.86      0.00
    8   12   16    -10.97      0.00
    9   12   16     -0.55      0.00
   10   12   16     -1.55      0.00
   11   12   16     -1.74      0.00
    1   13   16     -0.36      0.00
    2   13   16     33.56      0.00
    3   13   16     -4.89      0.00
    4   13   16      3.31      0.00
    5   13   16      9.27      0.00
    6   13   16    -86.43      0.00
    7   13   16     16.91      0.00
    8   13   16    -11.35      0.00
    9   13   16     -4.39      0.00
   10   13   16     -8.02      0.00
   11   13   16    -33.73      0.00
    0   14   16    -17.83      0.00
    1   14   16    -15.31      0.00
    2   14   16     -0.08      0.00
    4   14   16     -1.83      0.00
    5   14   16      9.14      0.00
    6   14   16      9.58      0.00
    7   14   16    -13.14      0.00
    8   14   16      1.03      0.00
    9   14   16    -48.12      0.00
   10   14   16     11.48      0.00
   11   14   16     19.96      0.00
    1   15   16    -10.91      0.00
    2   15   16      7.86      0.00
    3   15   16    -18.50      0.00
    4   15   16      6.18      0.00
    5   15   16     15.59      0.00
    6   15   16      1.92      0.00
    0   16   16    -40.01      0.00
    1   16   16      3.39      0.00
    2   16   16    -21.67      0.00
    3   16   16     -7.61      0.00
    4   16   16      0.56      0.00
    5   16   16    -11.91      0.00
    6   16   16     -7.19      0.00
    1   17   16      2.99      0.00
    2   17   16     17.35      0.00
    3   17   16     10.19      0.00
    4   17   16     -3.90      0.00
    5   17   16     12.77      0.00
    6   17   16     -9.49      0.00
    0   18   16     12.13      0.00
    1   18   16     13.31      0.00
    2   18   16     -8.82      0.00
    3   18   16    -21.86      0.00
    4   18   16     -2.32      0.00
    5   18   16      0.92      0.00
    6   18   16     33.08      0.00
    0    1   17     21.42      0.00
    1    2   17      1.82      0.00
    0    3   17      8.65      0.00
    1    3   17    -12.76      0.00
    2    3   17     10.90      0.00
    1    4   17     11.62      0.00
    2    4   17     -4.57      0.00
    3    4   17      5.31      0.00
    0    5   17      6.40      0.00
    1    5   17      6.00      0.00
    2    5   17    -12.49      0.00
    3    5   17      1.64      0.00
    4    5   17      6.04      0.00
    1    6   17     -8.76      0.00
    2    6   17      8.77      0.00
    3    6   17     -7.76      0.00
    4    6   17      8.28      0.00
    5    6   17     -0.09      0.00
    0    7   17     30.28      0.00
    1    7   17     -0.35      0.00
    2    7   17    -14.54      0.00
    3    7   17    -13.99      0.00
    4    7   17      6.81      0.00
    5    7   17      1.59      0.00
    1    8   17      1.66      0.00
    2    8   17      0.66      0.00
    3    8   17    -15.21      0.00
    4    8   17    -12.42      0.00
    6    8   17     14.55      0.00
    7    8   17     14.34      0.00
    0    9   17    -11.37      0.00
    1    9   17     10.61      0.00
    2    9   17     -3.96      0.00
    3    9   17     -5.73      0.00
    4    9   17     -1.80      0.00
    5    9   17     13.92      0.00
    6    9   17      5.84      0.00
    7    9   17     -2.70      0.00
    8    9   17     -3.61      0.00
    1   10   17     -3.18      0.00
    2   10   17      1.68      0.00
    3   10   17     15.49      0.00
    4   10   17      8.14      0.00
    5   10   17    -15.00      0.00
    6   10   17     -5.86      0.00
    7   10   17      6.60      0.00
    8   10   17      1.45      0.00
    9   10   17     -3.11      0.00
    1   11   17     15.19      0.00
    2   11   17     15.43      0.00
    3   11   17    -14.04      0.00
    4   11   17    -18.92      0.00
    5   11   17     -1.87      0.00
    6   11   17      1.06      0.00
    7   11   17    -16.82      0.00
    8   11   17      3.18      0.00
    9   11   17     -8.13      0.00
   10   11   17     -2.72      0.00
    1   12   17      0.07      0.00
    2   12   17    -20.98      0.00
    3   12   17     -7.10      0.00
    4   12   17     13.33      0.00
    5   12   17      3.01      0.00
    6   12   17      2.85      0.00
    7   12   17    -68.98      0.00
    8   12   17     14.21      0.00
    9   12   17     17.11      0.00
   10   12   17     15.20      0.00
   11   12   17     49.09      0.00
    0   13   17     -8.14      0.00
    1   13   17      2.60      0.00
    2   13   17     -1.14      0.00
    3   13   17    -29.27      0.00
    4   13   17      7.66      0.00
    5   13   17    -55.96      0.00
    6   13   17     -2.54      0.00
    7   13   17     11.83      0.00
    8   13   17     -2.93      0.00
    9   13   17     16.01      0.00
   10   13   17      0.87      0.00
   11   13   17    -12.42      0.00
    1   14   17     11.58      0.00
    2   14   17     -9.37      0.00
    3   14   17    -33.26      0.00
    4   14   17    -33.78      0.00
    5   14   17      1.08      0.00
    6   14   17     15.68      0.00
    7   14   17     -4.84      0.00
    8   14   17      6.44      0.00
    9   14   17     16.75      0.00
   10   14   17     18.58      0.00
   11   14   17    -14.49      0.00
    0   15   17      2.57      0.00
    1   15   17     -2.21      0.00
    2   15   17     29.15      0.00
    3   15   17      2.70      0.00
    4   15   17     15.07      0.00
    5   15   17     -8.01      0.00
    1   16   17    -21.90      0.00
    2   16   17     -6.81      0.00
    3   16   17     57.14      0.00
    4   16   17      3.05      0.00
    5   16   17    -20.47      0.00
    0   17   17     -6.88      0.00
    1   17   17    -13.86      0.00
    2   17   17     15.50      0.00
    3   17   17    -10.40      0.00
    4   17   17     -1.14      0.00
    5   17   17     -3.53      0.00
    1   18   17      3.78      0.00
    2   18   17      3.92      0.00
    3   18   17      2.03      0.00
    4   18   17    -10.44      0.00
    5   18   17     -8.72      0.00
    1    1   18      3.15      0.00
    0    2   18    -15.76      0.00
    1    2   18     -1.41      0.00
    2    2   18      9.74      0.00
    1    3   18    -18.86      0.00
    2    3   18     -8.75      0.00
    3    3   18      0.49      0.00
    0    4   18     -4.77      0.00
    1    4   18      2.16      0.00
    2    4   18    -10.96      0.00
    3    4   18     -9.13      0.00
    4    4   18     -2.23      0.00
    1    5   18     12.74      0.00
    2    5   18     10.67      0.00
    3    5   18     24.78      0.00
    4    5   18     13.01      0.00
    5    5   18    -11.55      0.00
    0    6   18     -4.08      0.00
    1    6   18    -23.59      0.00
    2    6   18     18.61      0.00
    3    6   18     -4.32      0.00
    4    6   18     -4.85      0.00
    5    6   18    -25.21      0.00
    1    7   18     -9.41      0.00
    2    7   18    -14.58      0.00
    3    7   18      6.62      0.00
    4    7   18     -2.18      0.00
    6    7   18      6.62      0.00
    7    7   18     -7.70      0.00
    0    8   18    -23.00      0.00
    1    8   18     14.37      0.00
    2    8   18     13.31      0.00
    3    8   18      6.08      0.00
    5    8   18     14.61      0.00
    6    8   18     13.10      0.00
    7    8   18    -19.04      0.00
    8    8   18      2.13      0.00
    1    9   18      4.23      0.00
    2    9   18      1.30      0.00
    3    9   18      0.51      0.00
    4    9   18     15.82      0.00
    5    9   18    -22.98      0.00
    6    9   18     -0.88      0.00
    7    9   18      7.08      0.00
    8    9   18      9.14      0.00
    9    9   18      0.83      0.00
    0   10   18      9.67      0.00
    1   10   18     -5.25      0.00
    2   10   18    -11.95      0.00
    3   10   18    -18.36      0.00
    4   10   18    -24.25      0.00
    5   10   18    -10.34      0.00
    6   10   18      8.71      0.00
    7   10   18     -2.89      0.00
    8   10   18    -10.59      0.00
    9   10   18     17.26      0.00
   10   10   18     -0.39      0.00
    1   11   18      0.89      0.00
    2   11   18      1.03      0.00
    3   11   18      6.54      0.00
    4   11   18     -4.95      0.00
    5   11   18     13.22      0.00
    6   11   18     -6.06      0.00
    7   11   18      0.61      0.00
    8   11   18     -7.00      0.00
    9   11   18     -3.51      0.00
   10   11   18    -15.44      0.00
   11   11   18      7.50      0.00
    0   12   18     42.74      0.00
    1   12   18    -14.36      0.00
    2   12   18    -12.63      0.00
    3   12   18     38.58      0.00
    4   12   18    -13.66      0.00
    5   12   18     11.11      0.00
    6   12   18     -9.03      0.00
    7   12   18      8.69      0.00
    8   12   18     -7.37      0.00
    9   12   18     -6.11      0.00
   10   12   18      0.00      0.00
   11   12   18      2.34      0.00
   12   12   18    -39.86      0.00
    1   13   18     -4.65      0.00
    2   13   18     -3.19      0.00
    3   13   18     17.97      0.00
    4   13   18     14.76      0.00
    5   13   18     -3.54      0.00
    6   13   18     -3.77      0.00
    7   13   18      4.69      0.00
    8   13   18     15.47      0.00
    9   13   18      9.14      0.00
   10   13   18     -0.86      0.00
   11   13   18      4.87      0.00
   12   13   18    -16.55      0.00
    0   14   18     32.96      0.00
    1   14   18     -3.58      0.00
    2   14   18    -18.04      0.00
    3   14   18     -8.09      0.00
    4   14   18     13.79      0.00
    5   14   18     34.60      0.00
    6   14   18      3.88      0.00
    7   14   18     13.78      0.00
    8   14   18     -8.83      0.00
    9   14   18      1.30      0.00
   10   14   18     -6.32      0.00
   11   14   18      9.34      0.00
   12   14   18     -7.52      0.00
    1   15   18     12.69      0.00
    2   15   18      4.10      0.00
    3   15   18     -9.18      0.00
    4   15   18      9.52      0.00
    1   16   18     38.58      0.00
    2   16   18     -7.96      0.00
    3   16   18     14.79      0.00
    4   16   18      3.13      0.00
    1   17   18     24.65      0.00
    2   17   18     10.78      0.00
    3   17   18    -26.71      0.00
    4   17   18     32.42      0.00
    0   18   18      1.96      0.00
    1   18   18     14.61      0.00
    2   18   18     -9.79      0.00
    3   18   18    -15.47      0.00
    4   18   18      6.30      0.00
    0    1   19    -15.59      0.00
    1    2   19     -1.75      0.00
    0    3   19    -12.78      0.00
    1    3   19      2.32      0.00
    2    3   19     -7.94      0.00
    1    4   19      1.89      0.00
    2    4   19     13.52      0.00
    3    4   19    -22.32      0.00
    0    5   19     -5.17      0.00
    1    5   19     -1.40      0.00
    2    5   19    -16.12      0.00
    3    5   19     -4.50      0.00
    4    5   19     -0.71      0.00
    1    6   19     -2.97      0.00
    2    6   19      1.54      0.00
    3    6   19     -5.28      0.00
    4    6   19      2.36      0.00
    0    7   19    -13.94      0.00
    1    7   19     -2.88      0.00
    2    7   19     -3.74      0.00
    3    7   19     -9.33      0.00
    5    7   19     -2.25      0.00
    6    7   19      6.04      0.00
    1    8   19     -5.83      0.00
    2    8   19      0.41      0.00
    3    8   19     11.82      0.00
    4    8   19     -5.00      0.00
    5    8   19      2.52      0.00
    6    8   19    -28.07      0.00
    7    8   19     -8.81      0.00
    0    9   19    -18.54      0.00
    1    9   19     -6.92      0.00
    2    9   19     -9.78      0.00
    3    9   19     28.10      0.00
    4    9   19     18.01      0.00
    5    9   19     -9.90      0.00
    6    9   19     -7.76      0.00
    7    9   19     -3.32      0.00
    8    9   19    -18.14      0.00
    1   10   19      5.73      0.00
    2   10   19      1.04      0.00
    3   10   19     -6.50      0.00
    4   10   19      9.44      0.00
    5   10   19     15.78      0.00
    6   10   19     -5.62      0.00
    7   10   19     -8.92      0.00
    8   10   19    -13.52      0.00
    9   10   19      5.65      0.00
    0   11   19      1.09      0.00
    1   11   19    -16.79      0.00
    2   11   19     -0.27      0.00
    3   11   19      3.85      0.00
    4   11   19      4.84      0.00
    5   11   19     -6.52      0.00
    6   11   19      9.48      0.00
    7   11   19     28.02      0.00
    8   11   19      6.90      0.00
    9   11   19     -6.00      0.00
   10   11   19    -16.18      0.00
    1   12   19    -10.43      0.00
    2   12   19     -4.60      0.00
    3   12   19     12.87      0.00
    4   12   19     15.66      0.00
    5   12   19    -34.99      0.00
    6   12   19     12.49      0.00
    7   12   19     16.23      0.00
    8   12   19     -2.03      0.00
    9   12   19     -4.85      0.00
   10   12   19     39.21      0.00
   11   12   19     13.19      0.00
    0   13   19    -15.62      0.00
    1   13   19     41.10      0.00
    2   13   19     16.32      0.00
    3   13   19      2.36      0.00
    4   13   19      1.18      0.00
    5   13   19    -18.13      0.00
    6   13   19      9.86      0.00
    7   13   19      2.13      0.00
    8   13   19     29.47      0.00
    9   13   19    -20.36      0.00
   10   13   19    -14.72      0.00
   11   13   19     -5.14      0.00
   12   13   19     -0.18      0.00
    1   14   19      0.74      0.00
    2   14   19     -1.02      0.00
    3   14   19    -20.23      0.00
    4   14   19     20.10      0.00
    5   14   19     12.30      0.00
    6   14   19     10.51      0.00
    7   14   19      8.63      0.00
    8   14   19     19.16      0.00
    9   14   19      9.89      0.00
   10   14   19    -11.19      0.00
   11   14   19      4.92      0.00
    0   15   19    -37.82      0.00
    1   15   19    -35.37      0.00
    2   15   19     16.65      0.00
    9   15   19     15.45      0.00
   10   15   19     10.28      0.00
    1   16   19    -19.12      0.00
    2   16   19     -8.95      0.00
    3   16   19    -14.44      0.00
    0   17   19      8.34      0.00
    1   17   19    -17.59      0.00
    2   17   19      7.21      0.00
    3   17   19     -8.56      0.00
    1   18   19      4.11      0.00
    2   18   19      4.70      0.00
    3   18   19      0.54      0.00
    1    1   20      2.91      0.00
    0    2   20    -13.05      0.00
    1    2   20     10.01      0.00
    2    2   20     14.67      0.00
    1    3   20    -20.27      0.00
    2    3   20     -5.56      0.00
    3    3   20      3.75      0.00
    0    4   20     12.64      0.00
    1    4   20     20.93      0.00
    2    4   20     -2.26      0.00
    3    4   20     -6.01      0.00
    4    4   20     33.51      0.00
    1    5   20     -1.10      0.00
    2    5   20     19.51      0.00
    3    5   20      0.39      0.00
    4    5   20      2.66      0.00
    0    6   20     -4.39      0.00
    1    6   20     -3.45      0.00
    2    6   20     -2.01      0.00
    3    6   20     -9.54      0.00
    5    6   20     -7.89      0.00
    6    6   20     -7.61      0.00
    1    7   20      6.42      0.00
    2    7   20     -9.24      0.00
    3    7   20      5.83      0.00
    4    7   20     15.41      0.00
    5    7   20    -13.95      0.00
    6    7   20     48.75      0.00
    0    8   20     -5.20      0.00
    1    8   20      7.72      0.00
    2    8   20      1.24      0.00
    3    8   20    -13.53      0.00
    4    8   20     -9.38      0.00
    5    8   20     -4.41      0.00
    6    8   20      7.95      0.00
    7    8   20      8.30      0.00
    8    8   20    -21.44      0.00
    1    9   20      1.61      0.00
    2    9   20     -3.65      0.00
    3    9   20     -0.22      0.00
    4    9   20      1.95      0.00
    5    9   20     -7.59      0.00
    6    9   20     13.39      0.00
    7    9   20     -4.34      0.00
    8    9   20      6.58      0.00
    9    9   20     21.88      0.00
    0   10   20     33.96      0.00
    1   10   20      4.16      0.00
    2   10   20     10.05      0.00
    3   10   20     -5.39      0.00
    4   10   20    -12.62      0.00
    5   10   20     -7.78      0.00
    6   10   20      1.91      0.00
    7   10   20     -7.97      0.00
    8   10   20     13.24      0.00
    9   10   20      9.51      0.00
   10   10   20     20.94      0.00
    1   11   20      3.43      0.00
    2   11   20      2.32      0.00
    3   11   20      5.64      0.00
    4   11   20      0.18      0.00
    5   11   20     17.44      0.00
    6   11   20     17.23      0.00
    7   11   20      0.84      0.00
    8   11   20      1.09      0.00
    9   11   20     -6.36      0.00
   10   11   20     -8.95      0.00
   11   11   20    -11.07      0.00
    0   12   20     -3.86      0.00
    1   12   20      0.91      0.00
    2   12   20    -11.53      0.00
    3   12   20     11.39      0.00
    4   12   20      4.12      0.00
    5   12   20     -8.86      0.00
    6   12   20      7.86      0.00
    7   12   20    -10.55      0.00
    8   12   20     -6.25      0.00
    9   12   20    -24.37      0.00
   10   12   20    -11.53      0.00
   11   12   20      1.43      0.00
   12   12   20     -3.42      0.00
    1   13   20      5.04      0.00
    2   13   20    -11.37      0.00
    3   13   20     18.06      0.00
    4   13   20     -7.41      0.00
    5   13   20     -2.82      0.00
    6   13   20      6.74      0.00
    7   13   20     -2.91      0.00
    8   13   20      5.20      0.00
    9   13   20     -0.87      0.00
   10   13   20     -7.35      0.00
   11   13   20     32.15      0.00
    0   14   20     29.47      0.00
    1   14   20      4.44      0.00
    2   14   20      5.45      0.00
    3   14   20    -15.97      0.00
    4   14   20      2.64      0.00
    5   14   20     10.90      0.00
    6   14   20    -43.40      0.00
    7   14   20     -8.24      0.00
    8   14   20     -4.13      0.00
    9   14   20      5.34      0.00
   10   14   20      0.04      0.00
    1   15   20     11.19      0.00
    7   15   20    -15.28      0.00
    8   15   20     11.09      0.00
    9   15   20     -4.76      0.00
   10   15   20     -6.50      0.00
    0   16   20     -5.40      0.00
    1   16   20    -10.92      0.00
    2   16   20    -46.46      0.00
    1   17   20     12.88      0.00
    2   17   20      5.78      0.00
    0    1   21      2.20      0.00
    1    2   21     -1.65      0.00
    0    3   21    -10.44      0.00
    1    3   21     15.31      0.00
    2    3   21     -2.42      0.00
    1    4   21      5.69      0.00
    2    4   21      8.18      0.00
    3    4   21      8.91      0.00
    0    5   21     -8.69      0.00
    1    5   21      2.90      0.00
    2    5   21     16.41      0.00
    3    5   21      2.29      0.00
    1    6   21     15.29      0.00
    2    6   21    -15.95      0.00
    3    6   21      4.10      0.00
    4    6   21     -0.40      0.00
    5    6   21     14.84      0.00
    0    7   21    -24.34      0.00
    1    7   21     -0.87      0.00
    2    7   21     10.41      0.00
    3    7   21     -5.68      0.00
    4    7   21     -8.30      0.00
    5    7   21     -5.74      0.00
    6    7   21     20.14      0.00
    1    8   21     19.12      0.00
    2    8   21      7.50      0.00
    3    8   21      8.42      0.00
    4    8   21      8.59      0.00
    5    8   21      1.09      0.00
    6    8   21     -2.37      0.00
    7    8   21      5.17      0.00
    0    9   21     -8.79      0.00
    1    9   21      3.73      0.00
    2    9   21     14.87      0.00
    3    9   21     13.57      0.00
    4    9   21     11.47      0.00
    5    9   21      4.56      0.00
    6    9   21      8.49      0.00
    7    9   21      8.19      0.00
    8    9   21     -3.48      0.00
    1   10   21    -13.64      0.00
    2   10   21    -11.66      0.00
    3   10   21    -11.10      0.00
    4   10   21      6.01      0.00
    5   10   21      7.89      0.00
    6   10   21    -20.62      0.00
    7   10   21      3.27      0.00
    8   10   21      5.40      0.00
    9   10   21     20.47      0.00
    0   11   21      8.14      0.00
    1   11   21      6.34      0.00
    2   11   21      7.14      0.00
    3   11   21     -4.81      0.00
    4   11   21     -4.53      0.00
    5   11   21     -0.90      0.00
    6   11   21     -7.35      0.00
    7   11   21     36.54      0.00
    8   11   21      9.14      0.00
    9   11   21     -7.54      0.00
   10   11   21      9.10      0.00
    1   12   21    -15.97      0.00
    2   12   21      3.14      0.00
    3   12   21      3.82      0.00
    4   12   21     -1.13      0.00
    5   12   21     12.89      0.00
    6   12   21     -6.24      0.00
    7   12   21     -4.03      0.00
    8   12   21    -11.04      0.00
    9   12   21      7.19      0.00
   10   12   21     14.21      0.00
   11   12   21     -5.13      0.00
    0   13   21      9.79      0.00
    1   13   21     19.54      0.00
    2   13   21    -19.55      0.00
    3   13   21     13.62      0.00
    4   13   21      1.49      0.00
    5   13   21     -9.05      0.00
    6   13   21      0.17      0.00
    7   13   21    -47.03      0.00
    8   13   21      4.43      0.00
    9   13   21      0.19      0.00
   10   13   21    -22.31      0.00
    1   14   21     -1.28      0.00
    2   14   21    -10.43      0.00
    3   14   21    -19.00      0.00
    4   14   21      8.25      0.00
    5   14   21      5.97      0.00
    6   14   21      9.54      0.00
    7   14   21     12.46      0.00
    8   14   21    -28.65      0.00
    9   14   21      5.21      0.00
   10   14   21     -1.49      0.00
    6   15   21     13.46      0.00
    7   15   21     23.95      0.00
    8   15   21     10.45      0.00
    9   15   21     20.15      0.00
    0   17   21    -32.23      0.00
    1   17   21     48.29      0.00
    1    1   22      2.48      0.00
    0    2   22      7.16      0.00
    1    2   22     -9.17      0.00
    2    2   22     11.26      0.00
    1    3   22     -8.97      0.00
    2    3   22     -3.47      0.00
    3    3   22     20.09      0.00
    0    4   22      7.03      0.00
    1    4   22      3.35      0.00
    2    4   22      7.66      0.00
    3    4   22      1.37      0.00
    4    4   22     22.67      0.00
    1    5   22      7.13      0.00
    2    5   22     -1.67      0.00
    3    5   22      0.32      0.00
    4    5   22     -8.89      0.00
    5    5   22     -0.70      0.00
    0    6   22    -10.26      0.00
    1    6   22    -17.34      0.00
    2    6   22     -2.26      0.00
    3    6   22      5.96      0.00
    4    6   22     13.93      0.00
    5    6   22     -1.14      0.00
    6    6   22     14.11      0.00
    1    7   22     -5.92      0.00
    2    7   22      8.25      0.00
    3    7   22    -16.34      0.00
    4    7   22     18.83      0.00
    5    7   22     -8.90      0.00
    6    7   22     12.24      0.00
    7    7   22     12.70      0.00
    0    8   22    -11.39      0.00
    1    8   22     -4.38      0.00
    2    8   22     -4.56      0.00
    3    8   22     -7.24      0.00
    4    8   22    -12.13      0.00
    5    8   22     -8.65      0.00
    6    8   22     34.71      0.00
    7    8   22     -0.91      0.00
    8    8   22    -16.40      0.00
    1    9   22    -14.64      0.00
    2    9   22     -2.93      0.00
    3    9   22     11.85      0.00
    4    9   22      2.04      0.00
    5    9   22    -16.09      0.00
    6    9   22     -4.81      0.00
    7    9   22    -23.96      0.00
    8    9   22      5.17      0.00
    9    9   22     16.39      0.00
    0   10   22     -6.45      0.00
    1   10   22    -18.97      0.00
    2   10   22     -6.10      0.00
    3   10   22      4.47      0.00
    4   10   22      8.20      0.00
    5   10   22    -22.44      0.00
    6   10   22     -7.99      0.00
    7   10   22      6.07      0.00
    8   10   22     11.33      0.00
    9   10   22     -2.87      0.00
    1   11   22    -10.34      0.00
    2   11   22    -16.04      0.00
    3   11   22     -9.02      0.00
    4   11   22      3.63      0.00
    5   11   22     -3.55      0.00
    6   11   22      1.37      0.00
    7   11   22     -4.53      0.00
    8   11   22     -3.44      0.00
    9   11   22    -44.48      0.00
   10   11   22      9.00      0.00
   11   11   22     11.12      0.00
    0   12   22     29.84      0.00
    1   12   22     -9.57      0.00
    2   12   22      1.90      0.00
    3   12   22      9.42      0.00
    4   12   22      1.70      0.00
    5   12   22     -7.29      0.00
    6   12   22      1.58      0.00
    7   12   22     -1.95      0.00
    8   12   22      9.71      0.00
    9   12   22     -7.98      0.00
   10   12   22     -1.15      0.00
   11   12   22     12.81      0.00
    1   13   22    -13.41      0.00
    2   13   22     -4.33      0.00
    3   13   22     -5.81      0.00
    4   13   22     -5.42      0.00
    5   13   22     -2.96      0.00
    6   13   22     21.30      0.00
    7   13   22    -11.08      0.00
    8   13   22     18.90      0.00
    9   13   22      9.20      0.00
   10   13   22      2.69      0.00
    2   14   22    -38.14      0.00
    3   14   22      3.83      0.00
    4   14   22    -14.59      0.00
    5   14   22    -10.30      0.00
    6   14   22      1.80      0.00
    7   14   22      0.91      0.00
    8   14   22      3.96      0.00
    9   14   22      5.36      0.00
    4   15   22    -23.86      0.00
    5   15   22    -12.95      0.00
    6   15   22      4.05      0.00
    7   15   22    -16.39      0.00
    8   15   22      6.16      0.00
    1    2   23      8.49      0.00
    0    3   23      5.23      0.00
    1    3   23     -4.06      0.00
    2    3   23    -16.17      0.00
    1    4   23     -4.01      0.00
    2    4   23      5.34      0.00
    3    4   23     -7.51      0.00
    0    5   23     23.05      0.00
    1    5   23     18.64      0.00
    2    5   23      4.61      0.00
    3    5   23     -1.26      0.00
    4    5   23    -13.02      0.00
    1    6   23     -1.64      0.00
    2    6   23    -21.38      0.00
    3    6   23      7.39      0.00
    4    6   23     -3.58      0.00
    5    6   23    -19.73      0.00
    0    7   23      8.13      0.00
    1    7   23      2.19      0.00
    2    7   23     -5.78      0.00
    3    7   23     13.76      0.00
    4    7   23      9.10      0.00
    5    7   23      7.73      0.00
    6    7   23     21.41      0.00
    1    8   23     13.58      0.00
    2    8   23     -0.52      0.00
    3    8   23     -4.03      0.00
    4    8   23    -11.66      0.00
    5    8   23     16.76      0.00
    6    8   23    -11.10      0.00
    7    8   23    -20.49      0.00
    0    9   23      5.94      0.00
    1    9   23     -8.53      0.00
    2    9   23     -7.88      0.00
    3    9   23     -2.79      0.00
    4    9   23     -3.13      0.00
    5    9   23    -20.21      0.00
    6    9   23      2.38      0.00
    7    9   23     -6.18      0.00
    8    9   23     12.54      0.00
    1   10   23      1.65      0.00
    2   10   23     10.29      0.00
    3   10   23    -11.65      0.00
    4   10   23      4.99      0.00
    5   10   23     20.16      0.00
    6   10   23     11.36      0.00
    7   10   23     -8.00      0.00
    8   10   23    -13.90      0.00
    9   10   23     18.63      0.00
    0   11   23     18.82      0.00
    1   11   23      5.17      0.00
    2   11   23      8.55      0.00
    3   11   23     13.63      0.00
    4   11   23    -19.66      0.00
    5   11   23     17.60      0.00
    6   11   23     14.70      0.00
    7   11   23      2.66      0.00
    8   11   23    -22.74      0.00
    9   11   23     -0.21      0.00
   10   11   23     12.27      0.00
    1   12   23      5.43      0.00
    2   12   23    -32.96      0.00
    3   12   23     13.01      0.00
    4   12   23    -14.60      0.00
    5   12   23     -0.53      0.00
    6   12   23      0.52      0.00
    7   12   23      3.85      0.00
    8   12   23     -8.43      0.00
    9   12   23     -5.37      0.00
   10   12   23      3.12      0.00
    0   13   23     29.16      0.00
    1   13   23    -16.25      0.00
    2   13   23     21.19      0.00
    3   13   23     -1.00      0.00
    4   13   23     20.73      0.00
    5   13   23     10.66      0.00
    6   13   23    -13.89      0.00
    7   13   23      8.93      0.00
    8   13   23      4.76      0.00
    9   13   23     -2.43      0.00
    2   14   23     14.27      0.00
    3   14   23     19.85      0.00
    4   14   23     -4.00      0.00
    5   14   23     -7.37      0.00
    6   14   23     11.25      0.00
    7   14   23      7.20      0.00
    8   14   23     -5.09      0.00
    3   15   23     -4.00      0.00
    4   15   23     12.32      0.00
    5   15   23     -3.00      0.00
    6   15   23      5.18      0.00
    7   15   23     14.62      0.00
    0    2   24     20.81      0.00
    1    2   24    -11.23      0.00
    2    2   24      2.59      0.00
    1    3   24     56.45      0.00
    2    3   24    -24.01      0.00
    3    3   24    -14.12      0.00
    0    4   24      0.38      0.00
    1    4   24    -37.44      0.00
    2    4   24    -18.03      0.00
    3    4   24    -25.13      0.00
    4    4   24      3.22      0.00
    1    5   24    -53.04      0.00
    2    5   24     16.30      0.00
    3    5   24     -4.09      0.00
    4    5   24     -6.47      0.00
    5    5   24     16.81      0.00
    0    6   24    -18.31      0.00
    1    6   24     14.01      0.00
    2    6   24     -4.03      0.00
    3    6   24      4.42      0.00
    4    6   24      3.76      0.00
    5    6   24     13.30      0.00
    6    6   24     -1.10      0.00
    1    7   24      2.78      0.00
    2    7   24     -1.42      0.00
    3    7   24      8.18      0.00
    4    7   24     -8.51      0.00
    5    7   24     -1.08      0.00
    6    7   24    -12.85      0.00
    7    7   24    -98.79      0.00
    0    8   24      4.25      0.00
    1    8   24     22.47      0.00
    2    8   24      5.66      0.00
    3    8   24      7.24      0.00
    4    8   24      1.14      0.00
    5    8   24    -10.84      0.00
    6    8   24      7.10      0.00
    7    8   24     -3.39      0.00
    8    8   24      0.17      0.00
    1    9   24      0.21      0.00
    2    9   24      9.90      0.00
    3    9   24      1.77      0.00
    4    9   24     24.78      0.00
    5    9   24    -19.09      0.00
    6    9   24     -6.23      0.00
    7    9   24      2.48      0.00
    8    9   24    -11.65      0.00
    9    9   24     13.83      0.00
    0   10   24      0.08      0.00
    1   10   24     12.65      0.00
    2   10   24      0.34      0.00
    3   10   24     -6.17      0.00
    4   10   24     17.25      0.00
    5   10   24     18.13      0.00
    6   10   24    -20.18      0.00
    7   10   24      5.66      0.00
    8   10   24      2.71      0.00
    9   10   24      1.78      0.00
   10   10   24    -18.63      0.00
    1   11   24     16.71      0.00
    2   11   24     26.33      0.00
    3   11   24    -33.21      0.00
    4   11   24    -10.33      0.00
    5   11   24    -10.32      0.00
    6   11   24      1.95      0.00
    7   11   24    -52.79      0.00
    8   11   24     -1.57      0.00
    9   11   24     -8.66      0.00
   10   11   24     24.44      0.00
    0   12   24     21.57      0.00
    1   12   24     23.70      0.00
    2   12   24     -2.56      0.00
    3   12   24    -23.09      0.00
    4   12   24    -10.49      0.00
    5   12   24    -13.89      0.00
    6   12   24     10.06      0.00
    7   12   24      3.51      0.00
    8   12   24     20.50      0.00
    9   12   24     14.85      0.00
    1   13   24   -114.10      0.00
    2   13   24    -12.86      0.00
    3   13   24      2.24      0.00
    4   13   24      4.80      0.00
    5   13   24      0.25      0.00
    6   13   24      7.67      0.00
    7   13   24      1.36      0.00
    8   13   24    -27.92      0.00
    2   14   24     -4.05      0.00
    3   14   24     22.30      0.00
    4   14   24      1.40      0.00
    5   14   24      7.31      0.00
    6   14   24      4.74      0.00
    7   14   24    -11.50      0.00
    3   15   24    -10.82      0.00
    4   15   24      5.75      0.00
    5   15   24     -3.56      0.00
    6   15   24      9.67      0.00
    1    2   25    -28.43      0.00
    1    3   25      0.81      0.00
    2    3   25     -2.26      0.00
    1    4   25     -3.61      0.00
    2    4   25      3.91      0.00
    3    4   25     -4.13      0.00
    0    5   25     65.10      0.00
    1    5   25      6.20      0.00
    2    5   25     -1.04      0.00
    3    5   25      0.10      0.00
    4    5   25     14.84      0.00
    1    6   25     18.32      0.00
    2    6   25     -8.81      0.00
    3    6   25      7.61      0.00
    4    6   25     16.85      0.00
    5    6   25      9.32      0.00
    0    7   25    -19.84      0.00
    1    7   25      4.93      0.00
    2    7   25     35.09      0.00
    3    7   25     13.70      0.00
    4    7   25    -22.55      0.00
    5    7   25      3.90      0.00
    6    7   25      0.89      0.00
    1    8   25    -14.93      0.00
    2    8   25      4.94      0.00
    3    8   25     -3.41      0.00
    4    8   25    -36.52      0.00
    5    8   25     -2.28      0.00
    6    8   25      4.84      0.00
    7    8   25     -7.51      0.00
    0    9   25     10.96      0.00
    1    9   25    -29.59      0.00
    2    9   25    -15.43      0.00
    3    9   25     -6.95      0.00
    4    9   25     -2.50      0.00
    5    9   25      3.09      0.00
    6    9   25     12.43      0.00
    7    9   25      3.42      0.00
    8    9   25     11.51      0.00
    1   10   25     -1.97      0.00
    2   10   25     14.16      0.00
    3   10   25     10.30      0.00
    4   10   25     -3.16      0.00
    5   10   25     -1.60      0.00
    6   10   25      0.21      0.00
    7   10   25      0.17      0.00
    8   10   25     -2.86      0.00
    9   10   25     -1.73      0.00
    0   11   25      2.83      0.00
    1   11   25     23.72      0.00
    2   11   25    -15.35      0.00
    3   11   25    -31.38      0.00
    4   11   25      3.53      0.00
    5   11   25     -5.69      0.00
    6   11   25     33.96      0.00
    7   11   25      3.00      0.00
    8   11   25     14.90      0.00
    9   11   25    -22.71      0.00
    1   12   25     18.41      0.00
    2   12   25    -24.05      0.00
    3   12   25     57.80      0.00
    4   12   25    -19.82      0.00
    5   12   25      0.71      0.00
    6   12   25     -1.03      0.00
    7   12   25      4.07      0.00
    8   12   25      3.89      0.00
    0   13   25    -17.37      0.00
    1   13   25     16.86      0.00
    2   13   25     27.49      0.00
    3   13   25     -4.01      0.00
    4   13   25     -2.88      0.00
    5   13   25      1.78      0.00
    6   13   25     10.72      0.00
    7   13   25     21.56      0.00
    3   14   25    -25.17      0.00
    4   14   25    -13.17      0.00
    5   14   25      3.90      0.00
    6   14   25    -28.18      0.00
    3   15   25      3.79      0.00
    4   15   25      0.91      0.00
    0    2   26    -30.40      0.00
    1    2   26      5.96      0.00
    2    2   26      0.08      0.00
    1    3   26      9.94      0.00
    2    3   26      8.30      0.00
    3    3   26     16.45      0.00
    0    4   26    -19.94      0.00
    1    4   26      3.81      0.00
    2    4   26      8.50      0.00
    3    4   26     -5.61      0.00
    4    4   26    -12.35      0.00
    1    5   26    -14.29      0.00
    2    5   26      1.04      0.00
    3    5   26     -4.16      0.00
    4    5   26     -2.12      0.00
    5    5   26    -16.25      0.00
    0    6   26    -15.92      0.00
    1    6   26    -14.25      0.00
    2    6   26     -1.20      0.00
    3    6   26     -6.53      0.00
    4    6   26    -11.09      0.00
    5    6   26      0.43      0.00
    6    6   26     -1.51      0.00
    1    7   26     -4.74      0.00
    2    7   26      0.89      0.00
    3    7   26     -5.69      0.00
    4    7   26    -24.27      0.00
    5    7   26      1.81      0.00
    6    7   26      7.85      0.00
    7    7   26     20.74      0.00
    0    8   26     66.49      0.00
    1    8   26    -63.30      0.00
    2    8   26    -21.63      0.00
    3    8   26      4.11      0.00
    4    8   26      8.25      0.00
    5    8   26     19.52      0.00
    6    8   26     18.05      0.00
    7    8   26     -3.43      0.00
    8    8   26     10.72      0.00
    1    9   26      1.77      0.00
    2    9   26    -34.46      0.00
    3    9   26     22.84      0.00
    4    9   26     -4.68      0.00
    5    9   26     -3.24      0.00
    6    9   26      0.31      0.00
    7    9   26      1.22      0.00
    8    9   26      3.31      0.00
    9    9   26    -10.70      0.00
    0   10   26      6.46      0.00
    1   10   26     16.75      0.00
    2   10   26      1.11      0.00
    3   10   26     -7.47      0.00
    4   10   26     -1.66      0.00
    5   10   26      9.27      0.00
    7   10   26     10.74      0.00
    8   10   26      8.41      0.00
    9   10   26     -2.06      0.00
    1   11   26     -2.71      0.00
    2   11   26    -21.06      0.00
    3   11   26    -17.71      0.00
    4   11   26     64.04      0.00
    5   11   26     -0.76      0.00
    6   11   26     11.08      0.00
    7   11   26    -10.94      0.00
    8   11   26     -5.27      0.00
    0   12   26     67.10      0.00
    1   12   26      1.50      0.00
    2   12   26      0.20      0.00
    3   12   26     11.75      0.00
    4   12   26     -1.11      0.00
    5   12   26     14.04      0.00
    6   12   26    -10.86      0.00
    7   12   26     -5.94      0.00
    1   13   26    -23.94      0.00
    2   13   26     10.32      0.00
    3   13   26      2.06      0.00
    4   13   26      3.02      0.00
    5   13   26     -2.54      0.00
    6   13   26    -14.62      0.00
    1   14   26      3.78      0.00
    2   14   26     19.89      0.00
    3   14   26     18.55      0.00
    4   14   26    -20.49      0.00
    1    2   27    -10.05      0.00
    0    3   27     23.12      0.00
    1    3   27     31.29      0.00
    2    3   27     -9.78      0.00
    1    4   27     10.14      0.00
    2    4   27      8.94      0.00
    3    4   27      8.52      0.00
    0    5   27    -14.46      0.00
    1    5   27      3.79      0.00
    2    5   27     13.15      0.00
    3    5   27     -0.90      0.00
    4    5   27    -20.88      0.00
    1    6   27      6.47      0.00
    2    6   27     -2.47      0.00
    3    6   27     -0.18      0.00
    4    6   27     10.22      0.00
    5    6   27     13.42      0.00
    0    7   27     16.94      0.00
    1    7   27     15.35      0.00
    2    7   27    -22.09      0.00
    3    7   27      3.28      0.00
    4    7   27      4.86      0.00
    5    7   27     -1.15      0.00
    6    7   27    -14.98      0.00
    1    8   27    -50.04      0.00
    2    8   27     64.01      0.00
    3    8   27      1.41      0.00
    4    8   27     -4.13      0.00
    5    8   27      4.47      0.00
    6    8   27     -6.53      0.00
    7    8   27     -7.69      0.00
    0    9   27     30.83      0.00
    1    9   27    -26.59      0.00
    2    9   27     -0.29      0.00
    3    9   27     -5.49      0.00
    4    9   27      2.06      0.00
    5    9   27      1.23      0.00
    6    9   27     22.10      0.00
    7    9   27     -1.39      0.00
    8    9   27      7.22      0.00
    1   10   27    -20.44      0.00
    2   10   27     27.27      0.00
    3   10   27     -3.95      0.00
    4   10   27    -17.50      0.00
    5   10   27    -18.09      0.00
    6   10   27    -14.78      0.00
    7   10   27    -12.40      0.00
    8   10   27     -8.71      0.00
    0   11   27    -69.44      0.00
    1   11   27    -21.19      0.00
    2   11   27      3.61      0.00
    3   11   27     -2.81      0.00
    4   11   27     -9.56      0.00
    5   11   27     12.58      0.00
    6   11   27    -15.22      0.00
    7   11   27     -6.61      0.00
    1   12   27     -1.18      0.00
    2   12   27    -10.25      0.00
    3   12   27     19.13      0.00
    4   12   27     26.11      0.00
    5   12   27    -17.39      0.00
    6   12   27    -35.11      0.00
    0   13   27    -38.02      0.00
    1   13   27    -12.89      0.00
    2   13   27     -8.49      0.00
    3   13   27      3.64      0.00
    4   13   27     -9.74      0.00
    1   14   27     33.52      0.00
    1    3   28      6.25      0.00
    2    3   28     -3.08      0.00
    3    3   28      1.77      0.00
    0    4   28    -18.63      0.00
    1    4   28    -11.05      0.00
    2    4   28     -1.47      0.00
    3    4   28     17.06      0.00
    4    4   28      1.68      0.00
    1    5   28     -5.30      0.00
    2    5   28    -22.00      0.00
    3    5   28     -4.02      0.00
    4    5   28      8.06      0.00
    5    5   28     -1.32      0.00
    0    6   28    -25.40      0.00
    1    6   28     -6.68      0.00
    2    6   28     10.53      0.00
    3    6   28     -7.53      0.00
    4    6   28     -6.22      0.00
    5    6   28      6.53      0.00
    6    6   28     22.69      0.00
    1    7   28     19.02      0.00
    2    7   28     11.45      0.00
    3    7   28      6.27      0.00
    4    7   28      6.80      0.00
    5    7   28      3.07      0.00
    6    7   28      8.34      0.00
    7    7   28    -12.63      0.00
    0    8   28     19.10      0.00
    1    8   28     17.99      0.00
    2    8   28      3.36      0.00
    3    8   28     22.75      0.00
    4    8   28     -2.01      0.00
    5    8   28     12.55      0.00
    7    8   28     -4.09      0.00
    8    8   28     16.82      0.00
    1    9   28    -45.98      0.00
    2    9   28     15.53      0.00
    3    9   28     13.21      0.00
    4    9   28      9.46      0.00
    5    9   28    -13.75      0.00
    6    9   28      1.33      0.00
    7    9   28      6.23      0.00
    8    9   28     -8.36      0.00
    1   10   28    236.76      0.00
    2   10   28     29.01      0.00
    3   10   28    -46.39      0.00
    4   10   28    -11.96      0.00
    5   10   28    -16.31      0.00
    6   10   28     13.09      0.00
    7   10   28     14.00      0.00
    1   11   28     17.98      0.00
    2   11   28     -9.19      0.00
    3   11   28    -12.63      0.00
    4   11   28     -4.19      0.00
    5   11   28     14.91      0.00
    6   11   28    -17.05      0.00
    0   12   28     18.77      0.00
    1   12   28    -30.89      0.00
    2   12   28     11.31      0.00
    3   12   28      5.85      0.00
    4   12   28    -14.18      0.00
    1   13   28     -5.92      0.00
    2   13   28    -10.82      0.00
    0    3   29      2.86      0.00
    1    3   29    -23.36      0.00
    2    3   29      6.52      0.00
    1    4   29     12.59      0.00
    2    4   29    -16.25      0.00
    3    4   29      6.67      0.00
    0    5   29      1.77      0.00
    1    5   29     26.27      0.00
    2    5   29    -27.60      0.00
    3    5   29     -7.97      0.00
    4    5   29     16.56      0.00
    1    6   29      2.21      0.00
    2    6   29      7.92      0.00
    3    6   29     10.39      0.00
    4    6   29     11.39      0.00
    5    6   29     18.01      0.00
    0    7   29    -16.95      0.00
    1    7   29      4.80      0.00
    2    7   29     10.28      0.00
    3    7   29    -14.76      0.00
    4    7   29    -16.13      0.00
    5    7   29      5.92      0.00
    6    7   29      2.53      0.00
    1    8   29     23.23      0.00
    2    8   29      0.55      0.00
    3    8   29    -24.36      0.00
    4    8   29    -38.86      0.00
    5    8   29    -24.02      0.00
    6    8   29     13.84      0.00
    7    8   29     10.66      0.00
    0    9   29    217.33      0.00
    1    9   29   -286.06      0.00
    2    9   29     19.92      0.00
    3    9   29      5.97      0.00
    4    9   29      5.06      0.00
    5    9   29     16.26      0.00
    6    9   29     -3.30      0.00
    7    9   29     14.01      0.00
    1   10   29    -10.02      0.00
    2   10   29     -8.26      0.00
    3   10   29     21.61      0.00
    4   10   29     -2.88      0.00
    5   10   29      9.82      0.00
    6   10   29    -10.81      0.00
    0   11   29     17.64      0.00
    1   11   29      5.92      0.00
    2   11   29     -6.82      0.00
    3   11   29     10.75      0.00
    4   11   29      5.04      0.00
    1   12   29     21.84      0.00
    2   12   29      7.22      0.00
    3   12   29     -9.62      0.00
    1   13   29      4.46      0.00
    1    3   30     15.43      0.00
    2    3   30      2.04      0.00
    3    3   30     10.84      0.00
    0    4   30     -8.39      0.00
    1    4   30     -4.56      0.00
    2    4   30     -1.74      0.00
    3    4   30      6.09      0.00
    4    4   30     11.71      0.00
    1    5   30      9.93      0.00
    2    5   30    -24.89      0.00
    3    5   30      8.98      0.00
    4    5   30      5.42      0.00
    5    5   30     19.10      0.00
    0    6   30    -22.58      0.00
    1    6   30     -3.15      0.00
    2    6   30      5.37      0.00
    3    6   30     -3.57      0.00
    4    6   30     11.16      0.00
    5    6   30    -31.76      0.00
    6    6   30     -2.19      0.00
    1    7   30     15.28      0.00
    2    7   30     17.63      0.00
    3    7   30      8.60      0.00
    4    7   30    -30.52      0.00
    5    7   30     -1.92      0.00
    6    7   30     -6.77      0.00
    7    7   30      6.26      0.00
    1    8   30     48.86      0.00
    2    8   30      6.03      0.00
    3    8   30     12.32      0.00
    4    8   30      2.88      0.00
    5    8   30     14.04      0.00
    6    8   30     12.70      0.00
    7    8   30     -8.57      0.00
    1    9   30    -40.78      0.00
    2    9   30    -22.95      0.00
    3    9   30    -19.27      0.00
    4    9   30      9.85      0.00
    5    9   30     18.31      0.00
    6    9   30     -8.22      0.00
    0   10   30    -37.00      0.00
    1   10   30     27.24      0.00
    2   10   30      0.47      0.00
    3   10   30    -15.50      0.00
    4   10   30     14.83      0.00
    1   11   30     -3.64      0.00
    2   11   30    -41.15      0.00
    3   11   30      1.96      0.00
    1   12   30      8.38      0.00
    1    4   31     -0.73      0.00
    2    4   31     16.58      0.00
    3    4   31      0.64      0.00
    0    5   31    -13.06      0.00
    1    5   31     -4.39      0.00
    2    5   31     13.75      0.00
    3    5   31     11.13      0.00
    4    5   31    -81.50      0.00
    1    6   31     13.04      0.00
    2    6   31    -47.32      0.00
    3    6   31    -20.77      0.00
    4    6   31     17.10      0.00
    5    6   31     -4.81      0.00
    0    7   31    -14.78      0.00
    1    7   31      6.55      0.00
    2    7   31      1.92      0.00
    3    7   31      6.04      0.00
    4    7   31      8.71      0.00
    5    7   31      7.16      0.00
    6    7   31      3.96      0.00
    1    8   31    -18.35      0.00
    2    8   31     46.18      0.00
    3    8   31      4.76      0.00
    4    8   31      3.18      0.00
    5    8   31     -5.14      0.00
    0    9   31     35.90      0.00
    1    9   31    -10.23      0.00
    2    9   31      5.69      0.00
    3    9   31      8.43      0.00
    4    9   31     -9.64      0.00
    1   10   31    -26.87      0.00
    2   10   31     44.13      0.00
    3   10   31    -14.22      0.00
    1   11   31     29.10      0.00
    2   11   31     13.12      0.00
    1    4   32     15.54      0.00
    2    4   32    -34.56      0.00
    4    4   32     17.95      0.00
    1    5   32      5.11      0.00
    2    5   32     20.71      0.00
    3    5   32     19.52      0.00
    4    5   32     13.61      0.00
    5    5   32     20.84      0.00
    0    6   32     17.88      0.00
    1    6   32      7.19      0.00
    2    6   32    -18.82      0.00
    3    6   32     11.34      0.00
    4    6   32     -4.87      0.00
    5    6   32      6.96      0.00
    6    6   32      1.88      0.00
    1    7   32     -3.12      0.00
    2    7   32      2.21      0.00
    3    7   32      5.35      0.00
    4    7   32     -0.83      0.00
    5    7   32      1.22      0.00
    0    8   32    -20.55      0.00
    1    8   32     -4.17      0.00
    2    8   32    -12.45      0.00
    3    8   32     10.50      0.00
    4    8   32      6.65      0.00
    1    9   32     24.90      0.00
    2    9   32     -2.04      0.00
    3    9   32     -2.49      0.00
    1   10   32    -27.79      0.00
    2   10   32      6.29      0.00
    1    4   33      2.70      0.00
    2    4   33     -1.25      0.00
    0    5   33      8.14      0.00
    1    5   33    -71.37      0.00
    2    5   33     -0.32      0.00
    3    5   33     20.40      0.00
    4    5   33     -4.40      0.00
    1    6   33     -4.58      0.00
    2    6   33    -13.04      0.00
    3    6   33     11.46      0.00
    4    6   33    -25.52      0.00
    0    7   33     17.41      0.00
    1    7   33     11.16      0.00
    2    7   33    -19.99      0.00
    3    7   33     -7.58      0.00
    4    7   33      8.23      0.00
    1    8   33      8.00      0.00
    2    8   33     -6.86      0.00
    3    8   33     -2.84      0.00
    1    9   33     10.29      0.00
    1    5   34      6.73      0.00
    2    5   34      8.86      0.00
    3    5   34      3.14      0.00
    4    5   34     10.82      0.00
    0    6   34     -0.81      0.00
    1    6   34     16.16      0.00
    2    6   34     10.35      0.00
    3    6   34      1.88      0.00
    1    7   34     13.30      0.00
    2    7   34      0.32      0.00
    1    8   34      3.85      0.00
    1    5   35    -20.53      0.00
    1    6   35      4.96      0.00
    1    1    0    -82.17      0.00
    2    2    0    204.44      0.00
    3    3    0    103.42      0.00
    3    4    0      3.84      0.00
    4    4    0      3.49      0.00
    4    5    0     26.64      0.00
    5    5    0      8.44      0.00
    5    6    0     29.37      0.00
    6    6    0     56.66      0.00
    5    7    0    -61.71      0.00
    6    7    0     -3.17      0.00
    7    7    0    -16.16      0.00
    6    8    0      8.55      0.00
    7    8    0      0.42      0.00
    8    8    0    -53.84      0.00
    6    9    0      5.65      0.00
    7    9    0     27.11      0.00
    8    9    0     40.77      0.00
    9    9    0     -8.32      0.00
    6   10    0     41.07      0.00
    7   10    0      4.37      0.00
    8   10    0     34.52      0.00
    9   10    0     56.42      0.00
   10   10    0    -54.02      0.00
    7   11    0    -20.63      0.00
    8   11    0     -3.58      0.00
    9   11    0     49.26      0.00
   10   11    0    -25.19      0.00
   11   11    0    -21.31      0.00
    7   12    0     29.55      0.00
    8   12    0     26.49      0.00
    9   12    0    -18.29      0.00
   10   12    0    -16.49      0.00
   11   12    0     -8.54      0.00
   12   12    0     16.34      0.00
    3   13    0     35.60      0.00
    6   13    0    -52.71      0.00
    7   13    0     11.91      0.00
    8   13    0     -1.57      0.00
    9   13    0      0.78      0.00
   10   13    0    -15.74      0.00
   11   13    0    -30.06      0.00
   12   13    0    -31.64      0.00
   13   13    0     17.69      0.00
    7   14    0    -30.89      0.00
    8   14    0    -53.55      0.00
    9   14    0      2.49      0.00
   10   14    0     16.47      0.00
   11   14    0     -2.61      0.00
   12   14    0     13.70      0.00
   13   14    0     28.74      0.00
   14   14    0     30.25      0.00
    7   15    0     16.62      0.00
    8   15    0     12.17      0.00
    9   15    0     12.35      0.00
   10   15    0    -11.07      0.00
   11   15    0      4.19      0.00
   12   15    0    -14.04      0.00
   13   15    0     14.05      0.00
   14   15    0    -21.84      0.00
   15   15    0    -21.39      0.00
    8   16    0    -28.36      0.00
    9   16    0    -10.44      0.00
   10   16    0      6.65      0.00
   11   16    0    -15.01      0.00
   12   16    0     20.21      0.00
   13   16    0     32.70      0.00
   14   16    0    -21.84      0.00
    8   17    0    -61.33      0.00
    9   17    0      2.93      0.00
   10   17    0    -13.43      0.00
   11   17    0    -25.27      0.00
   12   17    0    -20.28      0.00
   13   17    0     10.11      0.00
    8   18    0      6.74      0.00
    9   18    0     43.30      0.00
   10   18    0     14.18      0.00
   11   18    0      1.24      0.00
    8   19    0      5.51      0.00
    9   19    0     -7.68      0.00
   10   19    0    -29.89      0.00
    7   20    0      4.01      0.00
    8   20    0     22.95      0.00
    0    1    1   -566.80      0.00
    4    5    1    -19.16      0.00
    5    6    1     -9.46      0.00
    5    7    1     -1.05      0.00
    6    7    1     20.61      0.00
    6    8    1     -0.49      0.00
    7    8    1    -12.59      0.00
    6    9    1     11.53      0.00
    7    9    1     12.16      0.00
    8    9    1     10.50      0.00
    7   10    1    -16.13      0.00
    8   10    1    -58.14      0.00
    9   10    1    -18.47      0.00
    7   11    1     23.83      0.00
    8   11    1    -16.59      0.00
    9   11    1     -6.98      0.00
   10   11    1     36.45      0.00
    1   12    1     13.36      0.00
    7   12    1     19.17      0.00
    8   12    1     -6.69      0.00
    9   12    1     -2.15      0.00
   10   12    1      9.39      0.00
   11   12    1    -25.42      0.00
    4   13    1     48.59      0.00
    6   13    1     31.17      0.00
    7   13    1     -5.01      0.00
    8   13    1      0.83      0.00
    9   13    1     -1.67      0.00
   10   13    1      1.72      0.00
   11   13    1      3.56      0.00
   12   13    1     17.48      0.00
    8   14    1    -38.34      0.00
    9   14    1     -8.68      0.00
   10   14    1     -3.04      0.00
   11   14    1    -20.89      0.00
   12   14    1    -19.19      0.00
   13   14    1    -32.43      0.00
    8   15    1    -28.01      0.00
    9   15    1      4.98      0.00
   10   15    1    -11.59      0.00
   11   15    1     16.58      0.00
   12   15    1     33.81      0.00
   13   15    1     11.35      0.00
   14   15    1     12.40      0.00
    8   16    1     20.64      0.00
    9   16    1      4.70      0.00
   10   16    1    -17.80      0.00
   11   16    1    -19.61      0.00
   12   16    1     -9.99      0.00
   13   16    1    -11.97      0.00
   14   16    1     -9.87      0.00
    8   17    1     -8.72      0.00
    9   17    1     -2.02      0.00
   10   17    1      1.07      0.00
   11   17    1     -1.88      0.00
   12   17    1     -1.24      0.00
   13   17    1    -23.19      0.00
    8   18    1    -24.76      0.00
    9   18    1      4.20      0.00
   10   18    1      5.77      0.00
   11   18    1     13.85      0.00
    8   19    1    -17.82      0.00
    9   19    1      8.84      0.00
   10   19    1     -2.30      0.00
    7   20    1     -5.32      0.00
    8   20    1    -11.97      0.00
    0    0    2    618.43      0.00
    4    4    2    -69.65      0.00
    4    5    2     -4.08      0.00
    5    5    2    -26.68      0.00
    5    6    2     -8.97      0.00
    6    6    2      2.82      0.00
    6    7    2    -12.25      0.00
    7    7    2     -5.07      0.00
    6    8    2      5.22      0.00
    7    8    2    -21.45      0.00
    8    8    2    -18.16      0.00
    7    9    2     11.27      0.00
    8    9    2      7.73      0.00
    9    9    2      5.46      0.00
    7   10    2      0.36      0.00
    8   10    2     -1.83      0.00
    9   10    2     19.99      0.00
   10   10    2    -27.61      0.00
    7   11    2    -35.04      0.00
    8   11    2     -5.64      0.00
    9   11    2     -1.25      0.00
   10   11    2      2.91      0.00
   11   11    2     20.34      0.00
    0   12    2     25.48      0.00
    8   12    2      8.09      0.00
    9   12    2      8.47      0.00
   10   12    2     14.43      0.00
   11   12    2      2.44      0.00
   12   12    2      5.03      0.00
    7   13    2     37.08      0.00
    8   13    2     -8.05      0.00
    9   13    2      9.93      0.00
   10   13    2    -13.88      0.00
   11   13    2    -22.56      0.00
   12   13    2     -4.25      0.00
   13   13    2    -11.37      0.00
    8   14    2    -29.34      0.00
    9   14    2     -4.36      0.00
   10   14    2      9.05      0.00
   11   14    2     12.75      0.00
   12   14    2     -7.79      0.00
   13   14    2     21.78      0.00
   14   14    2    -14.05      0.00
    8   15    2    -10.81      0.00
    9   15    2     10.07      0.00
   10   15    2     29.91      0.00
   11   15    2    -20.65      0.00
   12   15    2    -11.24      0.00
   13   15    2     -5.07      0.00
   14   15    2    -16.81      0.00
   15   15    2     19.24      0.00
    8   16    2     24.88      0.00
    9   16    2      1.71      0.00
   10   16    2     26.36      0.00
   11   16    2     17.53      0.00
   12   16    2    -12.56      0.00
   13   16    2     11.14      0.00
   14   16    2     -3.13      0.00
    8   17    2     18.03      0.00
    9   17    2     13.94      0.00
   10   17    2      5.01      0.00
   11   17    2    -26.97      0.00
   12   17    2     -2.88      0.00
   13   17    2      2.86      0.00
    8   18    2    -17.14      0.00
    9   18    2      6.96      0.00
   10   18    2    -11.40      0.00
   11   18    2      7.02      0.00
    8   19    2     -0.26      0.00
    9   19    2     -3.62      0.00
   10   19    2    -17.97      0.00
    8   20    2     16.50      0.00
    6    7    3     15.59      0.00
    7    8    3     -9.64      0.00
    7    9    3     10.87      0.00
    8    9    3     15.08      0.00
    7   10    3     -8.17      0.00
    8   10    3     -9.66      0.00
    9   10    3    -13.04      0.00
    8   11    3    -21.34      0.00
    9   11    3      8.13      0.00
   10   11    3      6.03      0.00
    8   12    3     -1.60      0.00
    9   12    3     18.31      0.00
   10   12    3      0.72      0.00
   11   12    3      3.79      0.00
    7   13    3     10.50      0.00
    8   13    3     -5.97      0.00
    9   13    3     31.43      0.00
   10   13    3     -6.17      0.00
   11   13    3     -1.17      0.00
   12   13    3     31.25      0.00
    8   14    3    -20.25      0.00
    9   14    3     25.18      0.00
   10   14    3     17.35      0.00
   11   14    3     12.32      0.00
   12   14    3     -9.71      0.00
   13   14    3     15.16      0.00
    8   15    3     -7.37      0.00
    9   15    3     23.12      0.00
   10   15    3     29.48      0.00
   11   15    3      7.70      0.00
   12   15    3     19.09      0.00
   13   15    3     23.77      0.00
   14   15    3      1.31      0.00
    8   16    3     14.08      0.00
    9   16    3      2.83      0.00
   10   16    3    -13.15      0.00
   11   16    3     -6.32      0.00
   12   16    3     11.99      0.00
   13   16    3     -2.88      0.00
   14   16    3     16.19      0.00
    8   17    3     -2.83      0.00
    9   17    3      1.45      0.00
   10   17    3      7.97      0.00
   11   17    3     -2.84      0.00
   12   17    3      5.79      0.00
   13   17    3     12.64      0.00
    8   18    3     -0.93      0.00
    9   18    3     -6.40      0.00
   10   18    3     14.64      0.00
   11   18    3     22.79      0.00
    0   19    3   -175.35      0.00
    1   19    3     26.30      0.00
    8   19    3     -3.46      0.00
    9   19    3     -5.46      0.00
   10   19    3     -2.96      0.00
    6    6    4     31.79      0.00
    7    7    4     16.99      0.00
    7    8    4    -13.18      0.00
    8    8    4    -32.71      0.00
    7    9    4     -6.07      0.00
    8    9    4     22.60      0.00
    9    9    4     32.14      0.00
    8   10    4     25.92      0.00
    9   10    4      0.69      0.00
   10   10    4     -1.04      0.00
    8   11    4     15.66      0.00
    9   11    4    -15.66      0.00
   10   11    4      3.10      0.00
   11   11    4    -24.01      0.00
    8   12    4      0.33      0.00
    9   12    4     32.33      0.00
   10   12    4     21.94      0.00
   11   12    4      6.10      0.00
   12   12    4      5.70      0.00
    7   13    4      9.09      0.00
    8   13    4     28.59      0.00
    9   13    4      3.22      0.00
   10   13    4      4.35      0.00
   11   13    4     -9.66      0.00
   12   13    4    -12.60      0.00
   13   13    4    -10.43      0.00
    9   14    4      7.31      0.00
   10   14    4     -9.84      0.00
   11   14    4     11.37      0.00
   12   14    4      3.04      0.00
   13   14    4     -7.41      0.00
   14   14    4    -25.82      0.00
    8   15    4    -14.43      0.00
    9   15    4    -13.73      0.00
   10   15    4      6.09      0.00
   11   15    4     10.94      0.00
   12   15    4    -10.75      0.00
   13   15    4      2.39      0.00
   14   15    4     -4.59      0.00
   15   15    4     17.35      0.00
    8   16    4    -20.14      0.00
    9   16    4    -28.31      0.00
   10   16    4      4.12      0.00
   11   16    4    -13.33      0.00
   12   16    4     22.23      0.00
   13   16    4    -27.90      0.00
   14   16    4    -12.03      0.00
    8   17    4     20.17      0.00
    9   17    4    -21.92      0.00
   10   17    4     23.96      0.00
   11   17    4     -3.79      0.00
   12   17    4     17.66      0.00
   13   17    4      7.44      0.00
    7   18    4    -32.11      0.00
    8   18    4     -1.77      0.00
    9   18    4     -6.34      0.00
   10   18    4     -0.17      0.00
   11   18    4    -17.43      0.00
    7   19    4      1.91      0.00
    8   19    4     -6.22      0.00
    9   19    4      7.38      0.00
   10   19    4      9.18      0.00
    7   20    4     -7.28      0.00
    8    9    5      9.76      0.00
    8   10    5      3.20      0.00
    9   10    5     14.79      0.00
    8   11    5     22.59      0.00
    9   11    5    -22.01      0.00
   10   11    5    -45.60      0.00
    9   12    5      1.50      0.00
   10   12    5     -6.89      0.00
   11   12    5     -6.02      0.00
    8   13    5    -21.53      0.00
    9   13    5     -2.43      0.00
   10   13    5      4.82      0.00
   11   13    5     -7.94      0.00
   12   13    5    -16.94      0.00
    8   14    5    -28.62      0.00
    9   14    5     12.74      0.00
   10   14    5    -14.77      0.00
   11   14    5     -5.95      0.00
   12   14    5      3.42      0.00
   13   14    5     -6.17      0.00
    8   15    5     33.28      0.00
    9   15    5    -23.54      0.00
   10   15    5     -9.15      0.00
   11   15    5    -15.22      0.00
   12   15    5    -16.72      0.00
   13   15    5     -8.62      0.00
   14   15    5      1.77      0.00
    8   16    5      3.10      0.00
    9   16    5      2.27      0.00
   10   16    5     -9.32      0.00
   11   16    5    -18.74      0.00
   12   16    5     -2.76      0.00
   13   16    5     10.80      0.00
   14   16    5      0.01      0.00
    8   17    5     -5.44      0.00
    9   17    5    -24.13      0.00
   10   17    5    -11.79      0.00
   11   17    5      8.81      0.00
   12   17    5     -7.98      0.00
   13   17    5    -11.81      0.00
    7   18    5      3.74      0.00
    8   18    5     -3.77      0.00
    9   18    5     17.58      0.00
   10   18    5     -8.19      0.00
   11   18    5     -2.45      0.00
    7   19    5    -11.04      0.00
    8   19    5     -1.03      0.00
    9   19    5     -2.79      0.00
    6   20    5     -3.49      0.00
    7   20    5     -4.01      0.00
    8    8    6    -13.38      0.00
    8    9    6     -9.68      0.00
    9    9    6      6.03      0.00
    9   10    6    -16.39      0.00
   10   10    6     -1.47      0.00
    9   11    6    -15.57      0.00
   10   11    6     -2.97      0.00
   11   11    6     39.80      0.00
    9   12    6     26.07      0.00
   10   12    6      8.26      0.00
   11   12    6     -8.29      0.00
   12   12    6     21.32      0.00
    8   13    6     16.50      0.00
    9   13    6    -21.43      0.00
   10   13    6    -21.98      0.00
   11   13    6     -8.57      0.00
   12   13    6      1.10      0.00
   13   13    6      2.97      0.00
    8   14    6     18.51      0.00
    9   14    6      8.89      0.00
   10   14    6     13.06      0.00
   11   14    6     -4.29      0.00
   12   14    6     -6.45      0.00
   13   14    6     10.84      0.00
   14   14    6     -5.38      0.00
    8   15    6     13.17      0.00
    9   15    6      3.55      0.00
   10   15    6     -2.19      0.00
   11   15    6     12.94      0.00
   12   15    6      2.83      0.00
   13   15    6     -1.82      0.00
   14   15    6     20.33      0.00
   15   15    6     -5.13      0.00
    8   16    6     20.52      0.00
    9   16    6    -13.89      0.00
   10   16    6      1.64      0.00
   11   16    6    -12.77      0.00
   12   16    6    -30.60      0.00
   13   16    6    -13.32      0.00
   14   16    6     -2.09      0.00
    8   17    6     12.83      0.00
    9   17    6    -18.85      0.00
   10   17    6     -5.62      0.00
   11   17    6      4.87      0.00
   12   17    6     34.01      0.00
    8   18    6     13.00      0.00
    9   18    6      6.06      0.00
   10   18    6      6.50      0.00
   11   18    6     -9.21      0.00
    7   19    6    -12.71      0.00
    8   19    6     -3.48      0.00
    9   19    6      8.64      0.00
    5   20    6    -10.07      0.00
    6   20    6     -7.58      0.00
    7   20    6    -13.32      0.00
    9   10    7      1.65      0.00
    9   11    7     12.63      0.00
   10   11    7     -8.37      0.00
    9   12    7    -16.55      0.00
   10   12    7     -7.36      0.00
   11   12    7     22.24      0.00
    8   13    7    -16.88      0.00
    9   13    7     39.41      0.00
   10   13    7      0.97      0.00
   11   13    7     20.20      0.00
   12   13    7     14.44      0.00
    8   14    7     -3.51      0.00
    9   14    7      6.94      0.00
   10   14    7    -17.92      0.00
   11   14    7    -17.57      0.00
   12   14    7     19.22      0.00
   13   14    7     -2.99      0.00
    8   15    7    -19.68      0.00
    9   15    7     11.65      0.00
   10   15    7     -7.34      0.00
   11   15    7    -13.66      0.00
   12   15    7      9.09      0.00
   13   15    7    -11.10      0.00
   14   15    7    -13.41      0.00
    8   16    7     13.87      0.00
    9   16    7     -2.21      0.00
   10   16    7     34.70      0.00
   11   16    7     10.19      0.00
   12   16    7    -16.61      0.00
   13   16    7     16.60      0.00
    8   17    7     -0.40      0.00
    9   17    7     11.11      0.00
   10   17    7     -3.93      0.00
   11   17    7      2.16      0.00
   12   17    7    -16.12      0.00
    5   18    7     43.29      0.00
    8   18    7      5.77      0.00
    9   18    7     14.67      0.00
   10   18    7     -2.84      0.00
   11   18    7     -8.29      0.00
    7   19    7     17.66      0.00
    8   19    7     12.70      0.00
    9   19    7     -8.26      0.00
    4   20    7      2.30      0.00
    5   20    7      7.49      0.00
    6   20    7      7.14      0.00
    7   20    7     21.13      0.00
    9    9    8     -9.12      0.00
    9   10    8     -1.49      0.00
   10   10    8     -9.93      0.00
    9   11    8      3.08      0.00
   10   11    8    -17.65      0.00
   11   11    8      3.77      0.00
    9   12    8     -7.81      0.00
   10   12    8     -7.34      0.00
   11   12    8      8.64      0.00
   12   12    8    -18.63      0.00
    9   13    8     -0.96      0.00
   10   13    8     -3.42      0.00
   11   13    8     -3.62      0.00
   12   13    8      7.24      0.00
   13   13    8      6.48      0.00
    0   14    8   -101.18      0.00
    9   14    8     -1.02      0.00
   10   14    8    -11.45      0.00
   11   14    8      2.22      0.00
   12   14    8     -9.99      0.00
   13   14    8      2.53      0.00
   14   14    8     17.66      0.00
    9   15    8      9.17      0.00
   10   15    8    -16.96      0.00
   11   15    8      9.47      0.00
   12   15    8      4.59      0.00
   13   15    8     24.93      0.00
   14   15    8     12.39      0.00
    9   16    8      6.43      0.00
   10   16    8     -4.34      0.00
   11   16    8     18.88      0.00
   12   16    8     23.07      0.00
   13   16    8     -6.48      0.00
    8   17    8      0.12      0.00
    9   17    8      1.01      0.00
   10   17    8      4.64      0.00
   11   17    8     28.65      0.00
   12   17    8     13.09      0.00
    8   18    8     21.78      0.00
    9   18    8      3.38      0.00
   10   18    8      4.83      0.00
   11   18    8    -11.93      0.00
    7   19    8    -13.40      0.00
    8   19    8      2.73      0.00
    9   19    8      1.85      0.00
    3   20    8     37.39      0.00
    4   20    8     37.39      0.00
    5   20    8    -11.23      0.00
    6   20    8    -29.31      0.00
    9   10    9      9.48      0.00
    9   11    9     30.71      0.00
   10   11    9     12.04      0.00
   10   12    9    -23.37      0.00
   11   12    9     13.83      0.00
    9   13    9     34.38      0.00
   10   13    9     -0.98      0.00
   11   13    9     12.60      0.00
   12   13    9     -6.12      0.00
    9   14    9     13.67      0.00
   10   14    9    -38.66      0.00
   11   14    9     -0.01      0.00
   12   14    9     -1.98      0.00
   13   14    9     -6.84      0.00
    9   15    9      9.28      0.00
   10   15    9     -3.54      0.00
   11   15    9     25.18      0.00
   12   15    9     -7.38      0.00
   13   15    9      1.26      0.00
   14   15    9     13.28      0.00
    9   16    9    -17.50      0.00
   10   16    9      2.83      0.00
   11   16    9    -15.86      0.00
   12   16    9      8.73      0.00
   13   16    9      0.37      0.00
    9   17    9    -15.76      0.00
   10   17    9      9.90      0.00
   11   17    9     -2.09      0.00
   12   17    9    -18.69      0.00
    9   18    9    -22.57      0.00
   10   18    9      1.52      0.00
    7   19    9     -6.45      0.00
    8   19    9     13.80      0.00
    3   20    9    -12.57      0.00
    4   20    9    -10.15      0.00
    5   20    9     31.89      0.00
    6   20    9      3.15      0.00
    9   10   10      7.93      0.00
   10   10   10    -19.68      0.00
   10   11   10     22.98      0.00
   11   11   10     38.67      0.00
   10   12   10      0.34      0.00
   11   12   10      6.13      0.00
   12   12   10    -16.79      0.00
   10   13   10     -4.86      0.00
   11   13   10     23.22      0.00
   12   13   10      1.91      0.00
   13   13   10      8.85      0.00
    9   14   10     24.96      0.00
   10   14   10      7.92      0.00
   11   14   10     -4.15      0.00
   12   14   10    -10.93      0.00
   13   14   10     -9.54      0.00
   14   14   10    -15.00      0.00
    9   15   10    -24.11      0.00
   10   15   10     -5.79      0.00
   11   15   10      9.84      0.00
   12   15   10     -9.17      0.00
   13   15   10      0.72      0.00
   14   15   10     -5.94      0.00
    9   16   10     19.69      0.00
   10   16   10     10.84      0.00
   11   16   10      3.76      0.00
   12   16   10     -2.91      0.00
   13   16   10     -9.12      0.00
    9   17   10    -14.38      0.00
   10   17   10    -12.29      0.00
   11   17   10     -0.38      0.00
   12   17   10     -5.24      0.00
    9   18   10    -24.77      0.00
   10   18   10    -19.49      0.00
    6   19   10    -23.22      0.00
    7   19   10     17.70      0.00
    8   19   10    -12.48      0.00
    0   20   10    -38.20      0.00
    3   20   10     -2.11      0.00
    4   20   10      3.46      0.00
    5   20   10      5.33      0.00
   11   12   11      5.27      0.00
   11   13   11     11.52      0.00
   12   13   11     -5.28      0.00
    9   14   11      7.99      0.00
   10   14   11    -50.69      0.00
   11   14   11    -24.24      0.00
   12   14   11     -0.62      0.00
   13   14   11     -2.17      0.00
    9   15   11     16.59      0.00
   10   15   11      8.52      0.00
   11   15   11     38.29      0.00
   12   15   11      9.75      0.00
   13   15   11      8.71      0.00
   14   15   11      3.03      0.00
    9   16   11      5.57      0.00
   10   16   11    -18.16      0.00
   11   16   11      0.28      0.00
   12   16   11    -23.00      0.00
   13   16   11    -11.16      0.00
    9   17   11     -9.79      0.00
   10   17   11     -7.49      0.00
   11   17   11      1.89      0.00
    1   18   11    -10.23      0.00
    9   18   11     -8.40      0.00
   10   18   11     20.63      0.00
    6   19   11     16.26      0.00
    7   19   11     -3.78      0.00
    8   19   11      4.19      0.00
    1   20   11     -8.44      0.00
    2   20   11     37.16      0.00
    3   20   11     11.96      0.00
    4   20   11    -13.69      0.00
    5   20   11     36.71      0.00
    7   11   12     -4.27      0.00
   11   11   12     16.10      0.00
    6   12   12     18.80      0.00
   11   12   12    -21.21      0.00
   12   12   12    -26.65      0.00
   11   13   12    -38.00      0.00
   12   13   12      6.51      0.00
   13   13   12     17.49      0.00
   10   14   12     20.30      0.00
   11   14   12     10.03      0.00
   12   14   12     -2.15      0.00
   13   14   12     -0.70      0.00
   14   14   12     10.63      0.00
   10   15   12     -4.15      0.00
   11   15   12     -0.93      0.00
   12   15   12     -9.11      0.00
   13   15   12     -2.20      0.00
   10   16   12     10.10      0.00
   11   16   12     -2.79      0.00
   12   16   12     -7.46      0.00
    9   17   12     -5.86      0.00
   10   17   12     -1.94      0.00
   11   17   12     -3.76      0.00
    9   18   12    -28.42      0.00
    5   19   12    -20.01      0.00
    6   19   12      5.27      0.00
    7   19   12    -12.03      0.00
    0   20   12     -0.66      0.00
    1   20   12     -2.50      0.00
    2   20   12     17.92      0.00
    3   20   12    -15.72      0.00
    4   20   12     17.12      0.00
   11   12   13     34.88      0.00
   11   13   13      6.01      0.00
   12   13   13      4.65      0.00
   10   14   13     -9.42      0.00
   11   14   13     11.07      0.00
   12   14   13    -11.77      0.00
   13   14   13      1.15      0.00
   10   15   13     -2.98      0.00
   11   15   13      9.33      0.00
   12   15   13     20.16      0.00
   13   15   13      5.20      0.00
   10   16   13    -20.36      0.00
   11   16   13     -1.05      0.00
   12   16   13    -21.99      0.00
   10   17   13     -2.65      0.00
   11   17   13      0.30      0.00
    9   18   13     -6.79      0.00
    4   19   13    -13.30      0.00
    5   19   13    -13.07      0.00
    6   19   13      9.05      0.00
    7   19   13    -35.68      0.00
    1   20   13      5.48      0.00
    2   20   13    -13.89      0.00
    3   20   13     -4.86      0.00
    0    0   14     19.07      0.00
    8    8   14     -9.48      0.00
    4   12   14     42.42      0.00
   12   12   14     26.38      0.00
   12   13   14      0.58      0.00
   13   13   14     28.11      0.00
   12   14   14     15.80      0.00
   13   14   14     12.03      0.00
   14   14   14     11.76      0.00
    9   15   14     38.56      0.00
   10   15   14     13.07      0.00
   11   15   14    -12.19      0.00
   12   15   14     18.32      0.00
   13   15   14     -9.34      0.00
    9   16   14     -8.00      0.00
   10   16   14     -3.65      0.00
   11   16   14     -5.83      0.00
   12   16   14      4.31      0.00
    3   17   14    -14.21      0.00
    9   17   14     10.67      0.00
   10   17   14     -4.23      0.00
    1   19   14     -7.66      0.00
    2   19   14     32.04      0.00
    3   19   14     20.72      0.00
    4   19   14     -7.41      0.00
    5   19   14    -27.93      0.00
    6   19   14    -44.68      0.00
    0   20   14     31.79      0.00
    1   20   14      1.09      0.00
    7    8   15      6.98      0.00
    0   11   15     44.26      0.00
    3   12   15      1.63      0.00
   12   13   15    -13.71      0.00
   12   14   15    -21.89      0.00
   13   14   15    -15.14      0.00
    8   15   15    -33.91      0.00
    9   15   15      0.59      0.00
   10   15   15    -13.57      0.00
   11   15   15    -30.65      0.00
   12   15   15     -1.92      0.00
    8   16   15      6.52      0.00
    9   16   15      6.86      0.00
   10   16   15     -9.50      0.00
   11   16   15      7.03      0.00
    0   17   15     38.87      0.00
    1   17   15    -11.57      0.00
    8   17   15    -13.11      0.00
    9   17   15     16.80      0.00
   10   17   15     -3.37      0.00
    8   18   15    -17.62      0.00
    0   19   15    -10.03      0.00
    1   19   15     12.51      0.00
    2   19   15     16.61      0.00
    3   19   15     27.58      0.00
    4   19   15     -1.22      0.00
    5   19   15    -20.57      0.00
    0    0   16    -60.60      0.00
    7    7   16     -0.77      0.00
    6    8   16     -8.77      0.00
    5    9   16    -19.06      0.00
   12   12   16    -26.95      0.00
   12   13   16    -29.98      0.00
   13   13   16     16.36      0.00
    3   14   16     -1.48      0.00
   12   14   16      7.67      0.00
   13   14   16      1.45      0.00
    7   15   16     -0.03      0.00
    8   15   16      2.15      0.00
    9   15   16    -24.74      0.00
   10   15   16      7.09      0.00
   11   15   16      9.47      0.00
   12   15   16     13.21      0.00
    7   16   16    -22.41      0.00
    8   16   16     26.72      0.00
    9   16   16     -6.55      0.00
   10   16   16     -8.71      0.00
   11   16   16     -0.56      0.00
    7   17   16      1.76      0.00
    8   17   16      2.61      0.00
    9   17   16      6.71      0.00
    7   18   16     11.11      0.00
    1   19   16      6.45      0.00
    2   19   16     -1.33      0.00
    3   19   16    -15.76      0.00
    4   19   16     22.23      0.00
    6    7   17      2.14      0.00
    5    8   17      7.41      0.00
    0   11   17    -38.54      0.00
   12   13   17      9.33      0.00
   12   14   17     14.13      0.00
   13   14   17     -6.68      0.00
    6   15   17    -14.14      0.00
    7   15   17    -10.67      0.00
    8   15   17     14.17      0.00
    9   15   17    -11.82      0.00
   10   15   17     -1.20      0.00
   11   15   17    -16.98      0.00
   12   15   17    -10.09      0.00
    6   16   17    -11.63      0.00
    7   16   17      7.77      0.00
    8   16   17    -18.27      0.00
    9   16   17     10.80      0.00
   10   16   17     12.59      0.00
    6   17   17    -14.63      0.00
    7   17   17      1.84      0.00
    8   17   17     -9.98      0.00
    9   17   17     -8.09      0.00
    6   18   17     -8.01      0.00
    0   19   17     -0.01      0.00
    1   19   17    -16.05      0.00
    2   19   17      1.86      0.00
    3   19   17     14.76      0.00
    0    0   18    -22.20      0.00
    6    6   18     -6.19      0.00
    5    7   18     14.52      0.00
    4    8   18    -20.32      0.00
   13   13   18     -4.62      0.00
    5   15   18     18.22      0.00
    6   15   18     18.15      0.00
    7   15   18     -9.95      0.00
    8   15   18      0.30      0.00
    9   15   18    -31.04      0.00
   10   15   18      6.82      0.00
   11   15   18      9.59      0.00
    0   16   18      5.82      0.00
    5   16   18    -15.84      0.00
    6   16   18     -2.21      0.00
    7   16   18      0.62      0.00
    8   16   18     11.00      0.00
    9   16   18     -9.42      0.00
   10   16   18      6.06      0.00
    5   17   18      4.39      0.00
    6   17   18     16.46      0.00
    7   17   18    -26.69      0.00
    8   17   18      7.18      0.00
    5   18   18     -7.93      0.00
    5    6   19    -27.90      0.00
    4    7   19     -2.54      0.00
   12   14   19    -11.59      0.00
    3   15   19      7.04      0.00
    4   15   19    -31.87      0.00
    5   15   19    -10.44      0.00
    6   15   19      8.40      0.00
    7   15   19     -0.43      0.00
    8   15   19      2.44      0.00
   11   15   19     -1.81      0.00
    4   16   19      4.32      0.00
    5   16   19      1.31      0.00
    6   16   19      1.99      0.00
    7   16   19     11.43      0.00
    8   16   19     -0.22      0.00
    9   16   19     -3.30      0.00
    4   17   19    -13.58      0.00
    5   17   19      7.70      0.00
    6   17   19     14.67      0.00
    7   17   19      2.28      0.00
    4   18   19    -18.77      0.00
    0    0   20     72.52      0.00
    5    5   20     -9.10      0.00
    4    6   20     -8.45      0.00
    7    7   20    -12.15      0.00
   12   13   20      2.91      0.00
   11   14   20      4.42      0.00
    2   15   20    -19.64      0.00
    3   15   20     27.43      0.00
    4   15   20     -8.46      0.00
    5   15   20      0.39      0.00
    6   15   20     -7.79      0.00
    3   16   20     16.11      0.00
    4   16   20     42.78      0.00
    5   16   20     -6.04      0.00
    6   16   20     20.23      0.00
    7   16   20    -18.60      0.00
    8   16   20      2.78      0.00
    3   17   20      7.78      0.00
    4   17   20     19.02      0.00
    5   17   20    -12.28      0.00
    6   17   20     -1.71      0.00
    0   18   20     16.63      0.00
    1   18   20     14.55      0.00
    2   18   20     -0.38      0.00
    3   18   20     -4.90      0.00
    4    5   21    -16.16      0.00
   11   13   21      5.03      0.00
   12   13   21     14.11      0.00
   11   14   21      4.52      0.00
    0   15   21    -18.81      0.00
    1   15   21      5.70      0.00
    2   15   21     26.52      0.00
    3   15   21     -3.80      0.00
    4   15   21     -8.38      0.00
    5   15   21    -28.47      0.00
    1   16   21    -19.47      0.00
    2   16   21      3.55      0.00
    3   16   21    -13.00      0.00
    4   16   21     14.60      0.00
    5   16   21      3.95      0.00
    6   16   21      4.73      0.00
    7   16   21     -6.04      0.00
    2   17   21     21.93      0.00
    3   17   21      4.31      0.00
    4   17   21     -5.94      0.00
    5   17   21      5.24      0.00
    0    0   22     50.80      0.00
   10   10   22    -27.68      0.00
   12   12   22     -8.57      0.00
   11   13   22    -17.98      0.00
    0   14   22      5.02      0.00
    1   14   22     24.42      0.00
   10   14   22     -4.07      0.00
    1   15   22     12.79      0.00
    2   15   22     15.12      0.00
    3   15   22      3.32      0.00
    0   16   22     10.36      0.00
    1   16   22     -8.99      0.00
    2   16   22    -15.32      0.00
    3   16   22     -8.24      0.00
    4   16   22      8.91      0.00
    5   16   22     -2.34      0.00
    6   16   22     -0.65      0.00
    7   16   22    -15.54      0.00
    1   17   22     15.12      0.00
    2   17   22    -13.54      0.00
    3   17   22     20.33      0.00
    4   17   22    -16.51      0.00
    0    1   23    -27.76      0.00
   11   12   23     -5.11      0.00
   10   13   23     -3.37      0.00
   11   13   23     -7.74      0.00
    1   14   23     37.46      0.00
    9   14   23    -16.13      0.00
    0   15   23      9.64      0.00
    1   15   23      3.37      0.00
    2   15   23     19.88      0.00
    8   15   23     -6.65      0.00
    1   16   23     -8.57      0.00
    2   16   23    -26.42      0.00
    3   16   23      1.70      0.00
    4   16   23     17.66      0.00
    5   16   23    -20.71      0.00
    0   17   23     -7.95      0.00
    1   17   23      7.00      0.00
    0    0   24     -6.96      0.00
    1    1   24     -3.27      0.00
   11   11   24     -0.60      0.00
   10   12   24     11.98      0.00
   11   12   24     -3.82      0.00
    9   13   24     -4.51      0.00
   10   13   24      6.62      0.00
    0   14   24    -33.47      0.00
    1   14   24     12.51      0.00
    8   14   24      8.48      0.00
    1   15   24     17.94      0.00
    2   15   24      4.60      0.00
    7   15   24     -9.91      0.00
    0   16   24     -3.49      0.00
    1   16   24     -6.06      0.00
    2   16   24      1.69      0.00
    3   16   24      7.27      0.00
    4   16   24    -16.39      0.00
    0    1   25    -15.38      0.00
    0    3   25     -8.45      0.00
   10   11   25      4.85      0.00
    9   12   25      0.21      0.00
   10   12   25      1.40      0.00
    8   13   25      3.42      0.00
    9   13   25     -6.34      0.00
    1   14   25     18.00      0.00
    2   14   25     12.18      0.00
    7   14   25      4.12      0.00
    0   15   25    -19.49      0.00
    1   15   25     -9.00      0.00
    2   15   25    -15.23      0.00
    5   15   25      5.78      0.00
    1   16   25     -0.24      0.00
    0    0   26     59.65      0.00
    1    1   26     -0.19      0.00
    6   10   26     28.26      0.00
   10   10   26     13.25      0.00
    9   11   26      0.79      0.00
   10   11   26     -2.58      0.00
    8   12   26      0.81      0.00
    9   12   26      7.66      0.00
    7   13   26     -1.06      0.00
    8   13   26      1.43      0.00
    0   14   26     22.19      0.00
    5   14   26      1.17      0.00
    6   14   26     11.87      0.00
    1   15   26      2.29      0.00
    2   15   26     -7.95      0.00
    3   15   26     -0.16      0.00
    4   15   26     -1.64      0.00
    0    1   27     27.62      0.00
    9   10   27    -15.73      0.00
    8   11   27     17.34      0.00
    9   11   27     -0.78      0.00
   10   11   27     -6.56      0.00
    7   12   27    -20.93      0.00
    8   12   27     15.25      0.00
    5   13   27      2.82      0.00
    6   13   27      0.72      0.00
    7   13   27      1.32      0.00
    2   14   27     -6.49      0.00
    3   14   27    -16.09      0.00
    4   14   27    -26.55      0.00
    5   14   27     19.81      0.00
    0    0   28     29.37      0.00
    1    1   28    -16.21      0.00
    0    2   28     19.39      0.00
    1    2   28     10.63      0.00
    2    2   28    -11.83      0.00
    6    8   28    -27.69      0.00
    9    9   28    -26.43      0.00
    0   10   28    -65.46      0.00
    8   10   28    -15.82      0.00
    9   10   28     -9.31      0.00
   10   10   28     14.37      0.00
    7   11   28     10.45      0.00
    8   11   28      9.70      0.00
    9   11   28     -0.60      0.00
    5   12   28    -10.87      0.00
    6   12   28     19.23      0.00
    7   12   28      6.95      0.00
    3   13   28     21.91      0.00
    4   13   28     -6.16      0.00
    5   13   28      6.31      0.00
    6   13   28     17.45      0.00
    0   14   28     -7.20      0.00
    1   14   28    -14.19      0.00
    2   14   28     -6.84      0.00
    3   14   28     10.24      0.00
    0    1   29    -15.22      0.00
    1    2   29      3.18      0.00
    8    9   29    -22.85      0.00
    7   10   29    -10.20      0.00
    8   10   29     20.03      0.00
    9   10   29      9.09      0.00
    5   11   29      9.47      0.00
    6   11   29      0.26      0.00
    7   11   29     -6.21      0.00
    8   11   29     13.78      0.00
    4   12   29     11.24      0.00
    5   12   29    -12.15      0.00
    6   12   29    -10.61      0.00
    0   13   29    -25.00      0.00
    2   13   29     -7.05      0.00
    3   13   29      5.76      0.00
    4   13   29      7.34      0.00
    0    0   30      3.48      0.00
    1    1   30    -16.29      0.00
    0    2   30      3.23      0.00
    1    2   30     21.43      0.00
    2    2   30     -7.45      0.00
    0    8   30    -77.04      0.00
    8    8   30     15.29      0.00
    7    9   30     16.25      0.00
    8    9   30    -23.53      0.00
    9    9   30     -6.36      0.00
    5   10   30     -4.33      0.00
    6   10   30    -10.70      0.00
    7   10   30     11.50      0.00
    8   10   30    -12.75      0.00
    4   11   30    -22.55      0.00
    5   11   30     -6.75      0.00
    6   11   30      9.44      0.00
    0   12   30     32.74      0.00
    2   12   30    -38.75      0.00
    3   12   30      0.55      0.00
    4   12   30      0.39      0.00
    0    1   31     -0.04      0.00
    1    2   31    -10.74      0.00
    0    3   31     -9.33      0.00
    1    3   31     10.96      0.00
    2    3   31    -11.19      0.00
    6    8   31    -24.31      0.00
    7    8   31    -14.05      0.00
    5    9   31    -13.09      0.00
    6    9   31    -15.02      0.00
    7    9   31     11.90      0.00
    8    9   31     15.73      0.00
    4   10   31      7.96      0.00
    5   10   31     22.00      0.00
    6   10   31     -6.81      0.00
    0   11   31    -15.95      0.00
    3   11   31     -0.28      0.00
    4   11   31     12.29      0.00
    5   11   31      1.81      0.00
    1   12   31     -0.39      0.00
    0    0   32     49.72      0.00
    1    1   32     19.92      0.00
    0    2   32    -33.89      0.00
    1    2   32      0.36      0.00
    2    2   32     11.55      0.00
    1    3   32      8.47      0.00
    2    3   32      1.73      0.00
    3    3   32     -5.17      0.00
    0    4   32    -11.30      0.00
    3    4   32     -3.30      0.00
    6    7   32      6.88      0.00
    7    7   32     -3.74      0.00
    5    8   32      4.85      0.00
    6    8   32     -5.34      0.00
    7    8   32     -4.93      0.00
    4    9   32    -13.69      0.00
    5    9   32    -20.21      0.00
    6    9   32     11.13      0.00
    0   10   32      8.37      0.00
    3   10   32     39.89      0.00
    4   10   32      2.64      0.00
    5   10   32      9.07      0.00
    1   11   32     -5.00      0.00
    2   11   32      4.31      0.00
    0    1   33      0.62      0.00
    1    2   33      4.42      0.00
    0    3   33      7.69      0.00
    1    3   33      5.10      0.00
    2    3   33     18.17      0.00
    3    4   33     13.14      0.00
    5    6   33     22.52      0.00
    5    7   33    -15.78      0.00
    6    7   33    -12.11      0.00
    4    8   33     -0.19      0.00
    5    8   33    -11.87      0.00
    6    8   33     14.60      0.00
    0    9   33    -23.72      0.00
    2    9   33      3.77      0.00
    3    9   33    -23.28      0.00
    4    9   33      3.20      0.00
    1   10   33      7.18      0.00
    0    0   34      2.75      0.00
    1    1   34      9.10      0.00
    0    2   34     -8.80      0.00
    1    2   34    -19.45      0.00
    2    2   34      5.69      0.00
    1    3   34      1.97      0.00
    2    3   34    -13.79      0.00
    3    3   34     12.05      0.00
    0    4   34    -15.35      0.00
    1    4   34     33.16      0.00
    2    4   34     -0.44      0.00
    3    4   34    -11.61      0.00
    4    4   34    -21.50      0.00
    5    5   34     24.60      0.00
    4    6   34     -9.94      0.00
    5    6   34     -8.39      0.00
    6    6   34    -17.91      0.00
    3    7   34     15.99      0.00
    4    7   34      0.98      0.00
    5    7   34     -3.99      0.00
    0    8   34     -9.79      0.00
    2    8   34      5.38      0.00
    3    8   34     -2.53      0.00
    4    8   34     11.03      0.00
    0    1   35     -1.34      0.00
    1    2   35     -9.72      0.00
    0    3   35     10.18      0.00
    1    3   35      3.43      0.00
    2    3   35    -13.18      0.00
    1    4   35    -12.49      0.00
    2    4   35     10.77      0.00
    3    4   35      8.90      0.00
    0    5   35     35.11      0.00
    2    5   35    -19.74      0.00
    3    5   35      0.19      0.00
    4    5   35      0.60      0.00
    2    6   35      7.76      0.00
    3    6   35     17.93      0.00
    4    6   35     -2.44      0.00
    0    7   35     -9.74      0.00
    1    7   35      9.07      0.00
    2    7   35    -11.30      0.00
    3    7   35    -12.38      0.00
    0    0    0      0.00      0.00
# SQUEEZE RESULTS (Version =  70515)
# Note: Data are Listed for all Voids in the P1 Unit Cell
# i.e. Centre of Gravity, Solvent Accessible Volume,
# Recovered number of Electrons in the Void and
# Details about the Squeezed Material
loop_
  _platon_squeeze_void_nr
  _platon_squeeze_void_average_x
  _platon_squeeze_void_average_y
  _platon_squeeze_void_average_z
  _platon_squeeze_void_volume
  _platon_squeeze_void_count_electrons
  _platon_squeeze_void_content
   1 -0.011  0.396 -0.003      8598      4064 ' '
# Missing Reflections Below sin(th)/lambda = 0.25
loop_
  _platon_missing_refln_index_h
  _platon_missing_refln_index_k
  _platon_missing_refln_index_l
  _platon_missing_refln_theta
    1    1    0     1.463
    2    2    0     2.927
    3    3    0     4.394
    3    4    0     5.180
    4    4    0     5.863
    4    5    0     6.639
    5    5    0     7.335
    5    6    0     8.107
    6    6    0     8.813
    5    7    0     8.936
    6    7    0     9.583
    0    1    1     1.195
    4    5    1     6.666
    5    6    1     8.129
    5    7    1     8.956
    6    7    1     9.602
    0    0    2     1.194
    4    4    2     5.984
    4    5    2     6.747
    5    5    2     7.433
    5    6    2     8.196
    6    6    2     8.895
    6    7    2     9.658
    6    7    3     9.752
    6    6    4     9.136
    0    0   14     8.387
    0    0   16     9.596
_platon_squeeze_void_probe_radius                  1.20
_platon_squeeze_details
)
TITL g2yy_7xnewP 4/m n c    R = 0.36
CELL   19.0765   19.0765   33.0610     90.00     90.00     90.00
SPGR P4/mnc
# Solvent Accessible Volume =    8672.4
# Electrons Found in S.A.V. =    3976.6
# Note: Atoms in Void as Cxxx and Qxxx all others
C101 0.021 0.406 0.502 !       3.75 eA-3
Q102 0.113 1.000 0.001 !       3.48 eA-3
Q103 0.387 0.297 0.498 !       3.33 eA-3
C104 0.073 0.422-0.004 !       3.29 eA-3
C105 0.513 0.527 0.321 !       3.10 eA-3
C106 0.183 0.359 0.001 !       3.08 eA-3
C107 0.813 0.266 0.497 !       3.07 eA-3
C108 0.871 0.421 0.073 !       2.97 eA-3
C109 0.309 0.355 0.282 !       2.95 eA-3
C110 0.780 0.735 0.040 !       2.93 eA-3
C111 0.973 0.422-0.002 !       2.91 eA-3
C112 0.788 0.100 0.094 !       2.90 eA-3
C113 0.793 0.486 0.190 !       2.87 eA-3
C114 0.870 0.468 0.446 !       2.85 eA-3
C115 0.127 0.908 0.245 !       2.84 eA-3
C116 0.325 0.141-0.001 !       2.84 eA-3
Q117 0.188 0.266 0.000 !       2.81 eA-3
Q118 0.331 0.392 0.392 !       2.81 eA-3
Q119 0.430 0.391 0.502 !       2.80 eA-3
C120 0.388 0.760 0.425 !       2.80 eA-3
C121 0.974 0.623 0.469 !       2.79 eA-3
C122 0.204 0.889 0.153 !       2.78 eA-3
Q123 0.519 0.188 0.496 !       2.75 eA-3
C124 0.025 0.266 0.503 !       2.74 eA-3
C125 0.523 0.862 0.018 !       2.74 eA-3
C126 0.079 0.920 0.304 !       2.71 eA-3
C127 0.428 0.234 0.037 !       2.71 eA-3
Q128 0.717 0.675 0.437 !       2.70 eA-3
C129 0.588 0.526 0.249 !       2.68 eA-3
Q130 0.996 0.670 0.044 !       2.63 eA-3
C131 0.530 0.372 0.208 !       2.61 eA-3
C132 0.954 0.969 0.368 !       2.59 eA-3
C133 0.072 0.579 0.063 !       2.59 eA-3
C134 0.025 0.672 0.487 !       2.58 eA-3
Q135 0.409 0.234 0.501 !       2.57 eA-3
C136 0.170 0.328 0.251 !       2.54 eA-3
C137 0.639 0.597 0.188 !       2.53 eA-3
C138 0.500 0.501 0.023 !       2.53 eA-3
C139 0.970 0.437 0.492 !       2.53 eA-3
C140 0.703 0.312 0.003 !       2.53 eA-3
C141 0.986 0.311 0.454 !       2.52 eA-3
C142 0.971 0.468 0.056 !       2.52 eA-3
C143 0.873 0.313 0.025 !       2.51 eA-3
C144 0.131 0.707 0.445 !       2.51 eA-3
C145 0.862 0.421 0.040 !       2.51 eA-3
C146 0.858 0.627 0.459 !       2.50 eA-3
C147 0.078 0.516 0.051 !       2.49 eA-3
C148 0.417 0.626 0.230 !       2.48 eA-3
C149 0.266 0.878 0.461 !       2.48 eA-3
C150 0.146 0.406 0.500 !       2.47 eA-3
C151 0.529 0.734 0.187 !       2.46 eA-3
C152 0.795 0.873 0.413 !       2.46 eA-3
C153 0.079 0.316 0.406 !       2.44 eA-3
C154 0.722 0.698 0.023 !       2.44 eA-3
C155 0.135 0.484 0.498 !       2.43 eA-3
C156 0.983 0.127 0.345 !       2.43 eA-3
Q157 0.689 0.061 0.024 !       2.43 eA-3
C158 1.000 1.002 0.391 !       2.43 eA-3
C159 0.584 0.160 0.116 !       2.42 eA-3
C160 0.478 0.970 0.019 !       2.41 eA-3
C161 0.448 0.500 0.000 !       2.40 eA-3
C162 0.360 0.811 0.482 !       2.39 eA-3
C163 0.079 0.421 0.045 !       2.39 eA-3
C164 0.718 0.937 0.298 !       2.39 eA-3
C165 0.579 0.125 0.020 !       2.39 eA-3
C166 0.624 0.021 0.391 !       2.38 eA-3
C167 0.467 0.769 0.071 !       2.38 eA-3
C168 0.366 0.984 0.998 !       2.38 eA-3
C169 0.528 0.032 0.061 !       2.38 eA-3
C170 0.869 0.692 0.458 !       2.38 eA-3
C171 0.404 0.125 0.488 !       2.37 eA-3
Q172 0.739 0.078-0.001 !       2.37 eA-3
C173 0.922 0.437 0.459 !       2.37 eA-3
C174 0.734 0.135 0.399 !       2.36 eA-3
C175 0.811 0.144 0.286 !       2.35 eA-3
C176 0.364 0.078 0.499 !       2.33 eA-3
C177 0.964 0.014 0.340 !       2.33 eA-3
C178 0.931 0.406 0.501 !       2.33 eA-3
C179 0.504 0.606 0.086 !       2.33 eA-3
C180 0.128 0.832 0.265 !       2.32 eA-3
C181 0.530 0.016 0.100 !       2.31 eA-3
C182 0.921 0.532 0.460 !       2.31 eA-3
C183 0.187 0.360 0.070 !       2.31 eA-3
C184 0.246 0.403 0.086 !       2.30 eA-3
Q185 0.544 0.504 0.422 !       2.29 eA-3
C186 0.154 0.062 0.501 !       2.29 eA-3
C187 0.690 0.172 0.053 !       2.29 eA-3
C188 0.205 0.345 0.232 !       2.27 eA-3
C189 0.522 0.955 0.086 !       2.27 eA-3
C190 0.104 0.109 0.502 !       2.27 eA-3
C191 0.635 0.075 0.038 !       2.27 eA-3
C192 0.673 0.441 0.172 !       2.25 eA-3
Q193 0.234 0.441 0.455 !       2.25 eA-3
C194 0.191 0.621 0.025 !       2.25 eA-3
C195 0.533 0.875 0.473 !       2.25 eA-3
C196 0.410 0.768 0.014 !       2.25 eA-3
C197 0.467 0.641 0.241 !       2.24 eA-3
C198 0.124 0.424 0.101 !       2.24 eA-3
Q199 0.785 0.234 0.056 !       2.23 eA-3
)
;
_shelx_shelxl_version_number     2014/7
_olex2_submission_special_instructions 'No special instructions were received'
loop_
_space_group_symop_operation_xyz
'x, y, z'
'-x, -y, z'
'-y, x, z'
'y, -x, z'
'-x+1/2, y+1/2, -z+1/2'
'x+1/2, -y+1/2, -z+1/2'
'y+1/2, x+1/2, -z+1/2'
'-y+1/2, -x+1/2, -z+1/2'
'-x, -y, -z'
'x, y, -z'
'y, -x, -z'
'-y, x, -z'
'x-1/2, -y-1/2, z-1/2'
'-x-1/2, y-1/2, z-1/2'
'-y-1/2, -x-1/2, z-1/2'
'y-1/2, x-1/2, z-1/2'
loop_
_atom_site_label
_atom_site_type_symbol
_atom_site_fract_x
_atom_site_fract_y
_atom_site_fract_z
_atom_site_U_iso_or_equiv
_atom_site_adp_type
_atom_site_occupancy
_atom_site_site_symmetry_order
_atom_site_calc_flag
_atom_site_refinement_flags_posn
_atom_site_refinement_flags_adp
_atom_site_refinement_flags_occupancy
_atom_site_disorder_assembly
_atom_site_disorder_group
Zr1 Zr 0.1231(2) 0.0457(2) 0.0000 0.0344(17) Uani 1 2 d S TU P . .
Zr2 Zr 0.0000 0.0000 0.07339(15) 0.0221(18) Uani 1 4 d S TU P . .
O5 O -0.0283(7) 0.0930(7) 0.1082(4) 0.077(5) Uiso 1 1 d . U . . .
O2 O 0.1735(8) 0.0631(8) -0.0602(5) 0.088(6) Uiso 1 1 d . U . . .
O4 O 0.0383(8) 0.0860(7) 0.0363(4) 0.089(5) Uiso 1 1 d . U . . .
O3 O 0.1659(13) 0.1504(13) 0.0000 0.119(9) Uiso 1 2 d S TU P . .
O1 O 0.2269(14) -0.0160(15) 0.0000 0.150(11) Uiso 1 2 d S TU P . .
C11 C -0.0280(12) 0.4162(9) 0.2228(6) 0.102(8) Uiso 1 1 d D U . . .
C3 C -0.0392(11) 0.1953(16) 0.1700(10) 0.181(12) Uiso 1 1 d D U . . .
H3 H -0.0196 0.1513 0.1741 0.217 Uiso 1 1 calc R . . . .
C12 C -0.02777(19) 0.47223(19) 0.2500 0.096(12) Uiso 1 2 d DS TU P . .
C1 C -0.0577(10) 0.1549(17) 0.0993(9) 0.129(9) Uiso 1 1 d D U . . .
C4 C -0.0428(13) 0.2401(17) 0.2034(9) 0.183(12) Uiso 1 1 d D U . . .
H4 H -0.0286 0.2290 0.2295 0.220 Uiso 1 1 calc R . . . .
C8 C -0.0796(10) 0.3651(13) 0.2207(7) 0.112(8) Uiso 1 1 d D U . . .
C13 C 0.0274(13) 0.4147(12) 0.1902(7) 0.153(12) Uiso 1 1 d D U . . .
H13A H 0.0602 0.4522 0.1946 0.229 Uiso 1 1 calc R . . . .
H13B H 0.0517 0.3707 0.1910 0.229 Uiso 1 1 calc R . . . .
H13C H 0.0056 0.4205 0.1642 0.229 Uiso 1 1 calc R . . . .
C2 C -0.0628(9) 0.2115(16) 0.1310(10) 0.174(10) Uiso 1 1 d D U . . .
C5 C -0.0715(13) 0.3048(15) 0.1911(9) 0.156(10) Uiso 1 1 d D U . . .
C7 C -0.0907(12) 0.2752(17) 0.1177(10) 0.190(12) Uiso 1 1 d D U . . .
H7 H -0.1040 0.2864 0.0914 0.228 Uiso 1 1 calc R . . . .
C9 C -0.1328(12) 0.3672(12) 0.2500 0.124(13) Uiso 1 2 d DS TU P . .
C6 C -0.0946(12) 0.3189(16) 0.1515(10) 0.181(11) Uiso 1 1 d D U . . .
H6 H -0.1151 0.3625 0.1474 0.217 Uiso 1 1 calc R . . . .
C10 C -0.1886(12) 0.3114(12) 0.2500 0.139(15) Uiso 1 2 d DS TU P . .
H10A H -0.1800 0.2791 0.2283 0.208 Uiso 0.5 1 calc R . . A -1
H10B H -0.1877 0.2868 0.2753 0.208 Uiso 0.5 1 calc R . . A -1
H10C H -0.2337 0.3328 0.2464 0.208 Uiso 0.5 1 calc R . . A -1
loop_
_atom_site_aniso_label
_atom_site_aniso_U_11
_atom_site_aniso_U_22
_atom_site_aniso_U_33
_atom_site_aniso_U_23
_atom_site_aniso_U_13
_atom_site_aniso_U_12
Zr1 0.034(3) 0.046(4) 0.023(3) 0.000 0.000 -0.002(3)
Zr2 0.022(3) 0.022(3) 0.021(4) 0.000 0.000 0.000
loop_
_atom_type_symbol
_atom_type_description
_atom_type_scat_dispersion_real
_atom_type_scat_dispersion_imag
_atom_type_scat_source
C C 0.0030 0.0010 'International Tables Vol C Tables 4.2.6.8 and 6.1.1.4'
H H 0.0000 0.0000 'International Tables Vol C Tables 4.2.6.8 and 6.1.1.4'
O O 0.0110 0.0060 'International Tables Vol C Tables 4.2.6.8 and 6.1.1.4'
Zr Zr -11.6050 0.5510 'International Tables Vol C Tables 4.2.6.8 and 6.1.1.4'
loop_
_geom_angle_atom_site_label_1
_geom_angle_atom_site_label_2
_geom_angle_atom_site_label_3
_geom_angle
_geom_angle_site_symmetry_1
_geom_angle_site_symmetry_3
Zr1 Zr1 Zr1 90.0 11 3
Zr2 Zr1 Zr1 59.47(4) . 11
Zr2 Zr1 Zr1 59.47(4) . 3
Zr2 Zr1 Zr1 59.47(4) 9 3
Zr2 Zr1 Zr1 59.47(4) 9 11
Zr2 Zr1 Zr2 88.16(15) 9 .
O2 Zr1 Zr1 109.2(4) 10 3
O2 Zr1 Zr1 109.2(4) . 3
O2 Zr1 Zr1 108.3(4) . 11
O2 Zr1 Zr1 108.3(4) 10 11
O2 Zr1 Zr2 161.1(4) 10 9
O2 Zr1 Zr2 73.0(4) 10 .
O2 Zr1 Zr2 161.1(4) . .
O2 Zr1 Zr2 73.0(4) . 9
O2 Zr1 O2 125.9(8) . 10
O2 Zr1 O1 72.9(5) . .
O2 Zr1 O1 72.9(5) 10 .
O4 Zr1 Zr1 34.4(4) 11 11
O4 Zr1 Zr1 34.4(4) 4 11
O4 Zr1 Zr1 90.6(4) 10 11
O4 Zr1 Zr1 33.9(4) 10 3
O4 Zr1 Zr1 33.9(4) . 3
O4 Zr1 Zr1 90.6(4) . 11
O4 Zr1 Zr1 90.6(4) 4 3
O4 Zr1 Zr1 90.6(4) 11 3
O4 Zr1 Zr2 88.8(4) 11 .
O4 Zr1 Zr2 88.8(4) 4 9
O4 Zr1 Zr2 88.4(4) 10 .
O4 Zr1 Zr2 36.2(4) 11 9
O4 Zr1 Zr2 36.5(4) . .
O4 Zr1 Zr2 36.5(4) 10 9
O4 Zr1 Zr2 36.2(4) 4 .
O4 Zr1 Zr2 88.4(4) . 9
O4 Zr1 O2 75.6(5) 11 .
O4 Zr1 O2 140.0(6) . .
O4 Zr1 O2 140.0(6) 10 10
O4 Zr1 O2 139.4(6) 11 10
O4 Zr1 O2 76.9(5) 10 .
O4 Zr1 O2 139.4(6) 4 .
O4 Zr1 O2 75.6(5) 4 10
O4 Zr1 O2 76.9(5) . 10
O4 Zr1 O4 109.5(8) 4 10
O4 Zr1 O4 68.8(8) 11 4
O4 Zr1 O4 72.7(7) 11 10
O4 Zr1 O4 72.7(7) 4 .
O4 Zr1 O4 109.5(8) 11 .
O4 Zr1 O4 67.7(8) . 10
O4 Zr1 O3 145.5(4) 4 .
O4 Zr1 O3 145.5(4) 11 .
O4 Zr1 O1 145.8(4) . .
O4 Zr1 O1 84.3(7) 11 .
O4 Zr1 O1 145.8(4) 10 .
O4 Zr1 O1 84.3(7) 4 .
O3 Zr1 Zr1 177.6(7) . 11
O3 Zr1 Zr1 87.6(7) . 3
O3 Zr1 Zr2 119.1(4) . .
O3 Zr1 Zr2 119.1(4) . 9
O3 Zr1 O2 72.5(5) . .
O3 Zr1 O2 72.5(5) . 10
O3 Zr1 O4 87.4(7) . 10
O3 Zr1 O4 87.4(7) . .
O3 Zr1 O1 98.5(9) . .
O1 Zr1 Zr1 83.9(7) . 11
O1 Zr1 Zr1 173.9(7) . 3
O1 Zr1 Zr2 116.8(5) . 9
O1 Zr1 Zr2 116.8(5) . .
Zr1 Zr2 Zr1 91.84(15) 11 3
Zr1 Zr2 Zr1 61.06(8) 9 11
Zr1 Zr2 Zr1 91.84(15) 9 .
Zr1 Zr2 Zr1 61.05(8) 11 .
Zr1 Zr2 Zr1 61.06(8) 9 3
Zr1 Zr2 Zr1 61.06(8) 3 .
O5 Zr2 Zr1 76.0(4) 2 11
O5 Zr2 Zr1 76.0(4) 4 .
O5 Zr2 Zr1 76.0(4) . 3
O5 Zr2 Zr1 109.3(4) 4 11
O5 Zr2 Zr1 167.5(4) 2 3
O5 Zr2 Zr1 109.3(4) . .
O5 Zr2 Zr1 113.8(4) . 9
O5 Zr2 Zr1 167.5(4) . 11
O5 Zr2 Zr1 109.3(4) 3 3
O5 Zr2 Zr1 167.5(4) 3 .
O5 Zr2 Zr1 113.8(4) 3 11
O5 Zr2 Zr1 76.0(4) 3 9
O5 Zr2 Zr1 113.8(4) 4 3
O5 Zr2 Zr1 167.5(4) 4 9
O5 Zr2 Zr1 109.3(4) 2 9
O5 Zr2 Zr1 113.8(4) 2 .
O5 Zr2 O5 116.3(8) 4 3
O5 Zr2 O5 73.8(4) 3 .
O5 Zr2 O5 116.3(8) 2 .
O5 Zr2 O5 73.8(4) 3 2
O5 Zr2 O5 73.8(4) 4 .
O5 Zr2 O5 73.8(4) 4 2
O4 Zr2 Zr1 36.2(4) 4 11
O4 Zr2 Zr1 91.3(4) 2 .
O4 Zr2 Zr1 91.8(4) . 11
O4 Zr2 Zr1 36.2(4) . .
O4 Zr2 Zr1 35.3(4) 4 .
O4 Zr2 Zr1 91.3(4) 3 11
O4 Zr2 Zr1 91.3(4) . 9
O4 Zr2 Zr1 36.2(4) 2 9
O4 Zr2 Zr1 91.8(4) 4 9
O4 Zr2 Zr1 91.8(4) 3 .
O4 Zr2 Zr1 91.3(4) 4 3
O4 Zr2 Zr1 35.3(4) . 3
O4 Zr2 Zr1 91.8(4) 2 3
O4 Zr2 Zr1 35.3(4) 2 11
O4 Zr2 Zr1 35.3(4) 3 9
O4 Zr2 Zr1 36.2(4) 3 3
O4 Zr2 O5 139.2(5) 3 2
O4 Zr2 O5 145.8(5) 4 3
O4 Zr2 O5 139.2(5) 2 4
O4 Zr2 O5 76.6(5) . .
O4 Zr2 O5 80.6(6) . 4
O4 Zr2 O5 139.2(5) . 3
O4 Zr2 O5 139.2(5) 4 .
O4 Zr2 O5 80.6(6) 4 2
O4 Zr2 O5 76.6(5) 4 4
O4 Zr2 O5 80.7(6) 3 .
O4 Zr2 O5 145.8(5) . 2
O4 Zr2 O5 76.6(5) 2 2
O4 Zr2 O5 145.8(5) 3 4
O4 Zr2 O5 76.6(5) 3 3
O4 Zr2 O5 145.8(5) 2 .
O4 Zr2 O5 80.6(6) 2 3
O4 Zr2 O4 111.4(8) . 2
O4 Zr2 O4 111.4(8) 3 4
O4 Zr2 O4 71.5(4) . 3
O4 Zr2 O4 71.5(4) 2 4
O4 Zr2 O4 71.5(4) . 4
O4 Zr2 O4 71.5(4) 2 3
C1 O5 Zr2 134.7(17) . .
C1 O2 Zr1 137.0(18) 11 .
Zr1 O4 Zr1 111.7(7) 3 .
Zr1 O4 Zr2 107.3(6) . .
Zr1 O4 Zr2 108.5(7) 3 .
C12 C11 C13 118.2(15) . .
C8 C11 C12 125(2) . .
C8 C11 C13 116.5(14) . .
C4 C3 H3 117.4 . .
C4 C3 C2 125(3) . .
C2 C3 H3 117.4 . .
C11 C12 C11 114.2(19) . 7_455
C11 C12 C12 122.9(9) . 8
C11 C12 C12 122.9(9) 7_455 8
O5 C1 O2 119(2) . 12
O5 C1 C2 120(3) . .
O2 C1 C2 118(3) 12 .
C3 C4 H4 125.5 . .
C3 C4 C5 109(3) . .
C5 C4 H4 125.5 . .
C11 C8 C5 119.6(16) . .
C11 C8 C9 117(3) . .
C9 C8 C5 122.7(19) . .
C11 C13 H13A 109.5 . .
C11 C13 H13B 109.5 . .
C11 C13 H13C 109.5 . .
H13A C13 H13B 109.5 . .
H13A C13 H13C 109.5 . .
H13B C13 H13C 109.5 . .
C3 C2 C1 117(3) . .
C7 C2 C3 127(3) . .
C7 C2 C1 115(3) . .
C4 C5 C8 121(3) . .
C6 C5 C4 124(3) . .
C6 C5 C8 115(3) . .
C2 C7 H7 126.7 . .
C6 C7 C2 107(3) . .
C6 C7 H7 126.7 . .
C8 C9 C8 121(3) 7_455 .
C8 C9 C10 119.4(17) . .
C8 C9 C10 119.4(17) 7_455 .
C5 C6 H6 116.0 . .
C7 C6 C5 128(3) . .
C7 C6 H6 116.0 . .
C9 C10 H10A 109.5 . .
C9 C10 H10B 109.5 . .
C9 C10 H10C 109.5 . .
H10A C10 H10B 109.5 . .
H10A C10 H10C 109.5 . .
H10B C10 H10C 109.5 . .
loop_
_geom_bond_atom_site_label_1
_geom_bond_atom_site_label_2
_geom_bond_distance
_geom_bond_site_symmetry_2
Zr1 Zr1 3.543(6) 3
Zr1 Zr1 3.543(6) 11
Zr1 Zr2 3.488(4) 9
Zr1 Zr2 3.488(4) .
Zr1 O2 2.236(15) 10
Zr1 O2 2.236(15) .
Zr1 O4 2.125(15) 4
Zr1 O4 2.125(15) 11
Zr1 O4 2.156(15) .
Zr1 O4 2.156(15) 10
Zr1 O3 2.16(2) .
Zr1 O1 2.30(3) .
Zr2 Zr1 3.488(4) 9
Zr2 Zr1 3.488(4) 11
Zr2 Zr1 3.488(4) 3
Zr2 O5 2.183(15) .
Zr2 O5 2.183(15) 3
Zr2 O5 2.183(15) 2
Zr2 O5 2.183(15) 4
Zr2 O4 2.173(15) 3
Zr2 O4 2.173(15) 2
Zr2 O4 2.173(15) 4
Zr2 O4 2.173(15) .
O5 C1 1.34(3) .
O2 C1 1.34(3) 11
O4 Zr1 2.125(15) 3
C11 C12 1.395(9) .
C11 C8 1.389(10) .
C11 C13 1.511(10) .
C3 H3 0.9300 .
C3 C4 1.396(10) .
C3 C2 1.403(10) .
C12 C11 1.395(9) 7_455
C12 C12 1.499(10) 8
C1 O2 1.34(3) 12
C1 C2 1.507(10) .
C4 H4 0.9300 .
C4 C5 1.410(10) .
C8 C5 1.517(10) .
C8 C9 1.405(10) .
C13 H13A 0.9600 .
C13 H13B 0.9600 .
C13 H13C 0.9600 .
C2 C7 1.398(10) .
C5 C6 1.406(10) .
C7 H7 0.9300 .
C7 C6 1.397(10) .
C9 C8 1.405(10) 7_455
C9 C10 1.504(10) .
C6 H6 0.9300 .
C10 H10A 0.9600 .
C10 H10B 0.9600 .
C10 H10C 0.9600 .
loop_
_geom_torsion_atom_site_label_1
_geom_torsion_atom_site_label_2
_geom_torsion_atom_site_label_3
_geom_torsion_atom_site_label_4
_geom_torsion
_geom_torsion_site_symmetry_1
_geom_torsion_site_symmetry_4
Zr2 O5 C1 O2 -13(3) . 12
Zr2 O5 C1 C2 -173.3(8) . .
O5 C1 C2 C3 -3.3(14) . .
O5 C1 C2 C7 176.5(15) . .
O2 C1 C2 C3 -163.7(17) 12 .
O2 C1 C2 C7 16.0(16) 12 .
C11 C8 C5 C4 95(3) . .
C11 C8 C5 C6 -85(3) . .
C11 C8 C9 C8 2.2(17) . 7_455
C11 C8 C9 C10 -177.8(17) . .
C3 C4 C5 C8 -177.9(16) . .
C3 C4 C5 C6 2(3) . .
C3 C2 C7 C6 -3.5(17) . .
C12 C11 C8 C5 -177(2) . .
C12 C11 C8 C9 -5(4) . .
C1 C2 C7 C6 176.8(11) . .
C4 C3 C2 C1 -177.0(14) . .
C4 C3 C2 C7 3(2) . .
C4 C5 C6 C7 -4(4) . .
C8 C11 C12 C11 2.5(19) . 7_455
C8 C11 C12 C12 -177.5(19) . 8
C8 C5 C6 C7 176.6(18) . .
C13 C11 C12 C11 175(3) . 7_455
C13 C11 C12 C12 -5(3) . 8
C13 C11 C8 C5 10(4) . .
C13 C11 C8 C9 -178(2) . .
C2 C3 C4 C5 -2(2) . .
C2 C7 C6 C5 4(3) . .
C5 C8 C9 C8 174(3) . 7_455
C5 C8 C9 C10 -6(3) . .
C9 C8 C5 C4 -76(3) . .
C9 C8 C5 C6 104(3) . .
