#------------------------------------------------------------------------------
#$Date: 2019-11-25 22:32:00 +0200 (Mon, 25 Nov 2019) $
#$Revision: 241968 $
#$URL: file:///home/coder/svn-repositories/cod/cif/4/13/18/4131859.cif $
#------------------------------------------------------------------------------
#
# This file is available in the Crystallography Open Database (COD),
# http://www.crystallography.net/
#
# All data on this site have been placed in the public domain by the
# contributors.
#
data_4131859
loop_
_publ_author_name
'Yan, Yong'
'O'Connor, Alice E'
'Kanthasamy, Gopikkaa'
'Atkinson, George'
'Allan, David R.'
'Blake, Alexander J.'
'Schr\"oder, Martin'
_publ_section_title
;
 Unusual and Tunable Negative Linear Compressibility in the Metal-Organic
 Framework MFM-133(M) (M = Zr, Hf).
;
_journal_issue                   11
_journal_name_full               'Journal of the American Chemical Society'
_journal_page_first              3952
_journal_page_last               3958
_journal_paper_doi               10.1021/jacs.7b11747
_journal_volume                  140
_journal_year                    2018
_chemical_formula_moiety         '0.25(C184 H136 O64 Zr12)'
_chemical_formula_sum            'C46 H34 O16 Zr3'
_chemical_formula_weight         1116.39
_space_group_crystal_system      tetragonal
_space_group_IT_number           128
_space_group_name_Hall           '-P 4 2n'
_space_group_name_H-M_alt        'P 4/m n c'
_atom_sites_solution_hydrogens   geom
_atom_sites_solution_primary     direct
_audit_creation_date             2016-08-31
_audit_creation_method
;
Olex2 1.2
(compiled 2016.08.25 svn.r3337 for OlexSys, GUI svn.r5221)
;
_cell_angle_alpha                90
_cell_angle_beta                 90
_cell_angle_gamma                90
_cell_formula_units_Z            4
_cell_length_a                   19.0375(16)
_cell_length_b                   19.0375(16)
_cell_length_c                   33.133(6)
_cell_measurement_reflns_used    1288
_cell_measurement_temperature    293.15
_cell_measurement_theta_max      22.0340
_cell_measurement_theta_min      2.0560
_cell_volume                     12008(3)
_computing_cell_refinement
;
CrysAlisPro, Agilent Technologies,
Version 1.171.37.34 (release 22-05-2014 CrysAlis171 .NET)
(compiled May 22 2014,16:03:01)
;
_computing_data_collection
;
CrysAlisPro, Agilent Technologies,
Version 1.171.37.34 (release 22-05-2014 CrysAlis171 .NET)
(compiled May 22 2014,16:03:01)
;
_computing_data_reduction
;
CrysAlisPro, Agilent Technologies,
Version 1.171.37.34 (release 22-05-2014 CrysAlis171 .NET)
(compiled May 22 2014,16:03:01)
;
_computing_molecular_graphics    'Olex2 (Dolomanov et al., 2009)'
_computing_publication_material  'Olex2 (Dolomanov et al., 2009)'
_computing_structure_refinement  'ShelXL (Sheldrick, 2015)'
_computing_structure_solution    'ShelXS (Sheldrick, 2008)'
_diffrn_ambient_temperature      293.15
_diffrn_detector                 Dectris
_diffrn_detector_area_resol_mean 5.81395
_diffrn_detector_type            'Pilatus 300K detector'
_diffrn_measured_fraction_theta_full 0.614
_diffrn_measured_fraction_theta_max 0.614
_diffrn_measurement_details
;
#__ type_ start__ end____ width___ exp.time_
  1 omega -105.00  -74.00   0.2000    0.9970
omega____ theta____ kappa____ phi______ frames
    -       20.0000   70.0000  155.7700 155

#__ type_ start__ end____ width___ exp.time_
  2 omega -105.00  -74.00   0.2000    0.9970
omega____ theta____ kappa____ phi______ frames
    -       20.0000   70.0000  -24.2300 155

#__ type_ start__ end____ width___ exp.time_
  3 omega -106.00  -66.00   0.2000    0.9970
omega____ theta____ kappa____ phi______ frames
    -      -20.0000  -70.0000 -155.7700 200

#__ type_ start__ end____ width___ exp.time_
  4 omega -106.00  -66.00   0.2000    0.9970
omega____ theta____ kappa____ phi______ frames
    -      -20.0000  -70.0000   24.2300 200

#__ type_ start__ end____ width___ exp.time_
  5 omega -150.00  -94.00   0.2000    0.9970
omega____ theta____ kappa____ phi______ frames
    -      -20.0000   70.0000  -24.2319 280

#__ type_ start__ end____ width___ exp.time_
  6 omega -150.00  -94.00   0.2000    0.9970
omega____ theta____ kappa____ phi______ frames
    -      -20.0000   70.0000  155.7681 280

#__ type_ start__ end____ width___ exp.time_
  7 omega  -96.00  -30.00   0.2000    0.9970
omega____ theta____ kappa____ phi______ frames
    -       20.0000  -70.0000   24.2300 330

#__ type_ start__ end____ width___ exp.time_
  8 omega  -96.00  -30.00   0.2000    0.9970
omega____ theta____ kappa____ phi______ frames
    -       20.0000  -70.0000 -155.7700 330
;
_diffrn_measurement_device       'k-geometry diffractometer'
_diffrn_measurement_device_type
'Newport 4-circle kappa geometry diffractometer'
_diffrn_measurement_method       'oscillation method'
_diffrn_orient_matrix_UB_11      0.0021730000
_diffrn_orient_matrix_UB_12      -0.0323808000
_diffrn_orient_matrix_UB_13      -0.0091718000
_diffrn_orient_matrix_UB_21      -0.0171824000
_diffrn_orient_matrix_UB_22      0.0131037000
_diffrn_orient_matrix_UB_23      -0.0166906000
_diffrn_orient_matrix_UB_31      0.0317790000
_diffrn_orient_matrix_UB_32      0.0093159000
_diffrn_orient_matrix_UB_33      -0.0083792000
_diffrn_radiation_collimation    '0.5 mm pinhole'
_diffrn_radiation_monochromator  'Si 111 double-crystal monochromator'
_diffrn_radiation_probe          x-ray
_diffrn_radiation_wavelength     0.6889
_diffrn_reflns_av_R_equivalents  0.4169
_diffrn_reflns_av_unetI/netI     0.3393
_diffrn_reflns_Laue_measured_fraction_full 0.614
_diffrn_reflns_Laue_measured_fraction_max 0.614
_diffrn_reflns_limit_h_max       20
_diffrn_reflns_limit_h_min       -20
_diffrn_reflns_limit_k_max       13
_diffrn_reflns_limit_k_min       -13
_diffrn_reflns_limit_l_max       35
_diffrn_reflns_limit_l_min       -35
_diffrn_reflns_number            19274
_diffrn_reflns_point_group_measured_fraction_full 0.614
_diffrn_reflns_point_group_measured_fraction_max 0.614
_diffrn_reflns_theta_full        22.687
_diffrn_reflns_theta_max         22.687
_diffrn_reflns_theta_min         1.889
_diffrn_source                   'Synchrotron U21 undulator'
_diffrn_source_type              'Synchrotron Diamond Light Source'
_exptl_absorpt_coefficient_mu    0.261
_exptl_absorpt_correction_T_max  0.4268
_exptl_absorpt_correction_T_min  0.2228
_exptl_absorpt_correction_type   multi-scan
_exptl_absorpt_process_details
;
SADABS-2014/5 (Bruker,2014/5) was used for absorption correction. 
wR2(int) was 0.1433 before and 0.1193 after correction. 
The Ratio of minimum to maximum transmission is 0.5220. 
The \l/2 correction factor is Not present.
;
_exptl_crystal_colour            'clear colourless'
_exptl_crystal_colour_lustre     clear
_exptl_crystal_colour_primary    colourless
_exptl_crystal_density_diffrn    0.618
_exptl_crystal_description       octahedral
_exptl_crystal_F_000             2232
_exptl_crystal_size_max          0.046
_exptl_crystal_size_mid          0.046
_exptl_crystal_size_min          0.033
_refine_diff_density_max         0.521
_refine_diff_density_min         -0.955
_refine_diff_density_rms         0.086
_refine_ls_extinction_method     none
_refine_ls_goodness_of_fit_ref   1.085
_refine_ls_hydrogen_treatment    constr
_refine_ls_matrix_type           full
_refine_ls_number_parameters     75
_refine_ls_number_reflns         2777
_refine_ls_number_restraints     71
_refine_ls_restrained_S_all      1.087
_refine_ls_R_factor_all          0.2268
_refine_ls_R_factor_gt           0.1198
_refine_ls_shift/su_max          0.001
_refine_ls_shift/su_mean         0.000
_refine_ls_structure_factor_coef Fsqd
_refine_ls_weighting_details
'w=1/[\s^2^(Fo^2^)+(0.2000P)^2^] where P=(Fo^2^+2Fc^2^)/3'
_refine_ls_weighting_scheme      calc
_refine_ls_wR_factor_gt          0.3400
_refine_ls_wR_factor_ref         0.4225
_reflns_Friedel_coverage         0.000
_reflns_number_gt                793
_reflns_number_total             2777
_reflns_threshold_expression     'I > 2\s(I)'
_cod_data_source_file            ZrMOF_All.cif
_cod_data_source_block           39.9kbar
_cod_database_code               4131859
_chemical_oxdiff_formula         'C46 H42 O16 Zr3'
_shelx_space_group_comment
;
The symmetry employed for this shelxl refinement is uniquely defined
by the following loop, which should always be used as a source of
symmetry information in preference to the above space-group names.
They are only intended as comments.
;
_reflns_odcompleteness_completeness 60.23
_reflns_odcompleteness_iscentric 1
_reflns_odcompleteness_theta     22.88
_olex2_refinement_description
;
1. Fixed Uiso
 At 1.2 times of:
  All C(H) groups
 At 1.5 times of:
  All C(H,H,H) groups
2. Restrained distances
 C9-C8 = C8-C11 = C12-C11
 1.39 with sigma of 0.01
 C4-C3 = C2-C7 = C6-C5
 1.39 with sigma of 0.01
 C13-C11 = C9-C10 = C2-C1
 1.5 with sigma of 0.02
 C13-C11 = C9-C10 = C8-C5 = C2-C1
 1.5 with sigma of 0.01
 C12-C12_$2
 1.5 with sigma of 0.01
 C5-C6 = C7-C2 = C3-C4
 1.39 with sigma of 0.01
 C5-C4 = C4-C3 = C3-C2
 1.39 with sigma of 0.01
 C7-C6
 1.39 with sigma of 0.01
 C5-C6
 1.39 with sigma of 0.01
 C7-C2
 1.39 with sigma of 0.01
 C2-C1 = C8-C5 = C13-C11
 1.5 with sigma of 0.01
3. Restrained planarity
 C1, C2, C3, C4, C5, C6, C7, C8, C11_$1, C13_$1
 with sigma of 0.1
 C1_$1, C2_$1, C3_$1, C4_$1, C5_$1, C6_$1, C7_$1, C8_$1, C11, C13
 with sigma of 0.1
 C1_$2, C2_$2, C7_$2, C6_$2, C5_$2, C4_$2, C3_$2, C8_$2, C11_$3, C13_$3
 with sigma of 0.1
 C1_$3, C2_$3, C7_$3, C6_$3, C5_$3, C4_$3, C3_$3, C8_$3, C11_$2, C13_$2
 with sigma of 0.1
 C10_$3, C9_$3, C12_$3, C12, C9, C10
 with sigma of 0.1
4. Uiso/Uaniso restraints and constraints
All non-hydrogen atoms have similar U: within 2A with sigma of 0.02 and sigma
for terminal atoms of 0.04
5. Others
 Fixed Sof: H10A(0.5) H10B(0.5) H10C(0.5)
6.a Me refined with riding coordinates:
 C10(H10A,H10B,H10C)
6.b Aromatic/amide H refined with riding coordinates:
 C3(H3), C4(H4), C7(H7), C6(H6)
6.c Idealised Me refined as rotating group:
 C13(H13A,H13B,H13C)
;
_shelx_res_file
;
    39.9kbar.res created by SHELXL-2014/7

TITL g2yy_11xnew in P4/mnc
CELL 0.6889 19.03746 19.03746 33.13253 90 90 90
ZERR 4 0.00163 0.00163 0.00615 0 0 0
LATT 1
SYMM -X,-Y,+Z
SYMM -Y,+X,+Z
SYMM +Y,-X,+Z
SYMM 0.5-X,0.5+Y,0.5-Z
SYMM 0.5+X,0.5-Y,0.5-Z
SYMM 0.5+Y,0.5+X,0.5-Z
SYMM 0.5-Y,0.5-X,0.5-Z
SFAC C H O Zr
DISP C 0.003 0.001 10.848
DISP H -0 0 0.623
DISP O 0.011 0.006 30.192
DISP Zr -11.605 0.551 2275.752
UNIT 184 136 64 12
EQIV $1 -0.5+Y,0.5+X,0.5-Z
EQIV $2 -X,1-Y,+Z
EQIV $3 0.5-Y,0.5-X,0.5-Z
DFIX 1.39 0.01 C9 C8 C8 C11 C12 C11
DFIX 1.39 0.01 C4 C3 C2 C7 C6 C5
DFIX 1.5 C13 C11 C9 C10 C2 C1
DFIX 1.5 0.01 C13 C11 C9 C10 C8 C5 C2 C1
DFIX 1.5 0.01 C12 C12_$2
DFIX 1.39 0.01 C5 C6 C7 C2 C3 C4
DFIX 1.39 0.01 C5 C4 C4 C3 C3 C2
DFIX 1.39 0.01 C7 C6
DFIX 1.39 0.01 C5 C6
DFIX 1.39 0.01 C7 C2
DFIX 1.5 0.01 C2 C1 C8 C5 C13 C11
FLAT C1 C2 C3 C4 C5 C6 C7 C8 C11_$1 C13_$1
FLAT C1_$1 C2_$1 C3_$1 C4_$1 C5_$1 C6_$1 C7_$1 C8_$1 C11 C13
FLAT C1_$2 C2_$2 C7_$2 C6_$2 C5_$2 C4_$2 C3_$2 C8_$2 C11_$3 C13_$3
FLAT C1_$3 C2_$3 C7_$3 C6_$3 C5_$3 C4_$3 C3_$3 C8_$3 C11_$2 C13_$2
FLAT C10_$3 C9_$3 C12_$3 C12 C9 C10
SIMU 0.02 0.04 2

L.S. 5 0 225
PLAN  20
TEMP 20
BOND
MORE -1
BOND $H
CONF
ABIN
fmap 2
acta
OMIT 2 4 5
REM <olex2.extras>
REM <HklSrc "%.\\39.9kbar.hkl">
REM </olex2.extras>

WGHT    0.200000
FVAR       0.30805
ZR1   4    0.123989    0.044285    0.000000    10.50000    0.06062    0.09060 =
         0.05251    0.00000    0.00000   -0.00996
ZR2   4    0.000000    0.000000    0.073663    10.25000    0.05693    0.05693 =
         0.03223    0.00000    0.00000    0.00000
O5    3   -0.027981    0.092980    0.109089    11.00000    0.11674
O2    3    0.175483    0.060689   -0.060946    11.00000    0.11283
O4    3    0.038374    0.082948    0.036033    11.00000    0.11296
O3    3    0.164558    0.151557    0.000000    10.50000    0.12624
O1    3    0.226741   -0.014634    0.000000    10.50000    0.17713
C11   1   -0.023918    0.413915    0.224223    11.00000    0.14918
C3    1   -0.049641    0.192119    0.171228    11.00000    0.19578
AFIX  43
H3    2   -0.036720    0.145903    0.176481    11.00000   -1.20000
AFIX   0
C12   1   -0.027961    0.472039    0.250000    10.50000    0.14314
C1    1   -0.057715    0.151726    0.101275    11.00000    0.19243
C4    1   -0.053880    0.238626    0.203463    11.00000    0.19695
AFIX  43
H4    2   -0.044437    0.226549    0.230114    11.00000   -1.20000
AFIX   0
C8    1   -0.078099    0.364807    0.221618    11.00000    0.13571
C13   1    0.033481    0.409569    0.192628    11.00000    0.23395
AFIX 137
H13A  2    0.032738    0.451230    0.176308    11.00000   -1.50000
H13B  2    0.025767    0.369183    0.175853    11.00000   -1.50000
H13C  2    0.078297    0.405542    0.205708    11.00000   -1.50000
AFIX   0
C2    1   -0.063929    0.211410    0.130945    11.00000    0.21316
C5    1   -0.074274    0.306452    0.190816    11.00000    0.19185
C7    1   -0.083529    0.275213    0.113365    11.00000    0.24645
AFIX  43
H7    2   -0.092611    0.287614    0.086721    11.00000   -1.20000
AFIX   0
C9    1   -0.132265    0.367735    0.250000    10.50000    0.16614
C6    1   -0.084962    0.314449    0.149336    11.00000    0.24672
AFIX  43
H6    2   -0.096909    0.360779    0.143671    11.00000   -1.20000
AFIX   0
C10   1   -0.188202    0.311798    0.250000    10.50000    0.22739
PART -1
AFIX  33
H10A  2   -0.221362    0.321186    0.271152    10.50000   -1.50000
H10B  2   -0.211994    0.311817    0.224453    10.50000   -1.50000
H10C  2   -0.166908    0.266732    0.254395    10.50000   -1.50000
AFIX   0
HKLF 4

REM  g2yy_11xnew in P4/mnc
REM R1 =  0.1198 for     793 Fo > 4sig(Fo)  and  0.2268 for all    2777 data
REM     75 parameters refined using     71 restraints

END

WGHT      0.2000      0.0000

REM Highest difference peak  0.521,  deepest hole -0.955,  1-sigma level  0.086
Q1    1   0.1330  0.0643  0.0000  10.50000  0.05    0.52
Q2    1   0.0000  0.0000  0.0871  10.25000  0.05    0.47
Q3    1   0.0012  0.0209  0.0782  11.00000  0.05    0.44
Q4    1   0.2114 -0.0473  0.0000  10.50000  0.05    0.33
Q5    1   0.2069 -0.0064  0.0000  10.50000  0.05    0.32
Q6    1   0.0462  0.1159  0.1309  11.00000  0.05    0.32
Q7    1  -0.0005  0.1169  0.1707  11.00000  0.05    0.30
Q8    1   0.2826 -0.0122 -0.0079  11.00000  0.05    0.30
Q9    1  -0.0431  0.3146  0.0801  11.00000  0.05    0.27
Q10   1  -0.0462  0.2910  0.0796  11.00000  0.05    0.26
Q11   1   0.1502  0.1664  0.0000  10.50000  0.05    0.24
Q12   1  -0.0536  0.1116  0.1757  11.00000  0.05    0.24
Q13   1  -0.1104  0.2669  0.0612  11.00000  0.05    0.23
Q14   1  -0.0544  0.2643  0.2616  11.00000  0.05    0.22
Q15   1   0.0815  0.0903  0.0455  11.00000  0.05    0.22
Q16   1   0.0005  0.2342  0.2201  11.00000  0.05    0.22
Q17   1   0.1998  0.1963  0.0265  11.00000  0.05    0.20
Q18   1  -0.1347  0.2838  0.0982  11.00000  0.05    0.20
Q19   1  -0.0793  0.3330  0.0731  11.00000  0.05    0.20
Q20   1  -0.0366  0.1075  0.0998  11.00000  0.05    0.20
;
_shelx_res_checksum              67664
_shelx_hkl_file
;
  -2  -1   0  656.32  126.86
   2   1   0  844.13  149.62
   2   0   0 7375.67 1181.91
  -3  -2   0   33.78   10.35
   3   2   0   11.39    8.82
   3   2   0   -1.15    5.57
  -3  -1   0   98.94   23.97
   3   1   0  156.72   27.10
   3   1   0  114.23   20.24
  -3  -1   0  123.04   24.27
   3   1   0   90.11   26.38
   3   0   0    7.61    4.58
   3   0   0    5.98   10.78
   3  -1   0  135.38   23.60
   4   3   0   20.61   16.69
   4   2   0  509.75   83.99
  -4  -2   0  547.51   88.06
   4   2   0  494.61  104.61
   4   1   0 3339.26  663.48
  -4  -1   0 3503.19  680.32
  -4  -1   0 3077.58  581.98
   4   1   0 3462.89  522.51
   4   1   0 3512.39  664.70
  -4   0   0  236.69   52.45
   4   0   0  198.08   43.79
   4   0   0  203.86   37.70
  -4   0   0  138.25   42.59
   4   0   0  232.41   44.29
   4   0   0  241.62   35.05
   4  -1   0 3752.12  589.66
   5   3   0   -1.89   11.78
   5   2   0 4336.51  877.59
   5   2   0 4197.55  612.93
   5   2   0 4403.45  778.40
  -5  -2   0 3713.78  723.19
  -5  -2   0 3604.38  671.30
   5   1   0   91.22   21.06
   5   1   0   84.55   19.23
   5   1   0  115.34   21.09
   5   1   0   96.99   28.91
  -5  -1   0  100.90   22.49
  -5  -1   0  114.36   28.64
   5   0   0   22.53   21.07
   5   0   0   -0.88    4.64
   5   0   0    4.05    9.51
   5   0   0   -6.44   10.00
  -5   0   0  -12.72   25.16
  -5   0   0    1.74   14.61
   5  -1   0  117.88   22.21
   5  -1   0  142.95   21.47
   5  -2   0 4557.67  703.39
   6   4   0    7.97   29.67
   6   3   0  455.69   57.81
   6   3   0  392.56   75.71
  -6  -3   0  428.40   64.32
   6   2   0 1294.80  195.59
   6   2   0  977.25  192.08
   6   2   0  992.85  206.75
  -6  -2   0  976.92  184.19
   6   1   0 3995.86  688.22
   6   1   0 3301.31  641.29
  -6  -1   0 3975.50  803.78
   6   0   0    6.16   14.18
   6   0   0    3.61    6.43
   6   0   0   -2.50   29.76
  -6   0   0   -1.14   21.57
  -6   0   0   -2.06   17.17
   6  -1   0 4259.47  692.00
   6  -2   0 1324.17  170.68
  -6   3   0   -3.45   84.91
   7   4   0  451.40   75.85
   7   3   0 1519.59  279.45
   7   3   0 1563.64  317.64
  -7  -3   0 1551.21  232.64
  -7  -2   0 1190.82  234.90
   7   2   0 1235.34  236.34
   7   2   0 1007.32  240.66
  -7  -2   0 1495.47  205.06
  -7  -1   0  564.40  105.93
   7   1   0  506.93   96.41
   7   1   0  541.89   99.50
  -7  -1   0  540.89  117.24
   7   1   0  593.34  103.91
   7   1   0  540.32   80.08
  -7  -1   0  414.75   95.68
  -7   0   0   -6.17   42.37
   7   0   0  -14.12   16.63
   7   0   0    1.26   16.94
  -7   0   0   -4.90   19.72
   7   0   0   -5.34    7.49
  -7   0   0   -5.75   26.28
   7   0   0  -44.24   37.34
   7  -1   0  491.11   87.12
   7  -1   0  483.65   96.79
  -7   1   0  547.14  107.73
   7  -1   0  477.11  106.42
   7  -2   0 1321.12  208.18
   8   5   0   40.80   44.64
   8   4   0 1226.49  309.62
  -8  -4   0 1878.89  264.88
   8   4   0 1576.28  246.19
   8   0   0  284.75   50.95
  -8   0   0  362.76   72.17
   8   0   0  498.29   72.40
   8   0   0  362.36   49.29
  -8   0   0  217.63   86.08
  -8   0   0  226.31   55.57
  -8   0   0  223.92   61.04
   8   0   0  461.95   67.91
   8  -4   0 1582.41  277.79
  -8   4   0 1780.52  349.30
  -9  -5   0 1012.24  175.93
   9   5   0 1074.33  225.72
   9   5   0 1206.61  194.45
   9   4   0  377.08   86.30
   9   4   0  499.27   81.98
  -9  -4   0  319.07   72.14
   9   4   0  192.66   56.76
  -9  -3   0 2558.76  452.09
   9   3   0 2459.18  553.98
   9   3   0 2729.32  406.54
   9   2   0  100.60   25.83
  -9  -2   0   83.64   20.44
  -9  -2   0   61.25   27.90
   9   2   0   57.95   19.33
  -9  -2   0  133.53   50.17
   9   2   0   11.94   54.81
   9   2   0   34.60   19.91
   9   1   0  138.11   27.04
  -9  -1   0  130.80   58.29
   9   1   0  136.50   32.03
   9   1   0  200.78   29.99
  -9  -1   0   96.36   28.77
   9   1   0  158.00   54.88
  -9  -1   0  123.20   39.97
  -9   0   0   -6.44   13.15
   9   0   0   11.88   52.09
  -9   0   0   57.90   58.19
   9   0   0   -3.51   24.07
   9   0   0   -6.16    9.59
   9   0   0    3.13   22.75
  -9   0   0    3.32   31.62
  -9   0   0   37.60   36.24
   9  -1   0  157.55   57.59
  -9   1   0   36.45   39.84
   9  -1   0  149.44   33.45
   9  -2   0   79.47   32.97
   9  -2   0   39.83   57.89
  -9   2   0   84.24   39.23
   9  -3   0 2942.71  471.59
   9  -4   0  308.86   68.56
  10   6   0  376.10   96.92
  10   5   0  108.18   34.70
 -10  -5   0   49.31   59.17
  10   5   0  105.49   64.44
  10   4   0 1367.68  317.02
 -10  -4   0 1614.56  251.87
  10   3   0  -75.22   61.34
 -10  -3   0   -4.04   56.11
  10   3   0   43.50   26.88
  10   2   0  564.04  170.14
  10   2   0  864.62  122.98
 -10  -2   0  666.14  147.29
  10   1   0   10.11   25.94
 -10  -1   0  -12.79   60.58
  10   1   0    9.01   57.88
 -10   0   0   -4.67   69.38
  10   0   0   18.14   63.25
  10   0   0   60.04   28.25
 -10   0   0   49.79   35.51
  10  -1   0   98.44   63.09
 -10   1   0  -40.77   74.55
 -10   1   0  -42.26   43.90
  10  -1   0   26.85   29.32
 -10   2   0  837.58  175.84
  10  -2   0  746.53  171.49
  10  -2   0  868.05  140.80
  10  -3   0   27.54   38.31
  11   6   0  314.56   95.22
  11   3   0 1029.92  156.71
 -11  -3   0  644.66  130.66
  11   3   0  564.23  105.29
 -11  -2   0  -27.89   67.26
  11   2   0  -15.51   78.01
  11   2   0    3.71   28.23
 -11  -1   0  -26.21   44.06
  11   1   0   86.11   65.99
 -11  -1   0  -19.28   72.34
  11   1   0  -26.61   30.60
 -11   0   0   -5.26   78.55
  11   0   0   66.66   68.17
 -11   0   0   -4.37   41.58
  11   0   0   -3.99   34.06
  11  -1   0  -21.50   33.28
  11  -1   0   26.37   67.90
 -11   1   0  -33.35   49.45
 -11   1   0   45.77   86.03
  11  -2   0   -4.68   37.86
 -11   2   0   84.03   54.49
  11  -2   0   -5.49   69.05
  11  -3   0 1231.21  152.13
  11  -3   0  975.72  125.41
  12   6   0  437.94  104.55
 -12  -6   0  157.00   88.75
  12   5   0   62.91   86.30
 -12  -5   0   64.52   69.81
  12   5   0   -4.81   34.62
  12   4   0  754.53  112.20
  12   4   0  824.12  165.22
 -12  -4   0  446.19  133.64
 -12  -3   0   35.51   74.12
  12   3   0   -4.21   33.67
  12   3   0   47.28   80.85
  12  -3   0    5.57   43.88
 -12   3   0   19.04   63.26
  12  -3   0  -80.00   76.05
  12  -4   0  655.03  129.17
  13   4   0  -84.08   40.83
 -13  -4   0  -66.71   78.04
  13   3   0  445.16  100.45
 -13  -3   0  152.49   86.10
  13   3   0   28.15   38.69
 -13  -2   0   35.04   88.55
  13   2   0  -52.18   96.62
 -13  -2   0  186.64   63.33
  13   2   0   42.13   39.21
  13   1   0    6.42   93.00
 -13  -1   0  139.62   60.44
  13   1   0    4.78   43.63
 -13  -1   0  -24.30   94.91
  13   0   0  148.81   92.26
 -13   0   0   97.67  107.43
  13   0   0   50.07   44.81
 -13   0   0   97.89   57.81
 -13   1   0   42.63  111.38
  13  -1   0   -5.30   45.94
 -13   2   0   53.16  123.32
  13  -2   0  134.61   48.54
  13  -5   0   -6.86   38.04
  14   7   0   -7.75  104.29
  14   6   0   -7.73  109.08
 -14  -6   0   47.96   94.17
  14   6   0    6.06   47.77
  14   3   0    7.47  109.96
 -14  -2   0   19.54   73.44
  14   2   0   43.42  108.57
  14   1   0  122.30  102.02
 -14  -1   0  -44.53   62.95
 -14   0   0   71.75   71.32
  14   0   0   35.84  103.35
  14  -1   0 -139.48  107.31
 -14   1   0  -68.57   67.95
  14  -2   0   14.61   95.79
  14  -2   0  137.78   56.16
 -14   2   0  144.95   71.84
 -14   2   0  689.05  135.19
 -14   3   0  -17.81  138.71
  14  -3   0  -74.13   90.74
  14  -3   0   -6.52   57.96
 -14   3   0  115.25   75.15
  15   7   0  -85.99  124.51
 -15  -6   0   74.37   96.64
  15   6   0  -58.97  118.67
  15   6   0   -6.61   48.83
  15   5   0    6.35   47.07
 -15  -5   0   14.07  101.38
  15   5   0  109.34  117.31
  15   4   0    6.04   44.29
 -15  -4   0  -26.98   89.15
  15   4   0  -16.76  132.16
  15   3   0  -66.02  120.57
  15   3   0   -5.78   47.64
 -15  -3   0   -7.73   76.62
 -15  -3   0  186.81  105.15
  15   2   0  -32.24  124.92
 -15  -2   0  139.24   79.14
 -15  -2   0  114.75  108.77
  15  -2   0  -34.09   51.12
 -15   2   0  203.66  147.80
  15  -2   0 -128.38  115.16
 -15   2   0  -40.78   77.32
  15  -3   0  113.50  110.00
  15  -3   0   57.13   55.09
 -15   3   0  245.18  155.73
 -15   3   0   16.92   79.90
  15  -4   0 -142.69  109.81
 -15   4   0   62.77   85.94
  15  -4   0   30.52   57.65
  15  -5   0  121.54   64.18
  16   7   0 -130.87  136.77
 -16  -4   0   -7.42  103.84
  16   4   0   -6.65   52.99
  16   4   0  111.43  130.60
  16   3   0    6.53   54.01
 -16  -3   0  -45.84  115.18
 -16  -3   0  -34.45   85.34
  16   3   0  145.53  139.39
 -16  -2   0  214.43  119.90
 -16  -2   0   66.42   82.40
  16   2   0   -6.44   53.39
  16   2   0   81.11  123.64
 -16  -1   0  -58.31  127.90
  16   1   0   -6.60   56.34
  16   1   0  -35.79  136.82
 -16  -1   0 -108.27   86.68
  16   0   0   53.23  128.44
  16   0   0    6.82   50.06
 -16   0   0    8.40   89.54
 -16   0   0   52.64  136.49
  16  -1   0   35.84  115.76
 -16   1   0 -282.79  144.50
 -16   1   0 -113.72   91.39
  16  -1   0    7.14   62.67
  16  -2   0   -7.45   65.22
 -16   2   0    9.05   91.27
  16  -2   0  -97.10  121.97
 -16   2   0  -40.49  164.11
 -16   3   0 -140.30  181.78
  16  -3   0    7.93   67.64
 -16   3   0   -9.32   90.96
  16  -3   0  124.47  124.20
  16  -4   0    8.19   66.70
 -16   4   0   19.64  100.17
  16  -4   0   -9.17  126.89
 -16   4   0  170.09  187.80
  17   7   0  -72.02  151.22
 -17  -6   0   52.57  122.64
  17   6   0   20.81  146.15
  17   6   0   47.07   61.54
  17   5   0   38.18   57.75
  17   5   0  197.95  156.40
 -17  -5   0 -193.51  117.55
  17   4   0  -36.66   56.75
 -17  -4   0  -89.62  119.05
 -17  -4   0   50.34  103.81
  17   4   0 -113.27  149.73
  17   3   0  -10.10  155.88
 -17  -3   0   48.09  100.00
  17   3   0  -50.65   57.82
 -17  -3   0  269.62  126.84
  17  -3   0   78.17  128.45
  17  -3   0   -8.61   73.38
 -17   3   0   11.85  189.54
 -17   3   0 -104.09   97.29
  17  -4   0   -8.97   79.59
 -17   4   0  385.74  207.86
  17  -4   0  -90.28  125.30
 -17   4   0   43.07  103.04
  17  -5   0    9.35   79.69
 -17   5   0   22.38  107.49
  18   7   0   45.57  155.88
  18   5   0   50.28   71.56
 -18  -5   0   27.65  127.73
  18   5   0 -228.73  178.94
 -18  -4   0 -145.63  118.94
 -18  -4   0  -62.57  132.80
  18   4   0   67.62  157.14
  18   4   0  -56.59   62.12
  18   3   0   88.48   68.04
 -18  -3   0 -241.27  145.15
  18   3   0 -280.86  169.73
 -18  -3   0   32.65  109.29
  18   2   0  -11.15  157.23
 -18  -2   0   43.32  114.30
  18   2   0   -8.00   63.85
 -18  -2   0  145.54  151.68
  18   1   0    8.15   71.14
 -18  -1   0  214.46  155.67
 -18  -1   0   10.80  105.93
  18   1   0 -253.34  164.45
  18   0   0   -8.34   67.22
 -18   0   0 -107.70  165.11
  18   0   0 -242.66  155.47
 -18   0   0  -54.20  116.51
 -18   1   0   11.02  110.51
 -18   1   0  113.42  174.77
  18  -1   0  -32.22  155.24
  18  -2   0   45.19   75.66
 -18   2   0 -169.52  109.91
  18  -2   0  -63.70  151.84
 -18   2   0  206.33  203.15
 -18   3   0  168.05  215.22
 -18   3   0   57.55  110.66
  18  -3   0    9.38   77.70
  18  -3   0  462.64  150.06
 -18   4   0   13.64  218.36
  18  -4   0   55.02  155.90
  18  -4   0   78.72   83.72
 -18   4   0   47.31  115.08
  19   7   0   25.05  188.10
  19   6   0  -62.96  186.63
  19   6   0   -9.34   73.41
 -19  -6   0  -31.17  147.89
 -19  -6   0   13.25  135.61
  19   5   0   -9.20   71.40
 -19  -5   0 -192.44  148.99
  19   5   0 -262.92  190.62
 -19  -5   0  -12.89  139.95
 -19  -4   0 -226.70  147.45
  19   4   0   50.08  189.77
 -19  -4   0 -148.07  145.24
  19   4   0    9.11   78.13
 -19  -3   0  -62.52  128.06
 -19   4   0   26.05  119.80
 -19   4   0 -195.09  245.39
  19  -4   0 -108.84  149.79
  19  -4   0  -10.75   89.63
 -20  -6   0 -147.56  163.57
  20   6   0   10.21   78.73
 -20  -5   0  -66.90  166.62
  20   5   0 -182.14   85.90
 -20  -4   0   32.67  165.62
  20   4   0   10.07   76.47
 -20  -4   0  240.41  154.70
  20   4   0   13.90  209.30
  20   3   0 -164.58  205.29
 -20  -3   0 -339.71  141.48
 -20  -3   0  214.33  176.67
  20   3   0  -10.07   75.97
  20   2   0   -9.84   80.42
 -20  -2   0   14.07  155.45
 -20  -2   0  237.22  178.51
  20   2   0 -258.66  191.32
  20   1   0 -164.17  196.99
  20   1   0  -10.00   83.04
 -20  -1   0  181.87  156.37
 -20  -1   0  -12.50  186.99
 -20   0   0 -154.28  143.98
  20   0   0  -10.32   82.40
  20   0   0 -146.16  197.24
 -20   0   0  -52.92  200.84
 -20   1   0   28.05  150.42
  20  -1   0 -233.98  179.93
  20  -1   0   10.60   83.85
 -20   1   0 -208.54  224.55
 -20   2   0 -277.02  240.67
  20  -2   0 -103.28  171.66
  20  -2   0   22.09   90.51
  20  -3   0  -11.39   97.49
 -20   3   0 -402.37  262.52
   1   1  -1    0.37    0.49
   1   1  -1   -0.35    0.83
  -1  -1   1    0.34    0.50
  -1  -1   1    3.40    1.62
  -2  -1  -1 2245.92   29.55
   2   1  -1 2235.92   33.14
  -2  -1   1 1871.05   31.41
  -2  -1   1 2011.54   29.53
   2   1   1 1997.20   28.21
   2   0  -1   -3.24    5.91
   2   0  -1   -9.40    2.12
  -2   0  -1    8.79    6.14
  -2   0   1   -0.66    3.76
   2   0   1   -3.64    2.63
  -2   1  -1 2245.81   38.75
   2  -1   1 2204.74   30.10
   2  -1   1 2041.44   38.95
   3   2  -1    4.65    4.74
  -3  -2  -1   -6.27    9.98
   3   2  -1    5.25    5.15
   3   2  -1    1.22    9.88
   3   2   1   -2.62    9.93
  -3  -2   1    8.52    9.45
  -3  -2   1    7.04    5.51
   3   1  -1  753.89  133.89
   3   1  -1  732.97  138.04
   3   1  -1  736.17  110.70
  -3  -1  -1  504.22  120.47
   3   1   1  705.20  110.50
   3   1   1  610.89  137.66
  -3  -1   1  744.30  122.52
   3   0  -1  497.62   82.50
  -3   0  -1  338.39   74.14
   3   0  -1  400.81   67.30
   3   0  -1  384.12   81.09
  -3   0   1  415.37   97.47
   3  -1  -1  840.94  145.75
  -3   1   1  798.75  159.57
   3  -1   1  583.93  143.45
  -3   2  -1   17.90   10.62
   3  -2   1    3.46   13.19
   4   3  -1   56.01   18.48
  -4  -3   1   38.46   17.32
   4   2  -1 1056.78  198.79
   4   2  -1  881.39  146.51
  -4  -2  -1  979.25  151.34
   4   2  -1  676.13  182.76
   4   2  -1 1056.61  179.65
  -4  -2   1  734.31  157.37
   4   2   1 1075.95  181.67
   4   1  -1   88.23   20.09
   4   1  -1  106.07   17.90
  -4  -1  -1  109.44   23.93
   4   1  -1   93.61   25.58
   4   1  -1  128.61   19.67
   4   1   1  110.52   17.66
   4   1   1  140.69   25.92
  -4  -1   1   82.17   24.25
  -4  -1   1   82.31   21.38
   4   0  -1    3.36    8.39
  -4   0  -1   21.36   18.20
   4   0  -1   -4.02    8.12
   4   0  -1    1.61   14.55
   4   0  -1    0.56    4.88
  -4   0   1    0.91   12.44
   4   0   1   -3.77    7.51
  -4   0   1   10.61    8.58
   4  -1  -1   69.26   27.35
   4  -1  -1   88.25   20.73
   4  -1   1  102.00   20.01
  -4   1   1  130.22   26.91
  -4   2  -1  905.10  208.10
   4  -2   1 1108.01  164.67
   4  -2   1 1091.31  188.35
  -5  -3   1 1728.90  302.89
  -5  -2  -1  786.19  120.12
   5   2  -1  728.50  139.09
   5   2  -1  643.72  142.19
  -5  -2   1  839.52  122.81
   5   1  -1 2969.17  420.76
   5   1  -1 2345.86  496.33
   5   1  -1 3033.01  511.60
  -5  -1   1 2602.47  605.90
   5   1   1 3005.18  537.78
  -5  -1   1 2832.83  536.10
   5   1   1 2861.60  408.52
   5   1   1 2930.84  527.27
  -5  -1   1 2565.90  471.69
  -5   0  -1   52.33   27.72
   5   0  -1   81.34   24.81
  -5   0  -1   76.76   15.41
   5   0  -1   71.09   19.76
   5   0  -1   68.60   14.52
  -5   0  -1   84.65   21.31
   5   0  -1  116.88   16.56
   5   0   1   79.93   17.30
  -5   0   1  117.46   25.68
  -5   0   1  120.84   20.78
   5   0   1   62.41   13.95
   5   0   1   58.65   15.61
   5  -1  -1 2859.88  557.09
   5  -1  -1 2892.93  501.24
   5  -1   1 2819.79  525.53
   6   4  -1  -18.58   29.62
  -6  -4   1   22.70   28.15
   6   3  -1   19.96   16.30
   6   3  -1   -2.03   11.28
   6   3  -1  -27.71   29.59
  -6  -3  -1   18.82   27.36
   6   3   1   29.14   30.83
  -6  -3   1   31.06   14.25
   6   3   1   -4.41   14.68
   6   2  -1 4285.92  676.01
  -6  -2  -1 4230.26  570.35
   6   2   1 4809.01  770.82
   6   2   1 4137.11  667.67
  -6  -1  -1  260.84   61.20
   6   1  -1  322.60   59.84
   6   1  -1  341.10   61.22
  -6  -1   1  273.77   65.13
  -6  -1   1  372.04   74.66
   6   1   1  327.94   69.32
   6   1   1  368.43   60.06
   6   1   1  311.98   63.41
  -6   0  -1   -2.98    6.85
   6   0  -1    1.27   16.55
   6   0  -1    2.08    8.19
  -6   0  -1   -6.87   16.24
   6   0   1    9.87    5.31
  -6   0   1    9.92   24.81
   6   0   1   -3.15   11.75
   6   0   1   35.40   31.78
   6  -1  -1  589.89   74.57
   6  -1  -1  378.87   63.03
  -6   1   1  448.33   72.58
   6  -2  -1 4251.79  678.93
   6  -2   1   -3.00  688.19
  -6   3  -1   -3.39   26.76
   6  -3   1   35.70   35.58
   6  -3   1  -16.94   19.24
   7   3  -1   36.99   16.65
  -7  -3  -1  -10.81   34.05
   7   3  -1   51.63   38.71
   7   3  -1   19.24   18.23
   7   3   1   42.75   38.65
   7   3   1   14.73   17.49
  -7  -3   1  -31.81   34.55
  -7  -3   1    5.90   15.22
   7   2  -1  925.18  176.69
   7   2  -1  950.45  175.62
   7   2  -1 1092.66  133.13
  -7  -2  -1 1062.70  150.83
   7   2  -1  800.04  166.82
   7   2   1  817.86  185.87
  -7  -2   1  838.21  152.93
   7   2   1  785.79  178.13
  -7  -2   1  953.84  179.89
  -7  -1  -1  145.99   44.30
   7   1  -1  180.43   53.06
   7   1  -1  181.37   33.50
  -7  -1  -1  197.70   37.68
  -7  -1  -1  328.30   48.42
   7   1  -1  147.39   39.17
   7   1  -1  158.05   35.79
  -7  -1   1  258.63   47.28
   7   1   1  283.55   52.50
   7   1   1  196.62   32.67
  -7  -1   1  185.17   39.41
   7   1   1  178.93   38.43
   7   1   1  155.14   35.24
  -7  -1   1  184.49   50.72
   7   0  -1   35.55   16.36
  -7   0  -1   20.42   12.90
   7   0  -1   52.96   37.63
  -7   0  -1   36.64   41.62
   7   0  -1   51.49   12.27
   7   0  -1   87.48   22.12
  -7   0  -1   40.38   25.37
   7   0   1   50.66   19.14
  -7   0   1   58.45   25.08
   7   0   1   54.31   11.50
  -7   0   1   58.68   31.47
  -7   0   1  108.95   42.05
   7   0   1  104.93   38.16
   7   0   1   82.66   18.69
   7  -1  -1  182.08   54.71
   7  -1  -1  293.42   38.28
   7  -1  -1  184.27   37.62
   7  -1   1  217.16   36.22
   7  -1   1  206.54   34.76
  -7   1   1  266.06   47.67
   7  -2  -1 1012.27  178.77
   7  -2  -1 1072.07  155.39
   7  -2   1 1005.95  152.81
   7  -3  -1   10.30   21.23
  -7   3  -1   11.30   28.70
   7  -3   1  -61.94   45.15
   7  -3   1   53.81   24.66
   8   5  -1 1131.96  175.14
  -8  -5   1  593.13  154.38
   8   4  -1  362.47   57.09
   8   4  -1  186.56   31.24
  -8  -4  -1  271.44   48.79
   8   4   1  200.23   49.99
  -8  -4   1  155.26   47.51
   8   4   1  169.99   31.10
   8   0  -1   16.53   22.28
  -8   0  -1    3.62    9.55
  -8   0  -1   14.17   47.58
   8   0  -1   29.96   23.32
   8   0  -1   -6.47   10.07
  -8   0  -1  -14.59   26.67
   8   0   1    3.09    7.88
  -8   0   1  -20.57   36.52
   8   0   1   18.82   20.25
   8   0   1   28.00   45.90
  -8   4  -1  164.81   50.58
   8  -4   1  160.97   58.64
   8  -4   1  210.16   39.75
   9   5  -1  255.45   65.38
   9   5  -1  239.72   54.75
   9   5  -1  164.77   40.98
  -9  -5  -1  111.74   58.16
  -9  -5   1  282.70   59.60
   9   5   1  196.76   66.43
   9   4  -1 2348.36  390.57
  -9  -4  -1 2249.73  413.97
   9   4  -1 2205.04  521.42
   9   4   1 2225.37  493.30
   9   4   1 2675.31  383.84
  -9  -4   1 2796.22  415.71
  -9  -3  -1  -17.90   47.72
   9   3  -1  -33.13   51.18
   9   3  -1  -14.67   22.13
   9   3   1  -38.01   52.62
  -9  -3   1    3.53   47.47
   9   3   1  -12.35   23.20
   9   3   1    1.41   19.98
   9   2  -1  903.29  146.11
  -9  -2  -1  692.83  169.66
   9   2  -1  702.19  144.08
   9   2  -1  804.32  129.93
  -9  -2  -1  701.93  126.34
   9   2   1  601.17  128.61
  -9  -2   1  659.95  146.36
   9   2   1  609.49  105.02
   9   2   1  852.31  145.89
  -9  -2   1  747.32  128.06
  -9  -2   1  720.58  164.06
   9   1  -1   11.35   22.87
  -9  -1  -1  -10.98   12.79
  -9  -1  -1  -74.62   52.35
   9   1  -1   35.00   50.01
   9   1  -1   -3.15   12.25
  -9  -1  -1   15.32   24.00
   9   1  -1  -11.75   23.58
  -9  -1   1    3.72   15.46
  -9  -1   1  -18.90   53.61
   9   1   1  -27.95   51.13
   9   1   1   -5.74   17.92
  -9  -1   1   16.46   30.84
   9   1   1    8.11   11.47
   9   1   1    2.92   23.51
   9   0  -1  -55.42   54.32
  -9   0  -1    8.09   11.15
  -9   0  -1   23.47   28.88
   9   0  -1   -2.62    9.77
  -9   0  -1   19.61   33.40
   9   0  -1  -10.16   23.55
   9   0  -1   28.78   26.26
  -9   0  -1  101.81   59.53
  -9   0   1  -26.60   33.45
  -9   0   1   54.10   58.61
   9   0   1  -30.75   23.91
   9   0   1  -19.98   51.77
  -9   0   1   12.05   40.19
  -9   0   1  -11.44   14.78
   9  -1  -1   20.79   54.71
   9  -1  -1   -6.03   12.64
   9  -1  -1   17.58   27.80
  -9   1  -1    8.89   66.11
  -9   1  -1   -3.61   31.20
   9  -1   1    4.18   55.19
   9  -1   1   40.16   26.90
  -9   1   1   -7.47   31.99
   9  -2  -1  890.00  146.94
   9  -2  -1  790.15  142.03
   9  -2  -1  789.33  123.93
  -9   2   1  815.49  154.79
   9  -2   1 1109.36  121.19
  -9   3  -1  -32.47   40.51
   9  -3  -1   46.29   52.75
   9  -3  -1    4.24   31.53
  -9   3   1   24.11   42.61
   9  -3   1   24.23   31.40
   9  -4  -1 2704.68  443.44
   9  -4   1 2480.54  433.46
   9  -4   1 3043.69  486.11
  10   5  -1  639.26  101.69
  10   5  -1  319.98   65.41
 -10  -5  -1  606.40   85.28
  10   5  -1  232.97   88.36
  10   5   1  384.73   93.17
  10   5   1  577.07   65.72
 -10  -5   1  409.66   83.37
 -10  -4  -1   98.66   54.06
  10   4  -1   -4.90   63.12
  10   4  -1  110.20   32.82
  10   4  -1   42.93   28.15
 -10  -4   1   19.99   54.25
  10   4   1   63.70   29.58
  10   4   1  105.79   62.18
  10   3  -1 1568.29  279.03
  10   3  -1 1345.82  201.20
 -10  -3  -1 1236.19  226.21
 -10  -3   1 1245.72  229.47
  10   3   1 1571.87  275.54
 -10  -3   1 1197.62  281.67
 -10  -2  -1   53.55   57.42
  10   2  -1   44.96   65.26
  10   2  -1    3.25   24.42
  10   2   1   41.43   62.94
  10   2   1    6.64   25.62
 -10  -2   1  -12.23   54.77
 -10  -2   1    1.57   28.70
  10   1  -1  101.54   61.80
  10   1  -1    3.36   27.11
 -10  -1  -1   63.91   60.31
  10   1   1   16.66   27.50
 -10  -1   1   56.03   63.24
  10   1   1  155.71   65.08
 -10  -1   1  -48.88   38.09
 -10   0  -1  -18.52   68.29
  10   0  -1  -18.08   59.10
  10   0  -1  -14.37   27.71
 -10   0  -1    7.69   36.27
  10   0   1   59.08   60.55
 -10   0   1    3.83   37.69
 -10   0   1   14.22   69.31
  10   0   1   -7.01   29.00
  10  -1  -1  121.95   62.98
 -10   1  -1   57.70   40.57
  10  -1  -1  120.57   34.08
 -10   1  -1   75.51   72.59
  10  -1   1   14.07   60.86
  10  -1   1    7.57   31.42
 -10   1   1  139.48   44.87
  10  -2  -1    4.87   60.52
  10  -2  -1   56.34   34.30
  10  -2   1    4.12   32.30
 -10   2   1   28.64   43.07
  10  -3  -1 1692.67  237.17
  10  -3  -1 1836.05  265.83
 -10   3   1 1341.08  291.74
  10  -3   1 1472.41  230.38
 -10   4  -1   96.92   52.22
  10  -4  -1  151.29   42.03
  10  -4   1   62.04   38.90
  10  -4   1  172.05   64.55
  11   6  -1  209.00   79.49
  11   6   1   80.13   72.33
  11   3  -1  -29.81   30.08
 -11  -3  -1  -36.52   63.21
  11   3  -1  -88.91   68.96
  11   3   1   53.18   78.85
 -11  -3   1   27.01   62.61
  11   3   1  -30.92   28.76
  11   2  -1   46.15   69.54
  11   2  -1   84.71   32.95
 -11  -2  -1   69.82   65.26
  11   2   1   88.85   71.18
  11   2   1   26.28   30.11
 -11  -2   1   64.55   71.04
  11   1  -1   72.27   32.87
  11   1  -1   65.07   70.64
 -11  -1  -1  135.29   69.40
  11   1   1   51.64   71.93
 -11  -1   1   60.03   44.30
 -11  -1   1   96.67   74.49
  11   1   1   67.80   32.83
  11   0  -1  132.92   71.50
 -11   0  -1   93.30   74.71
 -11   0  -1  144.45   48.14
  11   0  -1   44.50   34.54
  11   0   1   51.51   32.15
  11   0   1   92.98   72.20
 -11   0   1  164.60   83.60
 -11   0   1   44.45   44.53
 -11   1  -1   79.07   84.67
 -11   1  -1   89.00   46.14
  11  -1  -1   39.28   36.84
  11  -1  -1  153.13   75.56
  11  -1   1  153.03   72.83
 -11   1   1  102.12   48.13
 -11   1   1   57.88   89.24
  11  -1   1  -12.73   33.50
  11  -2  -1   47.75   39.10
  11  -2  -1   54.00   68.56
 -11   2   1   63.65   48.49
  11  -2   1  -11.09   74.51
  11  -2   1   90.36   37.54
  11  -3  -1   67.25   69.35
  11  -3  -1  -46.48   43.50
  11  -3   1  -24.70   39.92
 -11   3   1  109.96   56.77
  12   6  -1   63.10   96.82
  12   6   1  115.21   81.38
 -12  -6   1   28.66   73.54
  12   5  -1  320.83  118.53
 -12  -5  -1  327.94   91.89
  12   5  -1  323.70   61.27
 -12  -5   1  406.56   91.70
  12   5   1  328.80  113.10
  12   5   1  200.02   60.53
 -12  -4  -1   20.31   70.29
  12   4  -1 -138.23   94.66
  12   4  -1  -26.64   36.01
  12   4   1  128.10   87.30
  12   4   1   27.05   32.93
 -12  -4   1   -4.97   74.20
  12   3  -1  108.43   48.15
  12   3  -1  100.54  100.40
 -12  -3  -1  234.88   84.48
  12   3   1  220.34   50.59
 -12  -3   1  337.00   86.91
  12   3   1  321.34   98.32
  12  -3  -1  551.44   66.60
  12  -3  -1  215.15   90.44
 -12   3   1  101.77   75.66
  12  -3   1  291.58   63.66
  12  -4  -1   -6.52   81.04
 -12   4  -1   -6.82   54.28
  12  -4  -1  -48.75   50.95
 -12   4   1  -13.76   63.53
  12  -4   1   22.94   44.67
 -12   5  -1  460.10   98.78
  12  -5   1  293.77   75.58
  13   6   1  145.29   98.88
  13   5  -1   20.52   39.16
 -13  -5   1  144.38   83.65
 -13  -4  -1   83.80   81.20
  13   4  -1  127.88   43.11
  13   4   1   -4.99   46.79
 -13  -4   1   44.05   80.22
  13   3  -1  -33.07   95.51
 -13  -3  -1   39.80   82.50
  13   3  -1   13.95   37.85
 -13  -3   1   33.60   80.73
  13   3   1    9.63   39.25
  13   2  -1   13.93   38.03
 -13  -2  -1  -29.21   87.05
  13   2  -1   32.09   90.67
 -13  -2   1  -11.58   87.27
  13   2   1  -80.14   41.47
 -13  -2   1  -22.76   59.97
 -13  -1  -1  266.80   60.83
  13   1  -1   89.28   94.00
 -13  -1  -1   18.25   92.97
  13   1  -1   57.36   45.78
 -13  -1   1   -5.56   57.93
  13   1   1   47.62   40.07
  13   1   1  322.64   94.98
 -13  -1   1   12.11   90.30
 -13   0  -1   77.50  102.69
  13   0  -1  -19.14   87.82
  13   0  -1   40.23   40.77
 -13   0   1  -17.23   61.34
 -13   0   1    6.56  104.30
  13   0   1   74.71   46.99
  13  -1  -1  184.51   90.61
 -13   1  -1  125.58  111.21
 -13   1  -1   -6.04   45.63
  13  -1  -1   86.08   48.60
  13  -1   1   -6.61   83.71
 -13   1   1   -7.17  109.33
 -13   1   1  164.90   56.54
  13  -1   1  109.50   45.03
  13  -2  -1   -5.72   46.88
 -13   2  -1   -7.48  109.31
  13  -2   1  -27.83   43.82
 -13   2   1   38.60  117.18
 -13   5  -1  -23.79   61.78
  13  -5   1   -6.64   34.26
  14   7  -1 -142.12  114.73
 -14  -6  -1    6.99   90.85
  14   6  -1  -12.01   49.75
  14   6  -1  294.11  116.48
  14   6   1  -23.20  110.74
 -14  -6   1  154.81   94.11
  14   3  -1  -22.13  116.72
  14   3   1   52.10  103.40
  14   3   1  155.31   46.51
 -14  -2  -1  -93.12   73.92
  14   2  -1   -7.17  105.35
  14   2   1  -44.07   99.24
 -14  -2   1   12.84   65.83
 -14  -1  -1  -83.09   64.45
  14   1  -1   -7.15   97.42
  14   1   1   36.22  104.97
 -14  -1   1   -6.32   70.28
  14   0  -1   -7.13  101.91
 -14   0  -1 -130.77   66.68
 -14   0   1    6.60   71.35
  14   0   1  -29.11   99.17
 -14   1  -1  121.73   67.69
  14  -1  -1   65.51  104.38
 -14   1  -1  524.70  114.01
 -14   1   1   -6.84   73.12
  14  -1   1  -36.67  101.03
 -14   2  -1  -14.49   76.70
  14  -2  -1  108.48  102.25
 -14   2  -1   -8.26  126.29
  14  -2  -1   75.59   48.23
  14  -2   1  -30.56   53.67
  14  -2   1   74.66  100.03
 -14   2   1  -95.19   73.13
 -14   3  -1   -7.63   81.15
 -14   3  -1  244.95  142.25
  14  -3  -1   13.55   59.24
  14  -3  -1   -7.38   95.90
 -14   3   1  176.15   78.32
  14  -3   1   89.81   52.95
  14  -3   1   81.97  106.95
  15   7  -1   85.89  120.04
 -15  -6  -1  144.25  102.82
  15   6  -1   17.03  121.86
  15   6  -1    6.53   48.08
  15   6   1    6.68   50.74
 -15  -6   1  116.71  102.15
  15   6   1  -25.23  126.22
  15   5  -1   59.55  119.12
 -15  -5  -1    7.17   97.89
  15   5  -1   -6.18   47.44
  15   5   1    6.42   50.61
 -15  -5   1  181.95   98.80
  15   5   1   41.89  113.86
  15   4  -1  143.23  129.14
 -15  -4  -1   81.75   95.66
  15   4  -1   -6.00   46.67
  15   4   1    8.39  129.39
 -15  -4   1  226.82  101.99
  15   4   1   -6.09   48.86
 -15  -3  -1  -55.87  104.57
  15   3  -1  244.68  116.64
  15   3  -1    5.74   48.28
  15   3   1   66.16  123.34
 -15  -3   1  -54.87  102.74
 -15  -3   1 -174.28   72.75
  15   3   1  -11.89   48.63
  15   2  -1 -104.55  116.18
  15   2  -1   -5.77   48.51
 -15  -2  -1    7.44   74.18
 -15  -2  -1   -7.21  111.44
  15   2   1    5.82   50.85
  15   2   1 -105.33  116.11
 -15  -2   1 -106.96  110.82
 -15  -2   1    7.28   78.18
  15  -2  -1    6.94   53.74
  15  -2  -1  -39.64  109.96
 -15   2  -1 -355.86  140.82
 -15   2  -1    8.07   81.20
 -15   2   1  137.70   83.75
  15  -2   1  121.97  114.88
 -15   2   1 -103.24  147.59
  15  -2   1  141.21   57.49
 -15   3  -1  -19.27  151.29
 -15   3  -1  102.14   82.90
  15  -3  -1   14.60   59.69
  15  -3  -1 -105.13  112.49
  15  -3   1   24.51  105.00
 -15   3   1   -8.52   83.51
  15  -3   1   84.80   60.64
 -15   3   1  330.05  166.07
  15  -4  -1  142.88  112.92
  15  -4  -1  125.01   67.56
 -15   4   1   35.70   87.80
  15  -4   1  110.23   62.06
  15  -5   1   46.98   58.80
  16   7  -1  169.15  132.69
  16   7   1   37.00  138.69
  16   4  -1   37.16  132.12
  16   4  -1  -13.21   50.74
 -16  -4  -1   59.95  105.06
  16   4   1   -6.72   51.29
 -16  -4   1   35.89   95.15
  16   4   1   74.41  133.08
 -16  -4   1  109.92  108.79
  16   3  -1  -76.19   49.54
  16   3  -1   63.35  134.96
 -16  -3  -1  208.12  113.39
 -16  -3  -1  104.49   93.03
  16   3   1  -64.32  146.38
  16   3   1   19.84   53.55
 -16  -3   1  128.72  115.04
 -16  -3   1   84.87   98.02
 -16  -2  -1   -8.33   87.66
 -16  -2  -1  -47.85  120.94
  16   2  -1 -152.81  139.27
  16   2  -1   96.48   53.98
 -16  -2   1   41.19   83.47
 -16  -2   1    7.89  116.14
  16   2   1   -6.45   54.73
  16   2   1 -108.30  128.98
 -16  -1  -1  209.13  127.22
 -16  -1  -1 -142.05   86.99
  16   1  -1  -44.13  123.82
  16   1  -1    6.52   54.32
  16   1   1   -6.62   55.75
 -16  -1   1   -8.27   87.30
 -16  -1   1   83.21  126.97
  16   1   1   54.07  132.39
  16   0  -1 -133.04  138.40
  16   0  -1   -6.90   50.27
 -16   0  -1 -144.44   98.77
 -16   0  -1    8.76  132.60
 -16   0   1  -76.42   83.24
  16   0   1  -89.55  125.03
 -16   0   1   43.98  139.82
  16   0   1    6.81   57.31
 -16   1  -1 -130.41  141.19
 -16   1  -1 -121.33   98.81
  16  -1  -1  167.56  124.92
  16  -1  -1   14.40   58.29
 -16   1   1   78.40   89.67
  16  -1   1   -7.09   61.91
 -16   1   1    9.53  149.34
  16  -1   1  190.70  127.39
  16  -2  -1    7.60   64.50
 -16   2  -1   -9.97  155.40
  16  -2  -1   17.41  121.81
 -16   2  -1   54.72   94.01
  16  -2   1  -22.05   59.07
 -16   2   1   10.35  167.99
  16  -2   1 -160.78  126.53
 -16   2   1    8.97   95.01
  16  -3  -1   44.37  117.37
 -16   3  -1 -275.13  170.00
  16  -3  -1  -16.02   62.60
 -16   3  -1   46.95   98.80
  16  -3   1  154.36   68.25
  16  -3   1 -179.47  134.63
 -16   3   1 -241.88  177.54
 -16   3   1   46.84   92.07
 -16   4  -1  -11.10  179.52
  16  -4  -1    9.17  115.87
  16  -4  -1   41.91   71.65
  16  -4   1  104.10   67.12
  16  -4   1   -9.20  117.07
 -16   4   1   48.74   81.43
  17   7  -1 -248.96  148.35
  17   7   1   81.21  136.20
  17   6  -1  -10.46  156.83
 -17  -6  -1 -125.39  123.05
  17   6  -1    7.72   62.42
  17   6   1   10.26  162.69
 -17  -6   1  -42.82  119.21
  17   6   1 -278.15   65.84
 -17  -5  -1   60.19  121.47
  17   5  -1  -59.19   54.01
  17   5  -1 -114.54  145.90
 -17  -5   1  -80.44  118.60
  17   5   1  -10.30  158.66
  17   5   1    7.74   59.66
  17   4  -1   -7.26   60.20
 -17  -4  -1    8.30  114.43
 -17  -4  -1 -193.34  115.67
  17   4  -1 -143.04  143.67
 -17  -4   1 -347.64  105.50
  17   4   1   -7.42   57.70
  17   4   1   71.73  149.96
 -17  -4   1    8.04  117.90
  17   3  -1 -151.67  148.72
 -17  -3  -1    9.72  108.61
 -17  -3  -1 -110.40  126.94
  17   3  -1    7.02   61.18
  17   3   1   30.23  140.82
 -17  -3   1 -124.67  109.67
  17   3   1   -7.34   59.01
 -17  -3   1 -133.32  125.30
 -17   3  -1  -11.64  192.96
  17  -3  -1 -213.98  130.67
 -17   3  -1 -145.32  100.95
  17  -3  -1    8.77   72.33
 -17   3   1   10.36   94.65
  17  -3   1   25.36   69.70
  17  -3   1    9.83  137.82
  17  -4  -1  180.30  127.25
 -17   4  -1   21.63  100.14
  17  -4  -1  -18.25   69.93
 -17   4  -1  -48.79  203.05
 -17   4   1 -114.44  217.45
  17  -4   1  231.66  135.07
 -17   4   1  -95.99   91.95
  17  -4   1    8.88   72.56
 -17   5  -1 -330.79  205.70
  17  -5   1    9.14   75.11
  18   7  -1  137.77  177.71
  18   7   1  -33.68  161.51
 -18  -5  -1  132.11  134.18
  18   5  -1    8.10   65.08
  18   5  -1   68.43  170.01
 -18  -5   1  -54.03  130.84
  18   5   1  272.58  170.76
  18   5   1 -110.49   63.68
 -18  -4  -1 -173.19  129.68
  18   4  -1  192.32  175.39
  18   4  -1  -15.95   60.45
 -18  -4  -1  157.34  123.16
 -18  -4   1  -79.36  131.23
 -18  -4   1 -388.55  124.06
  18   4   1  123.73  178.34
  18   4   1   41.87   64.40
 -18  -3  -1  309.48  145.37
 -18  -3  -1   76.02  107.06
  18   3  -1   -7.92   65.56
  18   3  -1  -90.02  173.29
 -18  -3   1   21.65  103.55
  18   3   1   16.26   62.79
  18   3   1 -145.83  161.34
 -18  -3   1 -137.62  139.83
 -18  -2  -1  -54.28  107.73
  18   2  -1    7.84   60.47
  18   2  -1   11.02  171.16
 -18  -2  -1 -234.60  151.28
  18   2   1    8.05   65.85
  18   2   1   22.36  164.85
 -18  -2   1 -161.73  110.05
 -18  -2   1   86.52  144.23
 -18  -1  -1  337.81  158.06
  18   1  -1   16.24   69.68
  18   1  -1  -21.87  149.80
 -18  -1  -1 -131.13  115.25
  18   1   1   11.04  161.80
 -18  -1   1  102.07  159.57
 -18  -1   1   74.73  111.24
  18   1   1   -8.19   67.25
 -18   0  -1 -203.69  170.01
  18   0  -1   -8.39   68.19
  18   0  -1   43.53  145.12
 -18   0  -1  -10.93  105.58
  18   0   1 -122.16  162.52
  18   0   1    8.27   67.21
 -18   0   1  152.93  103.67
 -18   0   1 -161.87  173.76
  18  -1  -1  158.82  144.32
 -18   1  -1  -11.25  175.52
  18  -1  -1  -17.67   74.43
 -18   1  -1  332.90  114.11
  18  -1   1   65.77  144.56
  18  -1   1    8.61   72.93
 -18   1   1   33.24  110.81
 -18   1   1  -34.32  177.95
 -18   2  -1  -47.81  196.71
 -18   2  -1   22.56  114.79
  18  -2  -1  115.81  149.55
  18  -2  -1    9.15   76.75
 -18   2   1   12.33  195.65
  18  -2   1   21.52  149.27
 -18   2   1  178.81  119.99
  18  -2   1    8.94   73.74
  18  -3  -1   42.62  143.65
 -18   3  -1  291.73  212.34
 -18   3  -1   11.49  109.27
  18  -3  -1    9.60   79.35
 -18   3   1  159.14  211.09
  18  -3   1   -9.23   72.96
 -18   3   1   11.47  107.14
  18  -3   1   86.49  146.09
 -18   4  -1 -133.80  224.75
  18  -4  -1  -10.12   66.74
 -18   4  -1  203.23  120.95
  18  -4  -1  164.69  137.86
  18  -4   1   77.00   83.75
  18  -4   1  -55.25  137.40
 -18   4   1  -83.78  234.91
 -18   4   1   11.73   92.66
 -18   5  -1  390.67  219.90
  18  -5   1  -30.04   85.82
  19   7  -1  -12.59  186.58
  19   7   1  297.38  183.97
  19   6  -1  -36.66   70.82
 -19  -6  -1  202.46  153.14
  19   6  -1   88.90  185.96
 -19  -6   1  192.09  147.93
  19   6   1  124.80  196.41
 -19  -6   1 -263.29  141.99
  19   6   1  -85.51   69.12
 -19  -5  -1  -93.44  148.12
  19   5  -1  113.03  191.44
 -19  -5  -1   90.30  145.36
  19   5  -1   -9.05   66.87
 -19  -5   1  -29.63  148.03
  19   5   1    9.35   76.28
 -19  -5   1   12.81  132.28
  19   5   1 -174.13  192.61
  19   4  -1  113.08  171.63
 -19  -4  -1 -175.61  123.14
  19   4  -1   -8.79   76.93
 -19  -4  -1   10.06  141.56
 -19  -4   1   48.28  149.99
  19   4   1   -9.24   73.21
 -19  -4   1   87.65  140.78
  19   4   1  -99.40  189.52
 -19  -3  -1   12.30  118.46
 -19  -3   1   62.23  128.51
 -19   4  -1   14.60  236.48
 -19   4  -1  -39.54  139.66
  19  -4  -1  -10.97   90.04
 -19   4   1   90.85  121.51
  19  -4   1  170.11  152.97
  19  -4   1  -20.97   88.35
 -19   4   1  -61.24  246.86
 -19   5  -1   61.18  259.42
  19  -5   1  -10.96   90.85
  20   6  -1   13.84  168.38
  20   6  -1  -10.01   78.37
 -20  -6   1  143.41  153.76
 -20  -5  -1   11.44  163.52
  20   5  -1 -515.59  215.98
  20   5  -1   -9.93   76.97
 -20  -5   1   32.56  158.30
  20   5   1  -10.32   78.97
 -20  -4  -1  -22.27  156.99
  20   4  -1   -9.91   80.58
  20   4  -1  278.61  194.16
  20   4   1   10.21   84.29
 -20  -4   1  186.57  148.88
 -20  -4   1 -202.73  168.15
  20   3  -1   -9.75   73.42
  20   3  -1 -109.74  201.91
 -20  -3  -1   28.29  147.28
 -20  -3  -1 -114.17  168.21
  20   3   1   55.24  193.48
  20   3   1   10.16   79.96
 -20  -3   1   72.00  147.63
 -20  -3   1   33.42  168.42
 -20  -2  -1   11.96  186.83
  20   2  -1   -9.77   81.48
  20   2  -1  108.94  199.30
 -20  -2  -1  227.06  138.47
  20   2   1  -10.11   74.59
  20   2   1 -450.99  198.85
 -20  -2   1  -70.60  180.50
 -20  -2   1  -55.69  129.93
 -20  -1  -1 -239.66  150.08
  20   1  -1 -108.31  202.10
 -20  -1  -1 -312.97  193.49
  20   1  -1   -9.99   80.63
 -20  -1   1   74.71  193.70
  20   1   1   95.85  198.34
  20   1   1  -10.01   85.56
 -20  -1   1   27.79  137.15
 -20   0  -1  112.90  145.12
 -20   0  -1 -145.47  212.03
  20   0  -1  -13.07  184.71
  20   0  -1   10.32   89.32
 -20   0   1 -310.37  141.32
 -20   0   1  -26.46  205.71
  20   0   1  -10.33   83.81
  20   0   1  162.48  197.00
  20  -1  -1   25.69  181.20
 -20   1  -1 -198.85  147.74
 -20   1  -1  -96.75  229.24
  20  -1  -1   10.69   88.69
  20  -1   1 -145.00  182.34
 -20   1   1   14.02  130.50
 -20   1   1 -266.01  219.39
  20  -1   1   83.73   86.16
 -20   2  -1  259.23  227.19
  20  -2  -1   11.21   96.31
  20  -2  -1   51.33  171.00
 -20   2  -1   42.62  144.38
  20  -2   1   10.85   91.69
  20  -2   1 -104.45  177.44
 -20   2   1   98.26  140.59
 -20   2   1   14.78  242.38
  20  -3  -1  -11.54   97.60
 -20   3  -1  -15.19  250.91
 -20   3   1 -441.10  257.02
  20  -3   1   11.23   99.26
   0   1  -2    1.81    0.83
   1   0  -2    0.56    1.54
   1   0  -2   -0.54    0.99
   0   1  -2   -0.65    1.22
   0   1  -2    1.14    0.91
   0  -1   2   -0.74    0.82
  -1   0   2    0.64    2.05
   0  -1   2    0.31    0.45
   1   1  -2   -0.92    1.45
   2   1  -2  147.91   27.34
   2   1  -2  146.72   23.40
  -2  -1  -2  144.19   24.77
   2   1  -2  123.73   28.94
  -2  -1   2  167.17   26.51
  -2  -1   2  144.49   27.62
   2   1   2   93.55   25.60
  -2   0   2  899.98   33.91
  -2   1  -2  165.48   30.84
   2  -1   2  139.24   31.16
   2  -1   2  191.18   25.56
   2   2  -2  197.98   44.34
   2   2  -2  259.02   43.62
  -2   2  -2  232.52   52.66
  -2  -2   2  236.32   44.33
   3   2  -2 1213.25  255.96
   3   2  -2 1275.18  206.34
  -3  -2   2 1196.09  210.35
  -3  -2   2 1369.50  250.68
   3   1  -2   20.31   12.12
   3   1  -2   36.68    9.04
   3   1  -2   24.37    7.52
   3   1  -2   20.28    7.51
  -3  -1  -2   44.31   11.99
  -3  -1   2   37.01   13.71
   3   0  -2   -4.18    5.62
   3   0  -2    4.99   10.54
  -3   0  -2   -5.96   11.12
   3   0  -2   -6.23    6.74
   3   0  -2    6.97    5.13
  -3   0   2   -3.24    7.73
  -3   0   2   -6.80   10.99
   3   0   2    7.32    5.55
   3   0   2   -3.84   11.22
   3  -1  -2   42.37   13.19
  -3   1  -2   41.08   10.86
   3  -1   2   54.95    9.23
  -3   1   2   40.64   11.98
   3  -1   2   42.88   15.37
  -3   2  -2 1474.26  284.75
   3  -2   2 1268.69  257.01
  -3  -3   2    1.11    7.33
   4   3  -2 1462.86  249.86
   4   3  -2 1355.97  206.15
   4   3  -2 1374.80  238.63
  -4  -3   2  963.88  206.95
  -4  -3   2 1274.65  236.59
   4   2  -2  393.22   82.29
   4   2  -2  444.97   75.81
  -4  -2  -2  426.22   68.52
  -4  -2   2  367.96   71.45
   4   2   2  389.26   79.78
  -4  -2   2  470.40   81.44
   4   1  -2    4.51    7.09
   4   1  -2   -8.85   15.68
  -4  -1  -2   26.06   15.17
   4   1  -2    9.47    4.92
   4   1  -2   11.17    8.10
  -4  -1   2    5.91   17.29
  -4  -1   2   19.77   10.08
   4   1   2   26.47    7.66
   4   0  -2   55.18   12.20
   4   0  -2   67.94   15.10
   4   0  -2   69.68   19.82
  -4   0  -2   87.51   19.28
   4   0  -2   33.09   10.89
  -4   0   2   56.64   14.11
  -4   0   2   83.72   19.41
   4   0   2   36.80   10.67
   4  -1  -2    7.63   18.13
  -4   1  -2   13.35   10.13
   4  -1  -2    6.94    9.70
   4  -1   2   -4.38    9.70
  -4   1   2  -13.32   12.08
   4  -1   2   17.93   17.07
  -4   2  -2  366.48   90.67
   4  -2   2  379.26   70.98
   4  -2   2  378.78   85.25
  -4   3  -2 1141.88  280.11
   5   3  -2  379.30   79.76
   5   3  -2  366.14   71.94
   5   3  -2  405.27   77.20
   5   3  -2  375.27   60.56
  -5  -3   2  292.86   64.40
  -5  -3   2  422.74   72.76
   5   2  -2 1863.10  276.83
   5   2  -2 1897.00  290.72
   5   2  -2 1202.89  230.68
  -5  -2   2 1753.62  299.60
  -5  -2   2 1530.44  257.53
  -5  -1  -2  155.81   32.17
   5   1  -2  171.72   25.40
   5   1  -2  132.69   24.39
   5   1  -2  157.52   27.73
   5   1  -2  110.90   33.33
  -5  -1   2  139.79   27.67
  -5  -1   2   97.52   34.07
  -5  -1   2  143.16   33.90
   5   1   2  111.97   22.89
   5   0  -2    3.45   11.34
  -5   0  -2  -32.99   24.22
   5   0  -2    4.17    8.21
   5   0  -2    9.02   13.35
   5   0  -2   -6.24   21.64
  -5   0   2    4.30   19.66
  -5   0   2    1.72   13.09
   5   0   2  -15.56   10.17
   5  -1  -2  190.29   27.86
   5  -1  -2  178.18   37.05
   5  -1  -2  113.66   27.92
  -5   1   2  146.98   35.79
   5  -1   2  127.70   25.90
   5  -2   2   -2.09  257.82
   6   4  -2   43.18   17.29
   6   4  -2   31.94   31.16
  -6  -4   2   88.02   31.28
   6   3  -2 2096.91  435.66
   6   3  -2 2362.50  421.70
   6   3  -2 2373.98  457.32
   6   3   2 2281.43  337.17
   6   3   2 1692.40  406.09
  -6  -2  -2   67.25   34.63
   6   2  -2   84.16   23.69
   6   2  -2  119.78   26.86
  -6  -2   2  125.97   27.12
   6   2   2  132.32   23.80
   6   2   2  168.56   41.43
   6   1  -2  211.57   42.53
   6   1  -2  218.47   37.79
   6   1   2  247.19   41.94
   6   1   2  235.16   34.30
  -6  -1   2  219.06   50.96
  -6  -1   2  190.47   41.02
   6   1   2  231.54   51.50
   6   0  -2  174.22   31.53
   6   0  -2  171.87   40.92
  -6   0   2  177.01   52.07
   6  -1  -2   91.37   41.17
   6  -1  -2  182.83   52.92
  -6   1  -2  239.63   46.33
  -6   1   2  218.70   51.52
   6  -1   2  195.68   52.82
   6  -1   2  247.93   37.56
   6  -2  -2  159.82   29.51
   6  -2  -2  139.26   41.44
  -6   2  -2  161.19   34.86
  -6   2   2  162.74   38.40
   6  -2   2  123.19   28.00
   6  -2   2  113.30   42.65
   6  -3   2 2593.92  419.92
  -6   4  -2  114.79   32.84
   7   3  -2  371.16   89.04
   7   3  -2  423.21   67.45
   7   3  -2  337.53   94.01
  -7  -3  -2  349.16   76.23
  -7  -3   2  454.39   80.55
   7   3   2  481.95   88.18
   7   3   2  525.50   67.99
   7   2  -2  110.12   21.99
   7   2  -2   59.47   43.92
   7   2  -2   85.45   21.56
  -7  -2  -2  152.98   38.56
   7   2  -2   41.11   25.14
   7   2   2   97.19   22.59
   7   2   2   99.15   41.91
   7   2   2  140.03   26.21
  -7  -2   2   93.72   25.03
  -7  -2   2   73.58   31.57
  -7  -2   2   73.80   43.38
   7   1  -2  -17.35   17.17
   7   1  -2   -8.47   39.17
   7   1  -2   13.42    9.25
  -7  -1  -2  -13.87   36.53
   7   1  -2  -10.81   15.57
   7   1   2    7.71    9.42
  -7  -1   2   -3.27   12.81
  -7  -1   2   22.60   41.18
  -7  -1   2   -1.35   22.56
   7   1   2   10.84   15.47
   7   1   2   45.68   36.56
  -7   0  -2   -0.87   17.75
   7   0  -2   -4.89   17.74
  -7   0  -2   -0.46    5.98
   7   0  -2    5.95   37.94
  -7   0  -2  -18.02   40.68
   7   0  -2   -4.74   10.72
   7   0  -2   -8.82   21.05
  -7   0   2  -17.36   22.86
   7   0   2    2.26   17.28
   7   0   2   16.76   11.01
  -7   0   2   20.21   31.63
   7   0   2    3.27    5.35
   7  -1  -2    8.44   20.76
   7  -1  -2  -78.40   39.67
   7  -1  -2  -17.72   14.78
  -7   1  -2   29.80   44.94
   7  -1   2  -29.88   18.94
   7  -1   2    3.73    4.18
  -7   1   2  -35.83   26.02
   7  -2  -2  109.99   43.10
  -7   2  -2  132.30   36.67
   7  -2  -2  119.29   27.96
  -7   2   2   77.47   36.04
   7  -2   2  160.86   46.30
   7  -2   2  104.58   21.57
   7  -2   2   92.93   26.10
  -7   3  -2  482.29   97.21
  -7   3   2  426.25   99.43
   7  -3   2  413.04   91.85
   7  -3   2  453.07   75.95
   8   5  -2  993.98  157.52
   8   5  -2  825.58  169.75
  -8  -5   2  649.36  138.43
  -8  -4  -2 1682.60  280.22
   8   4  -2 1555.38  265.80
   8   4  -2 1848.05  349.93
  -8  -4   2 1698.14  282.76
   8   4   2 1795.65  261.92
   8   4   2 1391.04  314.91
  -8   4  -2 1407.90  368.51
   8  -4   2 1830.70  285.89
   8  -4   2 1967.92  326.78
   9   6  -2  353.05   84.75
   9   6  -2  503.28   90.15
   9   5  -2  629.99  119.59
   9   5  -2  475.92   85.84
   9   5  -2  484.79  118.28
   9   5   2  497.03  106.29
  -9  -5   2  571.41  103.13
  -9  -4  -2   34.81   46.89
   9   4  -2   76.45   58.54
   9   4  -2   15.80   23.58
   9   4  -2    2.04   27.01
   9   4   2   -3.48   25.48
   9   4   2   78.83   53.68
  -9  -4   2   66.69   44.91
   9   3  -2 1109.76  207.86
   9   3  -2 1319.02  210.90
  -9  -3  -2 1403.68  170.52
   9   3   2 1220.12  205.73
  -9  -3   2  965.64  175.87
   9   3   2  941.50  151.89
   9   3   2 1083.27  229.15
   9   2  -2   19.74   22.74
  -9  -2  -2   36.34   51.30
   9   2  -2    3.89   54.39
   9   2   2    2.92   22.30
  -9  -2   2   24.89   49.97
   9   2   2   12.45   55.07
  -9  -2   2   -1.54   24.90
   9   1  -2   16.91   11.28
  -9  -1  -2   -7.48   50.29
  -9  -1  -2   18.29   20.41
   9   1  -2   41.18   23.24
   9   1  -2   16.82   24.08
   9   1  -2  -42.01   52.69
  -9  -1   2   38.64   35.95
  -9  -1   2   16.03   29.86
   9   1   2    2.92   22.24
  -9  -1   2   22.41   17.55
  -9  -1   2 -114.49   56.31
   9   1   2   93.05   52.78
   9   0  -2   -3.20   25.66
   9   0  -2    2.31   29.33
  -9   0  -2  -20.03   53.06
   9   0  -2   15.87   49.05
  -9   0  -2   -3.43   29.29
   9   0  -2  -12.55   12.43
  -9   0   2  -10.24   29.54
  -9   0   2   -8.40   58.99
   9   0   2   -8.15   52.79
   9   0   2    6.11   23.84
  -9   0   2    5.46   47.37
  -9   1  -2  -30.76   59.87
   9  -1  -2   18.15   26.70
   9  -1  -2   21.19   50.27
   9  -1  -2   22.54   15.33
  -9   1   2   11.58   36.74
   9  -1   2   16.58   27.52
   9  -2  -2  -24.09   33.24
   9  -2  -2    4.36   51.49
   9  -2  -2   10.56   19.71
  -9   2  -2  -19.89   38.75
   9  -2   2  -21.69   30.46
   9  -2   2   -4.42   60.36
  -9   2   2  -43.83   36.26
   9  -3  -2 1245.40  204.43
  -9   3  -2  799.40  219.16
   9  -3  -2 1155.83  181.21
  -9   3   2 1205.58  225.51
   9  -3   2  867.12  202.91
  -9   4  -2   56.58   50.34
   9  -4   2    4.85   58.45
   9  -4   2   63.15   31.28
   9  -5   2  490.51   93.84
 -10  -5  -2  283.93   80.06
  10   5  -2  470.78   99.67
  10   5  -2  275.68   61.53
  10   5  -2  313.69   82.81
 -10  -5   2  482.22   81.65
  10   5   2  323.31   84.72
  10   4  -2  571.36  106.30
 -10  -4  -2  552.37  121.61
  10   4  -2  619.46  155.82
  10   4  -2  595.28  140.76
 -10  -4   2  594.65  124.06
  10   4   2  996.07  145.36
  10   4   2  714.70  104.04
 -10  -3  -2   53.02   57.36
  10   3  -2   89.28   26.81
  10   3  -2   72.86   63.23
  10   3  -2   25.90   25.34
  10   3  -2  122.26   29.46
  10   3   2   34.05   65.26
 -10  -3   2   55.48   60.22
 -10  -3   2   48.47   39.29
 -10  -3   2  103.50   29.15
  10   3   2   49.13   27.72
  10   2  -2  182.31   60.73
  10   2  -2  154.54   32.59
 -10  -2  -2  169.51   61.71
  10   2   2   23.21   68.18
  10   2   2  162.55   32.88
 -10  -2   2   97.34   61.70
  10   1  -2  -21.81   53.32
  10   1  -2  -10.09   22.61
 -10  -1  -2  -29.89   60.05
  10   1   2  -32.36   65.13
 -10  -1   2  -60.49   63.34
  10   1   2   16.66   26.98
 -10  -1   2   69.93   40.78
 -10  -1   2   11.08   36.27
 -10   0  -2   22.77   69.47
 -10   0  -2  124.90   39.48
  10   0  -2   14.68   26.71
  10   0  -2   81.12   65.73
  10   0   2  101.07   30.56
  10   0   2   69.06   66.30
 -10   0   2   14.29   72.77
 -10   0   2   39.15   38.28
  10  -1  -2  -28.19   27.81
  10  -1  -2  -76.10   62.93
 -10   1  -2  -34.81   72.26
  10  -1   2  -26.11   27.53
 -10   1   2    4.35   37.84
  10  -2  -2   72.73   62.18
  10  -2  -2  137.15   43.76
  10  -2   2   91.71   38.24
 -10   2   2   58.49   49.53
 -10   3  -2  179.74   53.99
  10  -3  -2  207.39   41.41
  10  -3  -2   77.04   62.01
  10  -3   2   30.66   68.75
  10  -3   2   91.69   39.00
 -10   3   2  145.68   52.79
 -10   4  -2  738.35  151.65
  10  -4  -2  873.09  126.04
  10  -4   2  868.11  142.72
  10  -4   2  621.99  120.54
 -10   5  -2  504.20   91.75
  10  -5   2  393.08   70.24
  11   6  -2   -5.57   78.19
 -11  -6   2  113.98   66.29
  11   3  -2  182.20   44.00
  11   3  -2  145.08   89.14
 -11  -3  -2  283.98   74.25
 -11  -3   2  192.00   73.59
  11   3   2  102.16   83.94
  11   3   2  168.73   43.01
  11   2  -2   29.14   28.97
  11   2  -2   20.16   74.88
 -11  -2  -2  -18.67   66.06
 -11  -2   2  -18.34   69.42
  11   2   2   18.72   31.63
  11   2   2  104.73   78.39
  11   1  -2   94.54   69.66
  11   1  -2   87.74   32.03
 -11  -1  -2  -29.02   71.48
  11   1   2   52.82   30.25
 -11  -1   2   68.27   75.96
 -11  -1   2   42.20   44.21
  11   1   2   -5.26   74.53
  11   0  -2  -10.10   67.97
 -11   0  -2  -53.26   45.47
 -11   0  -2   -5.14   78.04
  11   0  -2   44.93   31.31
 -11   0   2  -80.64   82.81
  11   0   2   47.34   29.91
  11   0   2   -5.19   69.95
 -11   0   2   71.56   45.03
 -11   1  -2   61.56   81.42
  11  -1  -2   26.53   69.03
  11  -1  -2   88.31   36.28
  11  -1   2   -5.35   72.52
 -11   1   2  -11.73   86.57
  11  -1   2    8.36   37.72
 -11   1   2   14.65   46.11
  11  -2  -2   64.02   37.16
  11  -2  -2   48.33   69.27
 -11   2  -2  125.53   92.70
 -11   2   2   21.62   50.18
  11  -2   2   13.34   34.64
 -11   3  -2  250.51   71.50
  11  -3  -2  107.28   76.53
  11  -3  -2  208.43   55.39
  11  -3   2  316.94   88.46
 -11   3   2  236.62   71.01
  11  -3   2  264.27   52.56
  12   7  -2    6.25   80.96
  12   6  -2   25.02   36.89
  12   6  -2   -6.38   88.03
 -12  -6   2    5.63   74.56
  12   6   2   -5.99   61.71
  12   5  -2  -12.43   83.54
 -12  -5  -2  -67.09   75.72
  12   5  -2  -27.76   34.94
 -12  -5   2   96.37   74.08
  12   5   2   79.19   41.72
  12   5   2  -80.00   87.30
  12   4  -2   12.95   35.01
 -12  -4  -2   87.15   69.89
  12   4  -2  173.97   91.48
  12   4   2   80.13   85.80
  12   4   2   37.25   33.61
 -12  -4   2  118.35   74.00
  12   3  -2   17.52   87.22
 -12  -3  -2  -56.42   78.49
  12   3  -2   20.40   34.22
  12   3   2   91.93   36.39
 -12  -3   2    4.99   74.12
  12   3   2  -29.77   80.86
  12  -3  -2  111.31   77.08
  12  -3  -2    5.81   49.78
 -12   3  -2    6.30   52.46
  12  -3   2  -15.87   41.37
 -12   3   2   32.34   56.58
  12  -4  -2  106.05   50.47
 -12   4  -2  142.62   63.75
 -12   4   2   48.54   59.26
  12  -4   2  154.69   83.21
  12  -4   2   39.42   44.36
 -12   5  -2  239.29   60.89
  12  -5   2   83.64   49.21
  12  -5   2   -6.82   60.82
  13   6   2   47.94   91.43
  13   5  -2  193.57   43.09
  13   5  -2   -6.86   87.59
 -13  -5   2  277.32   84.32
  13   4  -2  -33.72   93.70
  13   4  -2   42.97   34.84
 -13  -4   2  -70.76   79.31
  13   3  -2   81.85   39.23
 -13  -3  -2   28.55   84.68
  13   3  -2   26.17   94.13
  13   3   2   -9.74   36.45
 -13  -3   2  -33.21   82.01
  13   2  -2   50.70   88.84
  13   2  -2   55.40   38.35
 -13  -2  -2   46.88   87.43
 -13  -2   2   63.11   88.79
  13   2   2   23.54   35.85
 -13  -2   2    5.59   57.66
 -13  -1  -2  -18.23   92.95
  13   1  -2  133.03   93.83
  13   1  -2   -9.63   41.16
  13   1   2   -6.53   76.23
 -13  -1   2   -6.05   94.81
  13   1   2   -9.46   39.44
 -13  -1   2  -49.68   54.70
  13   0  -2  159.15   85.85
 -13   0  -2  -50.99   96.11
  13   0  -2   35.43   42.83
  13   0   2   -6.57   68.09
  13   0   2    9.95   40.28
 -13   0   2  152.86  105.05
 -13   0   2   81.47   58.67
  13  -1  -2  -39.12   84.68
  13  -1  -2  -49.53   46.13
 -13   1  -2  -13.78  106.40
 -13   1   2  186.40   67.92
  13  -1   2   10.33   42.05
 -13   1   2   29.09  115.93
  13  -2  -2  -23.33   50.52
 -13   2  -2   81.08  115.20
  13  -2   2   32.83   45.16
 -13   5  -2   55.30   79.89
  13  -5   2   -6.47   46.36
  13  -5   2  222.52   98.71
  14   7  -2   23.86  117.14
  14   6  -2   77.81  115.91
 -14  -6  -2   -7.10   93.54
  14   6  -2   11.86   44.38
 -14  -6   2  -46.29   89.37
  14   6   2   92.27  114.67
 -14  -3  -2 -183.95   91.20
  14   3   2    5.42   40.83
  14   3   2   59.54  106.52
 -14  -2  -2  476.48   95.58
  14   2   2    5.24   39.34
  14   2   2   81.19  108.12
 -14  -1  -2   -6.48   69.58
 -14  -1  -2  298.52   94.13
  14   1   2   79.90  109.57
  14   1   2  245.84   51.98
 -14   0  -2   84.22   70.76
  14   0   2    7.34  108.93
  14   0   2  132.10   47.27
 -14   0   2   -6.53   67.79
 -14   1  -2  340.99  119.52
  14  -1  -2  186.52  104.34
 -14   1  -2   88.81   74.84
 -14   1   2    6.94   70.99
  14  -1   2  -96.16  114.49
  14  -1   2  183.50   54.92
 -14   2  -2 -106.12  124.11
  14  -2  -2  102.84   51.29
  14  -2  -2  -57.20   97.00
 -14   2   2  -58.32   69.41
  14  -2   2   98.49  101.74
  14  -2   2  -30.09   49.55
  14  -3  -2    6.93   53.79
 -14   3  -2  -17.20  140.55
  14  -3   2  -31.49   52.72
 -14   3   2  -93.15   74.28
  15   7  -2   69.13  130.45
  15   6  -2  111.91  125.87
 -15  -6  -2  -54.06  102.48
  15   6  -2    6.44   51.28
  15   6   2  175.81  115.28
 -15  -6   2  185.75   97.23
  15   5  -2   12.22   46.06
 -15  -5  -2   58.39  100.39
  15   5  -2 -144.79  128.67
 -15  -5   2  264.01   93.75
  15   5   2  157.62  120.73
  15   5   2    6.50   49.68
  15   4  -2  -33.42  133.04
 -15  -4  -2  151.94   95.96
  15   4  -2   -5.82   48.18
 -15  -4   2  236.93  101.62
  15   4   2   -6.28   50.92
  15   4   2  -58.34  124.74
 -15  -3  -2   35.06   99.11
  15   3  -2   -5.68   42.92
  15   3  -2  -48.54  108.71
 -15  -3   2 -178.58   80.77
  15   3   2  324.60  130.86
  15   3   2   -6.02   49.82
 -15  -3   2  -13.56  101.38
  15   2  -2   39.89  115.65
 -15  -2  -2   45.18   73.38
 -15  -2  -2  -50.66  105.82
  15   2  -2    5.73   45.92
 -15  -2   2   35.48  107.35
  15   2   2   47.29   47.47
 -15  -2   2   21.55   75.55
  15   2   2  154.76  124.33
 -15  -1  -2   22.00   75.01
 -15  -1   2    7.25   73.72
 -15   2  -2  -35.75  137.93
  15  -2  -2   -7.10   56.50
  15  -2  -2  -31.39  100.35
 -15   2  -2   48.60   81.51
 -15   2   2   32.59   76.72
  15  -2   2   -8.32  111.32
 -15   2   2  -57.35  153.72
  15  -2   2  -85.65   56.64
  15  -3  -2  177.72  101.95
  15  -3  -2  104.39   62.60
 -15   3  -2   66.18  144.53
 -15   3   2  -42.66   76.65
  15  -3   2  181.85   62.67
 -15   4  -2   -8.95   85.19
  15  -4  -2   59.08  105.76
 -15   4  -2  -19.83  162.77
  15  -4  -2   16.03   57.17
 -15   4   2    8.91   76.49
  15  -4   2   28.83   59.02
 -15   5  -2  150.21   94.99
  15  -5   2    8.80  117.38
  15  -5   2  -38.26   62.30
  16   7  -2   47.58  128.39
 -16  -4  -2  -91.26  107.49
  16   4  -2  -19.21   50.34
  16   4  -2   92.01  141.59
 -16  -4   2 -237.57   99.30
 -16  -4   2  108.34  108.95
  16   4   2   -6.94   57.50
  16   4   2 -175.43  146.16
 -16  -3  -2    8.82   92.33
  16   3  -2    9.04  129.40
  16   3  -2    6.28   50.14
 -16  -3  -2  209.52  116.07
 -16  -3   2 -166.99   86.34
  16   3   2   55.03  132.33
 -16  -3   2    7.48  108.49
  16   3   2   13.37   43.42
 -16  -2  -2  117.94   83.81
  16   2  -2  151.67  119.84
 -16  -2  -2 -505.69  117.14
  16   2  -2    6.36   49.77
  16   2   2 -171.45  138.81
 -16  -2   2   49.77   81.02
 -16  -2   2   46.95  121.97
  16   2   2    6.57   54.91
 -16  -1  -2 -319.00  124.85
  16   1  -2  -87.75  131.41
  16   1  -2    6.55   54.09
 -16  -1  -2  -82.75   87.87
 -16  -1   2   66.70   82.94
 -16  -1   2  256.80  136.02
  16   1   2   -6.65   55.01
  16   1   2 -145.06  133.74
 -16   0  -2   25.23   83.98
  16   0  -2    6.95   55.45
  16   0  -2  -79.39  127.15
 -16   0  -2  253.54  129.64
 -16   0   2  168.56   91.44
  16   0   2 -117.00  124.62
 -16   0   2  -17.68  139.64
  16   0   2   13.53   59.94
  16  -1  -2   43.10  118.14
 -16   1  -2 -109.98  141.27
  16  -1  -2    7.27   63.52
 -16   1  -2   52.37   93.67
 -16   1   2  -96.80   86.73
  16  -1   2    7.07   60.58
  16  -1   2  -64.02  133.36
 -16   1   2   58.18  148.42
  16  -2  -2  139.29   63.69
 -16   2  -2  107.97  157.87
  16  -2  -2  -86.17  116.27
 -16   2  -2   36.19   91.87
  16  -2   2   36.36   58.93
 -16   2   2  189.13  171.38
  16  -2   2 -199.40  131.74
 -16   2   2   -9.01   87.10
 -16   3  -2 -124.97  172.37
  16  -3  -2   79.36  113.30
  16  -3  -2  -40.66   65.66
 -16   3   2    9.38   87.84
 -16   3   2  -89.68  179.59
  16  -3   2    7.58   60.87
 -16   4  -2  -10.89  167.97
  16  -4  -2    8.72   71.44
 -16   4   2  165.26   86.89
  16  -4   2   94.81   68.84
  17   7  -2  105.39  147.80
 -17  -6  -2  293.15  126.35
  17   6  -2 -105.48  155.30
  17   6  -2   15.18   56.07
  17   6   2 -333.27  154.69
 -17  -6   2 -108.64  119.04
 -17  -5  -2  140.40  125.87
  17   5  -2  125.21  154.19
  17   5  -2    7.31   58.32
  17   5   2  214.30  155.55
 -17  -5   2  134.30  122.19
  17   5   2   -7.84   64.59
 -17  -5   2  188.61  118.27
 -17  -4  -2  -92.31  116.80
  17   4  -2 -132.30  148.66
  17   4  -2   -7.17   55.36
 -17  -4   2   -9.82   98.50
  17   4   2   -7.68   59.35
  17   4   2   10.20  146.66
 -17  -4   2  261.05  128.30
  17   3  -2    6.94   54.91
 -17  -3  -2 -263.55  105.09
  17   3  -2 -171.07  143.72
 -17  -3  -2   77.15  126.62
 -17  -3   2  139.93  124.70
  17   3   2 -121.04  152.75
  17   3   2   22.22   59.18
 -17  -3   2  180.02  103.71
  17  -3  -2   -9.66  134.57
  17  -3  -2    9.02   79.00
 -17   3  -2  261.20  186.05
 -17   3  -2  -10.48  100.41
  17  -3   2   -9.94  134.54
  17  -3   2    8.27   67.91
 -17   3   2  -10.34   91.57
 -17   3   2  -98.57  233.62
 -17   4  -2 -179.10  195.69
  17  -4  -2  -18.71   77.58
 -17   4   2  442.18  236.15
 -17   4   2   74.70   91.53
  17  -4   2    8.64   73.61
 -17   5  -2  -12.45  195.10
 -17   5  -2   89.75   97.71
  17  -5   2  -10.51  123.89
  17  -5   2  125.01   77.87
  18   7  -2 -162.20  176.47
  18   5  -2   47.92   65.78
 -18  -5  -2  173.57  126.86
  18   5  -2   11.43  161.82
  18   5   2   11.35  170.11
  18   5   2  -25.90   66.51
 -18  -5   2  -25.75  125.22
 -18  -4  -2  -11.31  116.86
  18   4  -2  -31.49   63.62
 -18  -4  -2  -92.67  136.01
  18   4  -2  -56.72  166.62
 -18  -4   2  -17.32  128.08
 -18  -4   2   88.47  127.09
  18   4   2   22.59  167.54
  18   4   2  -16.92   68.06
 -18  -3  -2   10.91  119.71
 -18  -3  -2    9.45  138.39
  18   3  -2    7.66   61.00
  18   3  -2  -22.42  163.40
 -18  -3   2  -36.23  141.38
  18   3   2 -145.01  155.91
 -18  -3   2 -109.22  110.39
  18   3   2    8.36   68.08
  18   2  -2 -252.33  169.81
 -18  -2  -2   59.04  147.42
 -18  -2  -2   10.71  116.66
  18   2  -2    7.79   66.82
 -18  -2   2  371.93  155.54
  18   2   2  -16.19   61.27
 -18  -2   2  -32.61  108.57
  18   2   2  111.99  155.02
  18   1  -2    8.08   66.65
 -18  -1  -2  -10.24  157.72
  18   1  -2   65.59  149.92
 -18  -1  -2 -172.61  111.60
 -18  -1   2  193.94  111.46
 -18  -1   2   20.30  156.04
  18   1   2 -121.78  171.34
  18   1   2   73.48   66.91
 -18   0  -2   10.72  162.21
 -18   0  -2  118.69  118.97
  18   0  -2 -267.59  150.45
  18   0  -2   -8.43   67.24
 -18   0   2  194.45  173.78
  18   0   2  144.15  172.87
 -18   0   2   97.63  114.32
  18   0   2    8.34   64.89
 -18   1  -2   78.09  105.55
 -18   1  -2  -78.33  174.78
  18  -1  -2   73.01  141.96
  18  -1  -2    8.85   75.56
 -18   1   2   43.76  118.56
  18  -1   2   59.96   73.47
 -18   1   2  256.14  189.56
  18  -1   2   11.13  153.55
  18  -2  -2    9.26   78.18
 -18   2  -2   23.43  185.77
  18  -2  -2  187.56  136.24
 -18   2  -2 -125.60  107.12
  18  -2   2  -17.67   73.86
 -18   2   2   77.46  112.65
 -18   2   2  113.29  202.26
  18  -2   2  163.84  160.89
  18  -3  -2   39.08   78.65
 -18   3  -2  -11.61  116.25
 -18   3  -2   12.45  192.37
  18  -3  -2   95.40  139.55
 -18   3   2 -297.34  215.82
  18  -3   2    9.10   76.81
 -18   3   2 -103.09  114.49
  18  -3   2 -218.04  153.34
  18  -4  -2  -20.49   86.98
 -18   4  -2  328.21  210.80
  18  -4   2    9.45   78.66
 -18   4   2 -187.51  112.41
 -18   4   2  -85.55  228.66
 -18   5  -2 -232.36  215.04
  18  -5   2   -9.90   84.50
  19   7  -2  101.68  196.79
  19   6  -2   88.61  182.27
  19   6  -2    8.97   68.46
 -19  -6  -2  -32.82  152.97
 -19  -6   2   19.65  141.73
  19   6   2 -223.92  201.43
 -19  -6   2   78.15  132.60
 -19  -5  -2  168.23  143.78
 -19  -5  -2  148.66  145.65
  19   5  -2  315.84  187.01
  19   5  -2    8.72   66.89
  19   5   2 -423.19  194.49
 -19  -5   2   76.20  128.00
  19   5   2   -9.52   74.02
 -19  -5   2   96.10  145.30
 -19  -4  -2  -71.81  152.67
  19   4  -2   75.52  184.55
 -19  -4  -2   25.13  128.65
  19   4  -2    8.65   71.80
 -19  -4   2  256.53  141.83
 -19  -4   2  -74.67  138.28
  19   4   2   -9.34   75.53
  19   4   2  222.18  174.71
 -19  -3  -2   12.31  128.29
 -19  -3   2   49.55  133.34
  19  -4  -2  156.92   89.56
 -19   4  -2  -14.31  239.23
 -19   4   2 -437.43  248.91
  19  -4   2  -12.23  154.31
  19  -4   2   41.23   86.04
 -19   4   2   12.94  117.06
 -19   5  -2 -374.67  252.99
  19  -5   2   10.73   94.50
  20   6  -2   13.91  190.81
  20   6  -2   -9.77   73.12
 -20  -6   2  -32.10  157.98
  20   5  -2  -19.47   76.66
  20   5  -2  125.70  210.26
 -20  -5   2  -84.43  159.49
 -20  -5   2 -285.41  156.70
  20   4  -2  180.88  208.54
 -20  -4  -2 -147.81  172.17
  20   4  -2  -38.11   74.89
 -20  -4   2   10.41  156.35
  20   4   2   20.66   79.18
 -20  -4   2  -14.29  161.28
  20   3  -2 -205.60  188.10
 -20  -3  -2   13.91  134.29
 -20  -3  -2   23.07  172.83
  20   3  -2  -19.24   70.54
 -20  -3   2 -120.54  172.89
 -20  -3   2  213.38  150.25
  20   3   2  -10.23   80.42
 -20  -2  -2 -156.31  188.87
 -20  -2  -2   97.78  150.11
  20   2  -2   -9.68   80.65
  20   2  -2 -300.14  197.53
 -20  -2   2  197.93  174.29
  20   2   2   10.21   80.82
  20   2   2  109.16  198.07
 -20  -2   2   42.16  152.98
 -20  -1  -2   41.69  155.12
  20   1  -2   80.07  181.77
 -20  -1  -2  -75.37  193.86
  20   1  -2   -9.99   81.43
 -20  -1   2 -123.98  198.77
 -20  -1   2   13.97  148.08
  20   1   2  -27.29  194.25
  20   1   2  -10.17   81.16
  20   0  -2  232.53  186.99
 -20   0  -2  341.38  212.24
 -20   0  -2 -167.90  135.22
  20   0  -2  -10.34   84.07
 -20   0   2  105.77  218.31
 -20   0   2   13.94  136.66
  20   0   2 -287.28  203.41
  20   0   2   10.36   93.66
  20  -1  -2  -42.84   91.44
 -20   1  -2  150.65  213.72
  20  -1  -2   76.23  168.74
  20  -1   2  -10.52   88.15
 -20   1   2  155.02  233.16
 -20   1   2   13.84  131.97
  20  -2  -2 -470.80  180.43
 -20   2  -2 -128.36  223.42
  20  -2  -2  -11.26   94.35
 -20   2   2   29.99  247.30
 -20   2   2  -13.93  122.25
  20  -2   2  -21.52   87.30
 -20   3  -2 -148.50  247.87
  20  -3  -2   12.89  146.82
  20  -3  -2  -35.13   96.88
  20  -3   2  -11.14   98.91
   0   0  -3   -0.66    2.83
   0   0  -3   -3.21    3.01
   0   0   3    0.78    2.59
   0   1  -3 4640.98   86.94
   1   0   3 4883.89   97.93
  -1   0   3 4687.47  119.89
   1   0   3 4700.59   87.78
  -1   1  -3    0.30    1.82
   1   1  -3    6.99    3.90
  -1   1  -3    2.58    3.29
   1  -1   3   -0.30    0.82
   1  -1   3   -1.06    1.73
   2   1  -3 1205.87  226.92
   2   1  -3 1121.45  189.03
  -2  -1   3 1096.27  259.35
  -2  -1   3 1193.88  212.76
   2   0  -3    1.70    4.83
   0   2  -3   -0.66    3.49
  -2   0  -3   -7.48    7.32
   2   0  -3    3.49    6.46
   2   0  -3    1.90    7.00
   2   0   3   -4.15    3.53
   0  -2   3    1.36    4.30
   2   0   3    3.57    7.53
  -2   0   3   -4.44    4.76
  -2   0   3    7.52    9.93
   1   2  -3 1332.09  241.27
   2  -1   3 1322.43  230.90
   2   2  -3   11.01    6.57
   2   2  -3   -1.93    3.27
  -2   2  -3    1.30    6.82
   2   2  -3    0.88    6.92
   2   2  -3   -1.47    4.55
  -2  -2   3    3.22    6.32
   2  -2   3    2.54   10.87
  -2  -2   3    7.85    6.22
   3   2  -3  110.84   31.38
   3   2  -3  153.71   25.00
   3   2  -3  157.04   27.76
   3   2  -3  144.46   30.79
  -3  -2   3  131.35   30.54
  -3  -2   3  127.28   28.22
  -3  -1  -3  579.94   87.09
   3   1  -3  481.81  102.24
  -3  -1   3  572.85  115.84
  -3  -1   3  430.66   95.30
   3   1   3  558.84   87.29
   3   1   3  500.78  102.83
  -3   0  -3  218.01   31.00
   3   0  -3  199.50   34.92
   3   0  -3  154.24   32.17
   3   0  -3  176.93   29.74
   3   0  -3  100.68   37.09
  -3   0   3  162.28   37.97
   3   0   3  162.05   34.73
   3   0   3  194.54   26.28
  -3   0   3  171.78   43.05
  -3   1  -3  477.14  105.45
   3  -1   3  519.63  103.15
   3  -1   3  541.74   85.65
  -3   2  -3  186.12   35.49
   2   3  -3  150.19   30.12
  -2  -3   3  168.27   30.31
   3  -2   3  187.77   27.69
   3  -2   3  171.07   34.98
   3   3  -3    1.21   10.77
   3   3  -3   -6.83    8.03
   3   3  -3   20.79   10.66
  -3  -3   3   14.31    9.66
   4   3  -3    4.95   16.55
   4   3  -3   11.08    8.29
   4   3  -3    1.35   13.06
   4   3  -3   -1.22    9.70
  -4  -3   3   -3.86   11.12
  -4  -3   3   -1.45   15.65
  -4  -2  -3 1510.86  247.46
   4   2  -3 1513.48  287.97
   4   2  -3 1465.06  299.08
   4   2  -3 1441.40  236.89
  -4  -2   3 1494.21  291.65
  -4  -2   3 1420.98  262.10
   4   1  -3  185.67   38.32
   4   1  -3  239.33   41.66
   4   1  -3  249.69   44.94
   4   1  -3  167.81   35.48
  -4  -1  -3  214.42   39.76
  -4  -1   3  251.17   49.58
  -4  -1   3  246.85   43.26
   4   1   3  192.46   34.53
  -4   0  -3   -3.18   16.80
   4   0  -3    9.26   12.33
   4   0  -3    1.70   16.27
   4   0  -3    4.30    8.29
   4   0  -3    7.84    7.21
  -4   0   3   -3.03    9.45
  -4   0   3    5.91   17.41
   4   0   3    6.20    6.98
   4   0   3    3.52   18.02
  -4   1  -3  266.43   44.85
   4  -1  -3  269.00   47.49
   4  -1   3  248.24   36.37
  -4   1   3  253.88   50.79
   4  -1   3  214.57   45.83
  -4   2  -3 1663.13  320.44
   4  -2   3 1651.40  306.34
  -4   3  -3   17.49   18.01
   4  -3   3  -19.07   24.43
   5   3  -3 2064.01  359.32
   5   3  -3 2120.64  386.37
  -5  -3   3 1593.19  322.55
   5   2  -3 4014.87  789.91
   5   2  -3 5180.25  757.97
  -5  -2   3 5595.24  784.11
  -5  -2   3 5260.80  695.66
   5   1  -3  193.97   31.25
   5   1  -3  187.48   41.64
  -5  -1  -3  228.23   38.31
   5   1  -3  170.31   37.00
   5   1  -3  146.62   32.96
   5   1   3  176.38   29.43
  -5  -1   3  232.74   45.11
  -5  -1   3  213.42   41.94
   5   0  -3   87.25   17.24
   5   0  -3  107.84   28.84
  -5   0  -3   26.34   26.31
   5   0  -3   92.21   21.14
   5   0  -3   61.93   16.48
   5   0   3   67.04   15.77
  -5   0   3   68.80   30.21
  -5   0   3   69.54   21.84
   5  -1  -3  235.39   36.07
  -5   1  -3  125.76   44.41
   5  -1  -3  290.67   45.38
   5  -1   3  233.99   32.24
  -5   1   3  294.70   45.60
   5  -2   3   -2.04  691.52
   6   5  -3   96.53   34.41
   6   5  -3   64.77   27.31
   6   4  -3  321.50   79.82
   6   4  -3  304.60   71.40
  -6  -4   3  332.39   71.88
  -6  -3  -3  114.58   32.28
   6   3  -3   75.07   25.25
   6   3   3   92.75   21.45
   6   3   3   84.29   33.18
   6   2  -3   35.55   16.76
   6   2  -3   63.61   12.22
  -6  -2  -3   56.41   31.58
  -6  -2   3   35.60   16.25
   6   2   3   -2.60   30.91
  -6  -2   3   27.64   20.79
   6   2   3   27.62   16.83
  -6  -1  -3   56.72   31.32
   6   1  -3   15.15   10.94
   6   1  -3   33.85   17.46
  -6  -1   3   23.19   21.86
   6   1   3   45.22   15.24
  -6   0  -3  175.80   33.56
   6   0  -3    7.68   12.25
   6   0  -3   14.12   21.14
   6   0   3   47.42   14.39
  -6   0   3   16.10   31.86
   6   0   3  -15.64   32.51
   6  -1  -3    2.79   35.60
  -6   1  -3  193.70   40.09
  -6   1  -3   26.75   21.27
   6  -1  -3   23.97   15.99
  -6   1   3    8.30   23.22
   6  -1   3   41.68   15.77
   6  -1   3  -16.12   35.70
   6  -2  -3   24.55   31.67
  -6   2  -3   34.35   22.53
  -6   2   3   -3.19   23.35
   6  -2   3   57.11   19.06
   6  -2   3   32.25   37.03
  -6   3  -3   96.38   32.35
   6  -3   3   82.29   25.01
   6  -3   3  107.70   40.80
  -6   4  -3  501.73   84.93
   6  -4   3  448.64   81.88
   6  -4   3  485.69   65.46
   7   5  -3   27.33   25.38
   7   5  -3   38.45   40.48
  -7  -3  -3  263.04   62.73
   7   3  -3  349.02   52.85
   7   3  -3  347.82   77.92
   7   3   3  307.59   72.20
   7   3   3  322.92   53.80
  -7  -3   3  257.26   66.69
   7   2  -3    2.06   16.45
   7   2  -3    5.54   34.82
   7   2  -3   16.86   17.11
  -7  -2  -3  -13.79   35.66
   7   2  -3   47.76   12.46
  -7  -2   3   66.72   16.59
  -7  -2   3    1.38   24.04
   7   2   3   -4.72   18.12
   7   2   3   47.01   40.98
  -7  -2   3  -18.25   37.99
  -7  -1  -3   -5.58   35.94
   7   1  -3   39.03   13.17
   7   1  -3   78.67   21.48
   7   1  -3   22.29   35.17
   7   1  -3   17.51   17.55
  -7  -1   3   42.95   28.32
  -7  -1   3   30.06   21.82
   7   1   3   44.01   17.66
  -7  -1   3   94.18   42.10
   7   1   3   41.06   10.84
   7   0  -3  724.92  142.02
   7   0  -3  703.01  125.47
   7   0  -3  680.44  156.52
  -7   0  -3  804.93  126.07
   7   0   3  746.85  107.79
  -7   0   3  735.68  145.06
  -7   0   3  743.51  193.95
   7  -1  -3   14.41   21.05
   7  -1  -3    7.57   16.83
   7  -1  -3   32.40   35.48
  -7   1  -3   36.94   24.45
  -7   1  -3   16.34   44.16
   7  -1   3    3.16   40.05
   7  -1   3   68.64   20.20
  -7   1   3   53.24   31.16
   7  -2  -3  -10.44   34.21
   7  -2  -3   22.95   23.33
  -7   2  -3    3.06   26.65
   7  -2   3    6.79   43.10
   7  -2   3   49.91   21.22
  -7   2   3   18.14   28.93
  -7   3  -3  364.71   77.38
   7  -3   3  467.46   78.35
   7  -3   3  203.02   59.88
   8   6  -3  568.48  104.06
   8   6  -3  451.64   99.90
   8   5  -3  226.57   64.37
   8   5  -3  279.73   42.47
   8   5  -3  238.16   56.97
  -8  -5   3  275.09   57.48
   8   4  -3  152.15   31.65
   8   4  -3   98.54   53.92
   8   4  -3  127.51   37.01
   8   4  -3   69.10   27.05
  -8  -4  -3   64.63   44.06
   8   4   3  221.85   51.09
  -8  -4   3  143.62   33.53
  -8  -4   3  119.47   44.85
   8   4   3  133.62   30.17
  -8  -3   3  434.71   81.70
  -8  -3   3  384.33   85.10
   8  -3   3  525.88   93.91
  -8   4  -3  119.88   45.40
   8  -4   3  122.31   55.01
   8  -4   3   62.76   35.85
   8  -5   3  107.82   48.06
   9   6  -3   14.37   36.16
   9   6  -3   25.42   59.09
   9   5  -3  922.79  182.99
   9   5  -3  901.25  135.67
   9   5  -3  875.88  184.14
  -9  -5   3  815.71  151.20
   9   4  -3  605.76  128.83
   9   4  -3  666.46   97.27
  -9  -4  -3  632.37  109.75
   9   4  -3  734.66  124.79
   9   4  -3  753.08  142.29
  -9  -4   3  460.30  125.94
   9   4   3  554.39   95.28
   9   4   3  769.28  122.13
  -9  -4   3  630.48  112.16
   9   3  -3  206.00   38.67
  -9  -3  -3  152.35   52.64
   9   3  -3  348.14   66.80
   9   3  -3  147.24   32.17
   9   3  -3  143.46   36.11
  -9  -3   3  121.22   50.81
  -9  -3   3  107.42   53.83
   9   3   3  109.03   63.29
   9   3   3  148.48   34.79
  -9  -3   3  192.63   40.38
   9   2  -3   41.98   54.55
   9   2  -3   -1.39   17.07
  -9  -2  -3   29.23   47.50
   9   2  -3   50.42   21.98
  -9  -2   3   74.07   51.47
  -9  -2   3   -1.66   20.80
   9   2   3  123.46   56.93
   9   2   3   77.68   22.53
  -9  -1  -3  -11.22   50.66
   9   1  -3  -11.37   52.70
   9   1  -3   -5.90   23.10
  -9  -1   3    3.83   56.53
  -9  -1   3  -15.85   30.08
  -9  -1   3   -2.20   36.66
   9   1   3  -20.55   55.65
   9   1   3  -11.61   23.50
   9   0  -3    6.48   25.91
   9   0  -3   -1.25   12.70
   9   0  -3    3.95   49.08
  -9   0  -3   99.20   55.24
   9   0  -3   -2.59   30.75
   9   0   3   21.30   23.60
  -9   0   3  -84.81   63.69
  -9   0   3   55.00   48.84
  -9   0   3   10.63   33.76
   9  -1  -3   25.33   52.50
   9  -1  -3  -29.57   28.63
  -9   1  -3  -73.82   62.16
   9  -1  -3   58.89   17.00
  -9   1  -3   77.50   36.34
  -9   1   3    4.00   36.77
   9  -1   3   22.76   25.90
   9  -1   3  -16.86   55.98
  -9   2  -3  -31.88   34.29
   9  -2  -3   74.01   30.18
   9  -2  -3   74.30   52.80
   9  -2  -3   -2.07   22.52
   9  -2   3   39.71   56.00
  -9   2   3   40.38   39.78
   9  -2   3   90.89   28.27
   9  -3  -3  107.69   45.04
  -9   3  -3  189.91   53.89
   9  -3  -3  151.54   61.68
   9  -3   3  180.57   40.58
  -9   3   3  207.67   55.79
   9  -3   3  115.54   64.13
  -9   4  -3  729.59  136.97
   9  -4   3  520.82  128.96
   9  -4   3  576.02  106.94
  -9   5  -3  933.51  184.53
   9  -5   3  767.14  141.96
  10   5  -3  264.14   48.78
 -10  -5  -3  151.56   66.16
  10   5  -3  318.69   63.96
  10   5  -3  223.25   85.38
  10   5   3  343.52   73.29
 -10  -5   3  309.10   71.48
 -10  -4  -3  218.64   57.00
  10   4  -3   72.41   32.35
  10   4  -3  118.56   35.88
  10   4  -3  183.65   67.05
  10   4  -3  164.84   39.76
 -10  -4   3  106.12   61.06
  10   4   3  164.21   36.21
  10   4   3   80.60   65.03
 -10  -4   3  157.25   38.50
  10   3  -3   79.13   29.78
 -10  -3  -3   28.70   54.51
  10   3  -3  141.54   29.70
  10   3  -3   65.70   23.29
  10   3  -3   44.81   64.96
  10   3   3  119.32   28.93
 -10  -3   3   22.12   27.58
 -10  -3   3   94.30   56.69
 -10  -3   3   52.46   37.10
  10   3   3    4.85   66.28
  10   2  -3  119.44   39.53
 -10  -2  -3  165.83   62.01
  10   2  -3  263.61   35.78
  10   2  -3  100.50   65.03
  10   2  -3  155.26   33.20
 -10  -2   3  193.04   65.91
  10   2   3   94.60   33.67
 -10  -2   3  131.25   38.49
 -10  -2   3  184.64   52.45
  10   2   3  193.89   67.09
  10   1  -3  175.01   40.01
 -10  -1  -3  268.79   67.04
  10   1  -3  143.75   64.26
 -10  -1   3  200.37   71.06
  10   1   3   96.01   35.51
 -10  -1   3  161.92   49.60
  10   1   3  164.10   67.48
 -10   0  -3   31.61   64.38
  10   0  -3   29.37   30.36
  10   0  -3   49.36   60.66
 -10   0   3   -4.04   36.55
 -10   0   3   -9.62   71.18
  10   0   3  -24.27   26.93
  10  -1  -3  246.60   44.31
 -10   1  -3   -4.05   49.72
  10  -1  -3  364.02   69.74
 -10   1  -3  206.99   75.95
 -10   1   3  170.63   54.63
  10  -1   3  143.48   39.65
 -10   2  -3  105.46   81.90
  10  -2  -3  155.60   43.79
 -10   2  -3  184.33   52.47
  10  -2  -3  135.98   67.94
 -10   2   3  134.35   55.74
  10  -2   3  159.19   74.40
  10  -2   3  216.01   43.06
 -10   3  -3  110.81   51.63
  10  -3  -3   89.50   36.30
  10  -3  -3  207.74   68.01
 -10   3   3  131.09   47.36
  10  -3   3  -10.30   68.34
  10  -3   3   73.17   35.36
 -10   4  -3   72.25   55.87
  10  -4   3   79.77   71.34
  10  -4   3  118.82   41.23
 -10   5  -3  158.10   74.66
  10  -5   3  140.46   55.25
  10  -5   3  336.46   82.46
  11   7  -3   83.96   80.92
  11   7  -3    3.38   41.33
  11   6  -3   11.41   77.17
 -11  -6   3    5.11   68.29
  11   3  -3   21.73   30.37
  11   3  -3  301.17   74.53
 -11  -3  -3   46.04   64.16
  11   3   3   52.53   32.00
 -11  -3   3   70.71   66.00
  11   3   3  -21.87   81.81
 -11  -2  -3   14.03   63.59
  11   2  -3   93.75   71.45
  11   2  -3  -14.54   27.43
 -11  -2   3    4.25   44.87
 -11  -2   3  -27.27   67.61
  11   2   3 -105.93   72.49
  11   2   3    3.81   28.84
  11   1  -3  -26.67   31.89
  11   1  -3  -49.61   68.63
 -11  -1  -3  -24.17   68.73
  11   1   3  -56.95   33.06
 -11  -1   3    4.88   73.17
 -11  -1   3  -12.67   40.85
  11   1   3   21.17   74.80
 -11   0  -3  466.04  111.48
  11   0  -3  546.93  119.83
  11   0  -3  488.02   85.99
 -11   0   3  319.60  108.32
 -11   0   3  583.73  121.96
  11   0   3  556.82   81.12
 -11   1  -3  -16.50   85.66
  11  -1  -3  -47.31   67.95
  11  -1  -3    9.14   38.43
 -11   1   3   50.17   47.48
  11  -1   3  -12.33   32.83
  11  -2  -3   48.27   68.72
  11  -2  -3   -5.03   36.36
 -11   2  -3   55.51   50.65
 -11   2  -3   11.81   85.74
  11  -2   3   55.48   74.69
 -11   2   3   -5.50   52.50
  11  -2   3   57.00   35.08
  11  -3  -3  114.88   47.24
  11  -3  -3   28.41   66.64
 -11   3  -3   95.28   54.30
  11  -3   3  108.72   74.61
 -11   3   3   12.00   53.12
  11  -3   3   89.60   39.15
  12   7  -3  -70.75   85.99
  12   6  -3   64.40   36.14
  12   6  -3   12.90   94.54
 -12  -6   3  -44.33   75.44
  12   5  -3   82.61   36.30
 -12  -5  -3   11.36   73.57
  12   5  -3  117.08   87.32
  12   5   3   45.08   38.90
  12   5   3  109.09   82.17
 -12  -5   3   29.89   72.15
  12   4  -3   23.80   85.31
 -12  -4  -3  -52.09   69.01
  12   4  -3   17.05   33.51
 -12  -4   3   14.61   69.23
  12   4   3    4.69   35.62
  12   4   3  -30.91   86.96
 -12  -3  -3  -10.29   72.13
  12   3  -3  -22.98   81.72
  12   3  -3   60.83   37.04
 -12  -3   3   49.31   73.01
  12   3   3   48.08   91.34
  12   3   3  110.51   34.22
  12   2  -3  -44.54   80.24
  12   2   3   71.48   84.00
 -12  -2   3   51.00   76.63
 -12  -2   3   82.17   52.11
 -12   2  -3   67.74   56.89
 -12   2   3   97.04   62.38
  12  -2   3   -6.21   83.54
 -12   3  -3   74.64   69.09
  12  -3  -3  -31.02   82.16
  12  -3  -3    5.98   43.91
 -12   3  -3   34.70  105.55
  12  -3   3  -56.88   87.78
 -12   3   3   98.19   64.71
  12  -3   3   46.08   43.45
 -12   4  -3   47.10   63.54
  12  -4  -3  -89.80   50.19
  12  -4   3   55.45   48.07
  12  -4   3   19.33   87.11
 -12   5  -3   -7.27   59.16
  12  -5   3   98.47   51.88
  13   5  -3  329.45  104.32
  13   5  -3   70.54   42.69
 -13  -5   3  130.55   78.41
  13   5   3   -6.90   92.35
  13   4  -3  -46.74   92.41
  13   4  -3   32.99   37.30
 -13  -4   3  123.73   82.48
  13   3  -3   -4.52   38.39
  13   3  -3 -122.96   94.23
 -13  -3   3  -80.84   65.43
 -13  -3   3  -10.96   80.38
 -13  -2  -3  -23.50   87.46
  13   2  -3  -27.31   36.73
  13   2  -3  169.86   99.01
  13   2   3  -76.48   37.56
 -13  -2   3  -51.28   86.30
 -13  -2   3    5.48   57.18
  13   1  -3   50.22   86.33
  13   1  -3    9.59   38.62
 -13  -1  -3   42.68   85.51
 -13  -1   3  -61.61   56.62
 -13  -1   3  -96.77   92.17
  13   1   3   23.96   38.26
 -13   0  -3   44.42   98.85
  13   0  -3   61.09   47.32
  13   0  -3  177.79   89.39
 -13   0   3    6.69  110.24
  13   0   3  221.30   47.33
 -13   0   3   70.95   65.04
 -13   1  -3 -135.49  107.54
  13  -1  -3  -38.38   85.90
  13  -1  -3  -16.57   46.80
 -13   1   3  -66.18  115.75
  13  -1   3   35.89   43.11
 -13   1   3  -12.50   65.27
  13  -2  -3   -6.49   68.05
  13  -2  -3   30.23   47.36
 -13   2   3   -6.68   45.23
 -13   5  -3   95.31   78.13
  13  -5   3   -6.35   47.32
  13  -5   3  -29.57   91.58
  14   7  -3   -7.92  109.75
  14   6  -3    5.85   43.88
  14   6  -3   -7.77  116.79
  14   6   3   53.07  110.10
 -14  -2  -3   65.44   95.17
  14   2   3  -74.02  103.32
  14   2   3   16.00   45.21
 -14  -1  -3  -72.39   71.62
 -14  -1  -3  245.03  102.02
  14   1   3   95.32  105.70
  14   1   3   64.38   45.22
 -14   0  -3   97.71   72.88
 -14   0  -3  283.24  104.82
  14   0   3  147.73  104.55
  14   0   3   82.27   50.27
  14  -1  -3   42.20   89.71
 -14   1  -3   22.51  117.87
  14  -1   3   34.21   48.82
 -14   1   3   34.85   71.94
  14  -2  -3   42.74   89.19
 -14   2  -3  -88.03  121.28
  14  -2  -3   71.70   52.79
 -14   2   3   -8.82  119.74
 -14   2   3    7.36   67.87
  14  -2   3   23.66   51.61
  14  -6   3   29.01   51.09
  15   7  -3   34.63  124.90
  15   6  -3   -6.34   45.14
  15   6  -3   17.27  132.25
 -15  -6  -3  -15.69   99.77
  15   6   3  134.45  121.86
 -15  -6   3  125.89   94.69
 -15  -5  -3    7.47   97.48
  15   5  -3    6.03   43.77
  15   5  -3   34.05  122.25
  15   5   3   -6.59   52.71
 -15  -5   3 -103.30   94.00
  15   5   3  -16.46  118.09
 -15  -4  -3  -56.03   97.20
  15   4  -3  -49.79  126.13
  15   4  -3  -11.47   46.23
  15   4   3  -41.25  119.72
 -15  -4   3   -6.48   93.15
 -15  -4   3  -54.15   85.53
  15   4   3    6.33   50.77
 -15  -3  -3  176.34  103.46
  15   3  -3   -8.02  110.27
  15   3  -3    5.54   45.81
 -15  -3   3  -33.39  102.50
 -15  -3   3   21.84   74.16
  15   3   3   -6.07   51.24
  15   3   3  -91.13  120.25
 -15  -2  -3    7.65   79.28
 -15  -2  -3  152.74  111.24
  15   2  -3    5.68   50.22
  15   2  -3  -47.52  112.03
  15   2   3   24.74  123.88
  15   2   3   -5.94   43.92
 -15  -2   3   77.19  104.11
 -15  -2   3  115.69   76.43
 -15  -1  -3   -7.55  113.56
  15   1  -3  125.00  114.78
 -15  -1  -3  -66.26   74.63
  15   1   3   -5.99   50.66
  15   1   3  -65.25  115.93
 -15  -1   3 -168.18   75.21
 -15  -1   3   -7.43  114.95
 -15   0  -3 -157.13   82.01
  15   0  -3  -78.76  109.58
 -15   0   3   59.65   78.51
  15   0   3   49.42  131.92
 -15   1  -3    8.22  127.51
 -15   1  -3  146.83   81.24
  15  -1  -3  -54.18  101.18
 -15   1   3  -78.60   84.19
 -15   1   3   -8.97  144.08
  15  -1   3  157.43  128.23
  15  -1   3  -19.07   53.10
  15  -2  -3    7.16   62.32
  15  -2  -3   31.18   98.55
 -15   2  -3  -88.12  135.65
  15  -2   3    6.52   58.65
 -15   2   3   -9.71  149.62
 -15   2   3    8.12   78.69
  15  -3  -3  -72.53  100.51
  15  -3  -3   -7.74   67.66
 -15   3  -3 -102.52  153.64
 -15   3  -3   77.11   87.61
 -15   3   3    8.56   77.66
  15  -3   3 -136.43   58.80
 -15   4  -3   89.22   88.00
 -15   4  -3  165.56  153.15
  15  -4  -3   -8.30   64.74
  15  -4   3   -7.07   58.45
  15  -4   3   42.52  114.00
 -15   4   3  -35.93   83.39
 -15   5  -3  123.03   84.85
  15  -5   3   -8.81  110.31
  15  -5   3   81.11   61.48
  15  -6   3  -87.16   65.43
  16   8  -3   -9.52  148.88
  16   7  -3  -76.43  147.93
 -16  -4  -3   30.91  108.63
  16   4  -3 -155.31  136.30
  16   4  -3    6.31   48.16
 -16  -4   3   35.53  107.27
 -16  -4   3  120.78   94.62
  16   4   3   73.41  135.53
  16   4   3  -20.97   53.80
 -16  -3  -3   78.06  114.51
  16   3  -3  179.51  127.48
  16   3  -3    6.21   52.45
  16   3   3  -13.47   53.16
  16   3   3   54.99  137.85
 -16  -3   3   66.26  110.44
 -16  -3   3    8.27   87.54
 -16  -2  -3   88.73  115.40
 -16  -2  -3 -127.73   92.28
  16   2  -3    8.76  127.01
  16   2  -3   25.25   51.78
 -16  -2   3 -132.16  122.04
 -16  -2   3  -98.76   92.22
  16   2   3    6.61   54.49
  16   2   3   -9.06  122.45
  16   1  -3   32.77   57.03
 -16  -1  -3   83.24   91.78
 -16  -1  -3 -125.55  131.14
  16   1  -3  138.96  118.46
  16   1   3   -6.67   54.85
  16   1   3   81.79  133.68
 -16  -1   3   57.75  124.12
 -16  -1   3    8.22   86.03
  16   0  -3   -6.94   59.58
 -16   0  -3   16.94   90.63
  16   0  -3 -130.31  122.18
 -16   0  -3   17.46  132.91
  16   0   3    6.71   56.10
  16   0   3   72.50  128.21
 -16   0   3  -98.36  143.21
 -16   0   3 -204.16   91.25
  16  -1  -3   22.02   63.54
 -16   1  -3    8.63   86.34
 -16   1  -3  254.16  138.90
  16  -1  -3   -8.53  119.98
 -16   1   3 -451.41  153.13
  16  -1   3   -9.16  125.07
 -16   1   3  -96.14   80.70
  16  -1   3  -34.84   59.10
  16  -2  -3 -213.92  118.78
  16  -2  -3   -7.95   66.81
 -16   2  -3  115.46  152.52
 -16   2   3   -8.96   88.67
 -16   2   3  106.64  174.43
  16  -2   3  151.22   61.73
  16  -3  -3 -149.70  111.02
  16  -3  -3    8.32   69.77
 -16   3  -3  142.63  157.13
  16  -3   3   44.56   61.25
 -16   3   3    9.41   84.18
 -16   3   3  171.68  195.23
  16  -4  -3   -8.94   77.21
 -16   4  -3 -156.84   92.61
 -16   4  -3  -85.64  170.39
  16  -4   3   18.66  120.49
  16  -4   3  -62.68   68.30
 -16   4   3   -9.79   80.86
  17   7  -3   84.64  170.79
  17   6  -3   -7.44   53.81
 -17  -6  -3   -9.34  123.38
  17   6  -3   31.58  152.03
  17   6   3 -100.51  149.59
 -17  -6   3  -65.12  120.28
  17   5  -3    7.19   58.73
 -17  -5  -3   72.02  122.64
  17   5  -3   10.33  159.44
 -17  -5   3  181.95  115.74
 -17  -5   3  -76.61  109.55
  17   5   3  -60.96  153.99
  17   5   3    7.96   61.44
  17   4  -3  -34.67   53.09
  17   4  -3   61.00  146.77
 -17  -4  -3    8.53  118.59
  17   4   3  337.09  148.34
 -17  -4   3 -124.40  117.97
  17   4   3    7.73   59.33
 -17  -4   3    9.64  104.88
  17   3  -3   -6.86   54.78
 -17  -3  -3  -68.96   99.65
 -17  -3  -3 -336.31  124.79
  17   3  -3  -50.03  140.74
  17   3   3  -45.60   59.72
 -17  -3   3 -194.65  130.86
  17   3   3  345.48  154.40
 -17  -3   3   95.36  110.60
 -17  -2  -3    9.50  103.35
 -17  -2   3 -104.60   96.96
  17   2   3  100.49  146.01
  17  -3  -3  -86.71  141.67
  17  -3  -3    9.12   74.89
 -17   3  -3  290.39  179.65
  17  -3   3    8.16   65.48
 -17   3   3 -251.08  230.67
 -17   3   3  -61.94  100.80
  17  -4  -3   -9.56   80.27
 -17   4  -3   43.69  111.01
 -17   4  -3  -11.74  186.55
  17  -4   3   50.90   66.79
  17  -4   3   61.49  139.29
 -17   4   3  -13.29  262.82
 -17   4   3  -74.84   93.57
 -17   5  -3  -61.01  185.61
 -17   5  -3  -11.34  103.61
  17  -5   3  -31.64  131.99
  17  -5   3    8.81   75.81
  18   8  -3   92.43  177.96
  18   7  -3   93.68  170.81
 -18  -7   3   -9.15  117.01
  18   5  -3    7.84   61.07
  18   5   3   -8.77   63.60
 -18  -4  -3 -245.39  133.77
  18   4  -3 -180.62  170.77
 -18  -4  -3   34.09  118.33
  18   4  -3    7.76   59.43
  18   4   3  -11.22  171.12
  18   4   3    8.54   66.91
 -18  -4   3  -76.32  121.31
 -18  -4   3  118.98  132.87
 -18  -3  -3 -314.55  141.07
  18   3  -3    7.57   65.82
 -18  -3  -3   76.77  119.57
  18   3  -3   66.19  168.51
  18   3   3  244.59  162.58
  18   3   3   42.00   69.72
 -18  -3   3   35.71  134.17
 -18  -3   3  238.06  118.51
  18   2  -3   -7.74   69.48
  18   2  -3   10.86  153.07
 -18  -2  -3   79.00  149.52
 -18  -2  -3  -42.95  122.99
 -18  -2   3  -56.61  156.29
  18   2   3   33.19   66.50
  18   2   3 -111.71  153.35
 -18  -2   3  256.45  120.06
  18   1  -3    8.05   67.81
  18   1  -3   97.33  159.63
 -18  -1  -3 -174.37  155.12
 -18  -1  -3   86.38  105.77
 -18  -1   3  110.84  163.67
 -18  -1   3  -10.66   99.75
  18   1   3  -78.33  171.91
  18   1   3  -65.26   66.78
  18   0  -3   -8.42   72.63
 -18   0  -3  -21.42  169.86
 -18   0  -3   21.81  110.85
  18   0  -3   10.45  133.79
  18   0   3 -111.18  168.49
  18   0   3   -8.35   70.22
 -18   0   3   43.22  165.90
 -18   0   3  129.16  114.70
  18  -1  -3   26.78   69.74
 -18   1  -3  188.97  176.07
  18  -1  -3 -123.49  138.41
 -18   1  -3   11.07  117.26
 -18   1   3 -176.28  196.02
  18  -1   3  -16.98   72.73
 -18   1   3 -273.52  104.60
  18  -1   3 -225.34  171.87
 -18   2  -3  138.43  114.25
 -18   2  -3  138.38  179.74
  18  -2  -3  332.03  139.06
  18  -2  -3   37.57   78.96
  18  -2   3   22.13  146.53
 -18   2   3   33.30  114.73
  18  -2   3   -8.79   80.41
 -18   2   3  332.75  209.26
 -18   3  -3  -48.70  199.51
  18  -3  -3  -42.30  149.44
  18  -3  -3    9.96   86.78
 -18   3   3  147.58  104.41
 -18   3   3  -13.76  220.01
  18  -3   3    8.99   79.82
 -18   4  -3   76.75  212.86
 -18   4  -3   12.10  118.22
  18  -4  -3   10.42   86.99
 -18   4   3 -145.63  245.99
  18  -4   3    9.24   71.86
  19   7  -3  204.23  183.04
 -19  -7   3  -92.16  136.88
 -19  -7   3    9.82  131.02
  19   6  -3   25.29  183.54
  19   6  -3    8.77   68.86
 -19  -6  -3  123.04  146.02
 -19  -6   3   51.54  134.18
  19   6   3 -221.14  183.36
 -19  -6   3   57.25  140.22
  19   5  -3    8.57   66.87
  19   5  -3 -113.81  179.07
 -19  -5  -3   21.83  151.17
  19   5   3 -321.08  179.02
 -19  -5   3   88.40  127.17
  19   5   3   -9.68   70.71
 -19  -5   3  155.32  133.96
 -19  -4  -3   12.59  128.04
  19   4  -3 -213.11  189.78
 -19  -4  -3 -355.34  153.53
  19   4  -3    8.51   72.47
  19   4   3   -9.43   74.17
 -19  -4   3 -187.90  131.14
 -19  -4   3  -18.61  140.12
  19   4   3   36.90  182.46
 -19  -3  -3   84.24  157.00
 -19  -3  -3 -134.65  127.22
  19   3  -3 -183.95  190.70
  19   3   3 -395.42  183.32
 -19  -3   3   -9.81  151.42
 -19  -3   3  -12.47  123.79
 -19   3  -3 -133.60  220.14
  19  -3  -3   10.90   89.87
  19  -3  -3   23.26  147.69
  19  -3   3   -9.91   86.07
 -19   3   3 -435.53  241.72
 -19   3   3  -37.54  123.32
 -19   4  -3  154.23  231.98
  19  -4  -3  -11.54   93.87
  19  -4   3  -10.15   89.20
 -19   4   3  334.59  263.06
 -19   5  -3 -123.27  131.36
 -19   5  -3 -337.88  249.51
  19  -5   3  -38.12  174.50
  19  -5   3   21.04   87.66
  20   7  -3   41.57  193.07
  20   6  -3  -69.89  215.01
  20   6  -3    9.54   69.10
 -20  -6   3  -82.93  149.68
  20   5  -3 -181.66  207.50
  20   5  -3    9.35   74.43
 -20  -5   3 -453.72  159.23
 -20  -5   3   40.94  155.04
  20   4  -3  -13.75  216.73
 -20  -4  -3 -391.19  180.98
  20   4  -3   -9.34   70.80
 -20  -4   3  155.89  144.24
  20   4   3  -52.10   83.27
 -20  -4   3   50.97  150.65
 -20  -3  -3   46.52  168.74
  20   3  -3 -122.26  195.28
  20   3  -3    9.45   78.21
  20   3   3  -10.32   78.68
 -20  -3   3 -209.76  157.74
 -20  -3   3   64.71  176.01
  20   2  -3  189.06  200.88
 -20  -2  -3  108.76  178.56
 -20  -2  -3 -195.58  111.66
  20   2   3   10.30   87.22
 -20  -2   3  -22.99  179.48
  20   2   3  327.15  199.18
 -20  -2   3  124.93  151.33
 -20  -1  -3  111.95  156.38
  20   1  -3    9.90   83.19
  20   1  -3   52.06  190.09
 -20  -1  -3   12.59  185.74
  20   1   3  -10.20   82.35
 -20  -1   3  -61.65  198.38
 -20  -1   3  -27.65  149.04
 -20   0  -3  -26.18  203.72
  20   0  -3   12.70  167.73
  20   0  -3   10.24   86.63
 -20   0   3  -13.71  140.18
  20   0   3  -20.56   87.45
 -20   0   3 -106.01  209.41
  20  -1  -3   37.63  173.61
 -20   1  -3 -136.26  206.63
 -20   1  -3  -14.24  114.98
  20  -1  -3   10.82   94.74
  20  -1   3 -135.12  180.73
 -20   1   3   13.66  118.30
 -20   1   3   84.95  229.44
  20  -1   3  -10.46   92.21
 -20   2  -3 -197.61  232.82
  20  -2  -3  -22.80   96.82
  20  -2  -3   12.60  170.14
 -20   2   3 -165.94  135.47
 -20   2   3 -137.62  253.35
  20  -2   3  -53.15   94.63
  20  -3  -3  -59.49  104.39
  20  -3  -3   38.50  153.12
 -20   3   3   32.91  268.21
 -20   3   3   13.88   98.46
   0   0   4 4306.66  963.38
   0   1  -4    1.08    3.46
   0   1  -4    0.65    4.72
   1   0  -4   -2.03    6.40
  -1   0  -4   -4.61    4.94
   1   0   4    2.90    6.46
  -1   0   4    4.77   10.57
   0  -1   4   -0.60    5.56
  -1   1  -4   39.66    8.48
  -1   1  -4   48.37    8.58
  -1   1  -4   25.64    7.27
  -1   1  -4   27.62    8.43
   1   1  -4   51.08    9.43
   1  -1   4   29.07    9.54
   1  -1   4   37.39    6.66
  -1  -1   4   27.96   10.61
   1  -1   4   53.58    9.92
   2   1  -4   14.43    5.77
   2   1  -4   19.59    7.50
  -1   2  -4   19.95    6.86
   2   1  -4   19.22    7.68
  -1   2  -4   25.66    6.74
   2   1  -4   24.83    4.35
  -1   2  -4    8.56    5.02
  -2  -1   4   18.03    9.91
   1  -2   4   14.86    5.89
  -2  -1   4   11.15    5.27
   0   2  -4 1128.84  165.94
   2   0  -4 1142.52  154.68
  -2   0  -4 1173.77  141.87
   0  -2   4 1139.16  165.12
   2   0   4 1209.37  138.18
   2   0   4  995.17  163.60
  -2   1  -4   15.63    3.96
  -2   1  -4   12.98   10.39
  -2   1  -4   21.68    5.56
   1   2  -4   15.41    7.53
   2  -1   4    7.10    5.17
   2  -1   4    8.70   10.32
   2  -1   4   10.93    6.33
   2   2  -4  366.70   86.43
   2   2  -4  347.44   74.90
  -2   2  -4  449.90   86.66
   2   2  -4  448.47   81.72
  -2   2  -4  504.55   96.40
   2  -2   4  510.00   88.53
   2  -2   4  517.96   74.15
  -2  -2   4  442.29   80.87
  -2  -2   4  423.25   70.20
   3   2  -4  617.36  122.53
   3   2  -4  446.18  116.66
   3   2  -4  638.14   99.07
  -3  -2   4  668.30  108.63
   3   1  -4  174.19   33.97
   3   1  -4  209.86   36.62
  -3  -1  -4  126.07   33.01
   3   1  -4  196.47   30.41
   3   1  -4  187.51   39.33
  -3  -1   4  203.20   38.64
   3   1   4  199.45   38.40
   3   1   4  120.40   32.48
  -3  -1   4  169.45   42.91
   3   0  -4   -2.74   10.89
   0   3  -4    1.02    6.18
  -3   0  -4   -4.94   11.53
   3   0  -4    9.03   11.17
   3   0  -4    2.25    7.67
   3   0  -4    2.38    6.26
   0  -3   4   -1.03    6.75
  -3   0   4    1.55   16.62
   3   0   4   10.93   12.77
  -3   0   4    2.61    8.19
   3   0   4   -1.01    6.07
  -3   1  -4  231.24   37.25
   3  -1   4  171.87   39.30
   3  -1   4  225.16   30.57
  -3   2  -4  693.40  132.61
   2   3  -4  702.15  115.86
  -2  -3   4  665.10  121.45
   3  -2   4  601.91  126.52
  -3   3  -4 1423.40  282.94
   3   3  -4 1332.46  251.91
   3   3  -4 1227.16  224.16
   3   3  -4 1375.35  257.27
   3  -3   4 1314.56  256.18
  -3  -3   4 1178.66  239.62
   4   3  -4  675.52  119.87
   4   3  -4  592.47  122.89
   4   3  -4  680.68  106.47
  -4  -3   4  678.59  100.89
  -4  -2  -4  381.09   75.75
   4   2  -4  317.18   88.30
   4   2  -4  410.97   83.75
   4   2  -4  488.11   70.65
  -4  -2   4  414.90   80.19
   4   2   4  403.19   84.00
   4   1  -4   12.63    7.40
   4   1  -4    7.30   10.98
   4   1  -4  -13.23   16.01
   4   1  -4    1.92    7.91
  -4  -1  -4   -3.24   15.53
  -4  -1   4    9.66   10.23
  -4  -1   4   20.82   20.13
   4   1   4   23.56    9.29
  -4  -1   4   -4.71   14.79
   4   1   4    1.83   17.32
   4   0  -4 1614.71  372.50
  -4   0  -4 1593.56  307.14
   4   0  -4 1742.83  333.18
   4   0  -4 2256.15  377.10
  -4   0   4 1898.21  454.90
   4   0   4 2118.74  352.93
   4   0   4 1941.70  274.12
  -4   1  -4   -5.38   21.50
  -4   1   4   22.48   13.54
   4  -1   4    3.65   20.20
   4  -1   4    9.49    9.06
  -4   2  -4  524.96   95.02
   4  -2   4  458.77   91.42
   4  -2   4  500.84   77.39
  -4   3  -4  468.01  132.80
   4  -3   4  408.06  103.03
   4  -3   4  897.58  120.60
   4   4  -4  450.28   90.55
   5   4  -4  105.66   35.82
   5   4  -4  100.31   27.39
  -5  -4   4   95.14   31.81
  -5  -4   4  131.01   28.37
   5   3  -4  112.89   18.83
   5   3  -4   46.85   29.81
   5   3  -4   79.23   24.92
  -5  -3   4   98.96   28.82
   5   2  -4  573.80  117.81
   5   2  -4  626.52  105.10
   5   2  -4  586.63   94.66
  -5  -2   4  609.23  107.23
  -5  -2   4  537.45  137.93
   5   1  -4  861.53  144.85
   5   1  -4 1003.33  181.20
   5   1  -4  858.49  161.18
  -5  -1   4  719.73  165.33
   5   0  -4   14.97   11.82
   5   0  -4   -1.84   12.17
   5   0  -4  -15.32   26.89
   5   0  -4    5.34   18.34
  -5   0  -4    2.01   23.63
   5   0   4   -3.13   11.42
  -5   0   4  -16.27   27.54
  -5   0   4  -19.92   15.86
  -5   1  -4 1017.95  168.77
   5  -1  -4  907.42  162.25
   5  -1  -4 1153.32  185.25
  -5   4  -4  208.75   39.21
   5   5  -4  141.34   35.29
  -5  -5   4  139.47   33.27
   6   4  -4   19.25   15.30
   6   4  -4   11.58   20.75
  -6  -4   4   14.89   16.07
  -6  -3  -4   46.04   29.08
   6   3   4   30.59   16.64
   6   2  -4 1581.23  246.57
  -6  -2  -4 2216.73  220.38
   6   1  -4    1.12   11.57
  -6  -1  -4   -9.53   29.73
   6   1  -4  -25.46   18.73
   6   1   4   -7.71   13.94
   6   1   4    2.70   32.08
  -6  -1   4  -19.28   26.16
   6   0  -4  317.58   76.80
  -6   0  -4  382.83   66.31
   6   0  -4  380.35   63.33
  -6   0   4  231.71   97.52
   6   0   4  314.43   53.49
   6   0   4  475.60   73.73
  -6   1  -4   10.90   37.82
   6  -1  -4   -7.00   17.14
   6  -1  -4  -13.95   32.84
   6  -1   4   -8.19   15.86
   6  -1   4   19.16   34.44
  -6   1   4   25.63   23.38
  -6   2  -4 2253.77  278.04
   6  -2   4 2283.28  226.78
  -6   3  -4   59.42   28.06
   6  -3   4   15.56   20.40
   6  -3   4   38.00   38.56
  -6   4  -4   55.72   29.75
   6  -4   4   20.87   39.79
   6  -4   4  -14.19   20.73
   7   6  -4  218.22   63.82
   7   6  -4  271.29   57.10
   7   5  -4   86.87   33.56
   7   5  -4  309.98   52.35
   7   5  -4  171.47   42.95
  -7  -5   4  199.69   37.10
  -7  -3  -4   21.16   34.10
   7   3  -4   20.71   14.85
   7   3  -4   -1.73   17.02
   7   3  -4   40.01   37.88
   7   3  -4   44.10   16.49
   7   3   4   74.10   37.71
   7   3   4   78.15   19.44
  -7  -3   4   23.10   37.29
  -7  -3   4    3.42   20.86
   7   2  -4  -12.41   15.87
  -7  -2  -4    5.58   35.09
   7   2  -4  -30.04   35.65
  -7  -2   4  -10.31   39.23
   7   2   4  -26.86   18.31
  -7  -1  -4    8.42   36.88
   7   1  -4  111.93   17.06
   7   1  -4   58.67   36.90
   7   1  -4   60.45   25.82
   7   1  -4   51.21   18.88
   7   1   4   71.22   16.36
   7   1   4   -3.25   43.03
  -7  -1   4   25.73   42.37
  -7  -1   4   25.37   24.88
  -7  -1   4   61.12   34.53
   7   1   4  103.68   19.43
   7   0  -4   -6.08   33.96
   7   0  -4   -9.11   25.81
  -7   0  -4  -17.39   39.26
   7   0  -4    6.85   13.99
   7   0  -4   -2.57   17.76
   7   0   4   11.33   17.69
  -7   0   4    2.71   23.92
   7   0   4   -9.45   38.61
  -7   0   4  -10.59   39.01
  -7   1  -4   32.21   27.83
   7  -1  -4   22.67   38.34
   7  -1  -4   81.89   21.06
   7  -1  -4   47.61   21.94
  -7   1  -4   25.81   45.45
   7  -1   4   70.01   21.23
  -7   1   4   32.43   32.21
   7  -1   4   61.36   42.20
   7  -2  -4  -13.73   25.26
   7  -2  -4  -10.60   36.56
  -7   2  -4    2.97   26.36
   7  -2   4  -13.63   42.11
  -7   2   4  -22.07   29.15
   7  -2   4   -8.07   18.89
  -7   3  -4   67.33   31.67
   7  -3   4   58.66   45.17
   7  -3   4   32.80   23.14
   7  -5   4  133.49   35.73
   8   6  -4   94.85   51.60
   8   6  -4   95.58   37.61
   8   5  -4  147.15   45.42
   8   5  -4  276.87   59.74
   8   5  -4  147.48   38.86
   8   5  -4  213.93   34.76
  -8  -5   4  195.76   51.60
  -8  -5   4  142.74   41.47
   8   4  -4  118.84   28.87
   8   4  -4  149.58   36.06
  -8  -4  -4  118.33   45.18
   8   4  -4  149.68   28.34
   8   4  -4  222.79   55.99
  -8  -4   4   76.05   33.34
   8   4   4  142.52   48.50
  -8  -4   4   51.34   44.97
   8   3  -4  -12.23   19.20
  -8  -3  -4   16.50   39.64
   8   3  -4   25.58   23.51
   8   3  -4   26.95   15.85
   8   3  -4  -23.13   43.71
  -8  -3   4   31.09   22.09
  -8  -3   4   38.85   45.43
  -8  -3   4   50.21   31.68
   8   3   4  -24.21   20.96
   8   3   4  -14.47   44.62
  -8   3  -4  -27.95   35.77
   8  -3   4   37.55   51.23
   8  -3   4   -3.36   25.31
  -8   4  -4   72.33   45.87
   8  -4   4  123.05   36.34
   8  -4   4   77.61   55.14
  -8   5  -4  141.86   55.88
   8  -5   4  154.45   41.51
   9   7  -4  152.54   48.95
   9   6  -4  857.47  127.43
   9   6  -4  478.17  119.56
   9   5  -4   12.97   58.86
   9   5  -4   21.01   32.06
   9   5  -4   71.48   26.37
   9   5  -4   46.06   24.07
  -9  -5   4   -5.20   28.62
  -9  -5   4   11.27   51.09
  -9  -4  -4 1038.86  164.36
   9   4  -4  810.33  153.49
   9   4  -4 1001.47  189.44
   9   4  -4 1299.83  212.10
   9   4   4  851.42  180.19
  -9  -4   4  928.12  170.97
   9   3  -4  138.13   31.18
   9   3  -4  107.16   60.79
   9   3  -4  201.23   36.80
   9   3  -4   88.07   30.28
  -9  -3  -4  161.95   51.38
   9   3   4  151.78   61.41
  -9  -3   4  150.92   55.62
   9   3   4  114.65   34.43
  -9  -3   4  174.10   47.26
  -9  -3   4  113.03   35.40
   9   2  -4  200.39   37.51
   9   2  -4  165.81   37.26
   9   2  -4  232.28   62.38
  -9  -2  -4  113.94   57.00
   9   2  -4  201.02   44.93
  -9  -2   4  160.20   55.06
  -9  -2   4  187.73   42.53
  -9  -2   4  212.94   61.80
  -9  -2   4  259.44   51.28
   9   2   4  275.33   36.77
   9   1  -4    6.70   15.51
  -9  -1  -4  -33.84   51.13
   9   1  -4   34.13   47.37
   9   1  -4  -11.91   23.50
   9   1   4   -5.92   23.84
  -9  -1   4  -25.51   30.76
  -9  -1   4   27.03   55.80
   9   0  -4   23.90   49.94
  -9   0  -4   -3.90   54.64
   9   0  -4   39.49   25.60
   9   0   4  -46.21   61.76
  -9   0   4   32.17   33.36
   9   0   4  -39.54   23.73
  -9   1  -4   -3.57   34.22
   9  -1  -4  -30.17   31.09
  -9   1  -4  106.72   60.06
   9  -1  -4   45.92   50.07
   9  -1   4  -55.08   60.30
  -9   1   4    8.30   31.08
   9  -1   4    3.19   23.98
  -9   2  -4  128.92   50.25
   9  -2  -4  122.77   46.35
   9  -2  -4  208.13   62.13
  -9   2  -4  106.25   76.17
   9  -2   4  176.80   66.50
  -9   2   4  142.83   55.44
   9  -2   4  165.52   42.71
  -9   3  -4  206.23   52.90
   9  -3  -4  228.76   45.64
   9  -3   4  125.24   39.47
   9  -3   4  117.43   63.93
  -9   3   4  100.80   45.59
  -9   4  -4 1158.38  213.25
   9  -4   4  962.03  167.00
   9  -4   4  984.90  191.72
  -9   5  -4   27.65   47.72
   9  -5   4    4.30   36.13
   9  -5   4  165.19   64.01
  10   7  -4  149.44   57.24
  10   7  -4  366.86   79.03
  10   5  -4  332.00  115.20
  10   5  -4  457.50   99.61
  10   5  -4  386.20   75.37
 -10  -5   4  434.90   93.00
 -10  -5   4  507.17   94.58
  10   4  -4  122.25   33.98
  10   4  -4   87.06   60.57
  10   4  -4   54.42   27.42
  10   4  -4   45.35   24.69
 -10  -4  -4  111.61   54.60
 -10  -4   4   46.53   44.81
  10   4   4   38.03   61.42
  10   4   4   43.95   27.55
 -10  -4   4   38.87   54.53
 -10  -4   4   93.75   31.17
  10   3  -4   92.20   28.12
  10   3  -4  121.76   30.46
  10   3  -4   74.70   33.95
  10   3  -4   26.45   62.98
 -10  -3  -4   45.34   55.92
  10   3   4  230.18   32.70
 -10  -3   4  104.94   58.89
 -10  -3   4  128.35   34.73
 -10  -3   4   92.08   45.45
  10   3   4   68.18   63.00
  10   2  -4   92.06   24.16
 -10  -2  -4   95.95   57.91
  10   2  -4  138.49   34.51
  10   2  -4   83.16   29.59
  10   2  -4   -4.27   66.93
  10   2   4   95.55   32.13
 -10  -2   4  101.49   41.31
 -10  -2   4   18.13   46.10
  10   2   4   96.32   65.02
 -10  -2   4  147.27   61.57
 -10  -2   4   64.97   29.98
  10   1  -4   33.74   27.42
  10   1  -4    4.23   16.39
  10   1  -4   13.04   58.53
 -10  -1  -4    4.29   58.20
  10   1  -4   13.55   34.51
 -10  -1   4   78.58   65.67
 -10  -1   4   88.25   48.01
 -10  -1   4   44.32   36.44
 -10  -1   4   33.81   22.15
  10   1   4   30.31   26.55
  10   0  -4 1115.41  140.84
 -10   0  -4  845.10  126.10
  10   0  -4  683.93  107.52
  10   0  -4  803.44  114.87
  10   0   4  722.44  101.26
 -10   0   4  721.57  139.92
 -10   0   4  712.67  139.48
 -10   1  -4  -14.52   70.28
  10  -1  -4   -4.23   31.66
  10  -1  -4   18.67   55.17
  10  -1  -4   40.20   21.02
 -10   1  -4    4.07   36.62
  10  -1   4  -38.60   63.28
 -10   1   4   37.10   44.12
  10  -1   4    3.62   27.88
 -10   2  -4   75.31   47.58
 -10   2  -4  -10.42   79.10
  10  -2  -4   94.12   43.59
  10  -2  -4  245.03   66.46
  10  -2   4  204.55   73.28
  10  -2   4  159.15   37.99
 -10   2   4  117.00   49.01
 -10   3  -4  100.28   52.46
  10  -3  -4  153.89   42.11
  10  -3   4   79.50   39.98
 -10   3   4  127.05   53.71
  10  -3   4  173.34   70.39
 -10   4  -4   77.66   55.16
  10  -4   4  106.50   71.04
  10  -4   4   71.27   37.08
 -10   5  -4  425.79  106.44
  10  -5   4  688.01  106.75
  10  -5   4  497.84   82.91
  11   7  -4   79.53   83.87
  11   7  -4   31.82   45.06
  11   6  -4   38.36   41.77
  11   6  -4   34.36   84.26
  11   6  -4   62.69   34.07
 -11  -6   4   50.16   66.52
  11   5  -4  142.19   79.46
 -11  -5   4   11.63   31.15
 -11  -5   4   17.87   62.02
  11   5   4  -37.24   70.65
  11   3  -4   45.43   69.02
 -11  -3  -4  -13.88   59.39
  11   3  -4   54.13   30.15
  11   3   4   66.25   76.49
 -11  -3   4  139.73   67.04
  11   3   4   65.07   35.34
 -11  -2  -4  122.21   69.23
  11   2  -4  131.15   73.74
  11   2  -4   86.61   33.39
 -11  -2   4  125.91   70.38
 -11  -2   4   95.68   48.05
  11   2   4  160.06   75.30
  11   2   4   99.76   35.34
  11   1  -4  468.58  136.27
  11   1  -4  557.16   99.89
 -11  -1  -4  659.67  122.90
  11   1   4  686.34   95.02
 -11  -1   4  455.70  132.58
 -11  -1   4  555.88  130.50
  11   0  -4  -16.71   36.17
 -11   0  -4  -85.59   73.61
  11   0  -4   81.42   67.39
 -11   0   4    4.68   44.84
  11   0   4  -11.68   32.61
 -11   0   4  -43.60   84.74
 -11   1  -4  450.52  130.89
  11  -1  -4  763.64  110.62
  11  -1  -4  715.51  135.32
 -11   1  -4  706.44  136.45
  11  -1   4  669.51  141.93
 -11   1   4  661.09  141.09
  11  -1   4  555.02  101.50
 -11   2  -4  112.02   55.68
  11  -2  -4  128.66   46.77
  11  -2  -4   91.64   73.03
 -11   2  -4  -58.28   93.02
  11  -2   4  125.80   40.76
 -11   2   4  138.62   55.15
  11  -2   4   72.77   80.88
  11  -3  -4   -5.63   45.30
 -11   3  -4   83.89   53.52
 -11   3   4   84.36   55.15
  11  -3   4  -11.68   74.85
  11  -3   4   68.52   39.75
 -11   5  -4   99.87   58.67
  11  -5   4   -6.17   74.14
  11  -5   4  -10.42   40.61
  11  -6   4    5.50   42.09
  12   7  -4   52.05   97.08
  12   6  -4   -9.78   37.26
  12   6  -4  -76.39   88.47
 -12  -6   4   38.13   69.87
  12   5  -4   27.24   35.72
  12   5  -4  127.66   90.66
 -12  -5  -4  -11.56   73.39
  12   5   4   25.35   38.17
 -12  -5   4   29.32   68.25
  12   4  -4   58.63   32.91
 -12  -4  -4  -16.25   70.24
  12   4  -4  -76.27   88.73
 -12  -4   4  -62.55   69.03
  12   4   4    4.82   38.64
  12   4   4  -73.67   84.33
  12   3  -4   -5.67   80.27
 -12  -3  -4   77.50   74.34
  12   3  -4  -16.14   32.02
 -12  -3   4  -34.83   53.18
 -12  -3   4  165.64   74.59
  12   3   4   40.82   37.82
  12   3   4  133.15   87.58
  12   2  -4  154.67   48.43
 -12  -2  -4  284.99   81.76
  12   2  -4  149.18   87.77
 -12  -2   4  142.12   70.52
 -12  -2   4  267.77   85.16
  12   2   4  125.39   89.45
  12   2   4  146.22   45.70
 -12  -1   4  -14.76   46.83
 -12   1  -4   63.06   48.47
 -12   2  -4  393.38   77.74
  12  -2  -4  177.55   84.42
 -12   2  -4  221.01  106.07
  12  -2  -4  221.51   56.75
  12  -2   4  312.97   55.56
 -12   2   4  225.65   73.92
  12  -2   4  137.62   96.44
 -12   3  -4  -54.77  106.93
  12  -3  -4   74.26   54.18
  12  -3  -4  294.67   75.69
 -12   3  -4  -31.09   58.81
 -12   3   4   -6.59   60.71
  12  -3   4  -86.14   42.94
  12  -3   4   25.82   82.77
 -12   4  -4   60.79   68.47
  12  -4   4 -116.79   89.29
 -12   5  -4   -7.26   59.42
  12  -5   4  -11.38   45.60
  13   5  -4   -4.98   40.34
  13   5  -4   81.72   99.45
 -13  -5   4   42.62   75.97
  13   5   4   -5.55   35.52
  13   5   4   54.60   99.79
  13   4  -4  178.74   92.19
  13   4  -4  -18.52   37.81
 -13  -4   4   26.52   82.06
  13   3  -4   31.62   88.95
  13   3  -4   44.79   36.99
 -13  -3   4   55.88   58.91
 -13  -3   4  -27.05   79.58
  13   2  -4   31.75   39.21
  13   2  -4  -56.03   84.99
 -13  -2   4  -45.08   86.93
 -13  -2   4  -16.30   58.82
 -13  -1  -4  103.54   91.95
  13   1  -4   71.94   39.46
  13   1  -4   86.73   82.98
 -13  -1   4   51.25   64.01
 -13  -1   4  152.10  100.26
  13   1   4   -4.82   44.12
  13   0  -4   19.06   86.54
 -13   0  -4  -25.35   93.64
  13   0  -4   10.32   39.85
  13   0   4   29.43   42.70
 -13   0   4  -60.93  108.28
 -13   0   4    5.91   60.57
  13  -1  -4  221.45   93.05
 -13   1  -4   -6.70  105.21
  13  -1  -4   78.65   49.70
 -13   1   4   12.74   59.00
 -13   1   4  141.41  122.22
  13  -1   4   -5.10   46.50
  13  -2  -4   37.06   51.51
  13  -2  -4  175.21   74.94
 -13   2   4   -6.70   52.18
  13  -4   4   -7.13   91.39
 -13   5  -4  103.15   74.62
  13  -5   4  -59.14   98.56
  14   8  -4   40.40  111.95
  14   7  -4   86.94  119.51
  14   6  -4 -139.27  109.17
 -14  -2  -4   19.70   98.70
  14   2   4  -42.90   45.75
  14   2   4   -7.47  107.34
 -14  -1  -4  108.59   99.28
 -14  -1  -4   46.69   69.46
  14   1   4  -66.57  114.74
  14   1   4  -64.93   45.79
 -14   0  -4  148.31  111.32
  14   0   4   -5.46   45.23
  14  -1  -4   -6.97   88.54
 -14   1  -4  -73.77  117.36
 -14   1   4   -7.06   67.21
  14  -1   4    5.70   45.53
 -14   2  -4  -39.52  127.15
  14  -2  -4   -6.66   53.99
 -14   2  -4  224.93   81.66
  14  -2  -4  -14.22   93.82
  14  -2   4   81.99   53.66
 -14   2   4  125.23   69.09
  14  -2   4  -77.30  110.57
 -14   6  -4    9.16   79.77
  14  -6   4  -21.36   57.72
  15   7  -4   -8.71  125.38
 -15  -7   4   94.98  100.87
  15   6  -4   12.43   46.69
  15   6  -4  129.94  126.56
 -15  -6   4   61.07   99.48
  15   6   4 -150.97  119.33
  15   5  -4    5.93   47.18
 -15  -5  -4   -7.60  105.44
  15   5  -4  185.23  119.76
  15   5   4 -189.75  122.05
 -15  -5   4  -12.63   91.96
  15   5   4   -6.66   49.34
  15   4  -4   -5.63   47.66
 -15  -4  -4   42.68   99.19
  15   4  -4   24.40  117.83
  15   4   4 -189.84  115.57
 -15  -4   4 -216.82   96.13
 -15  -4   4    7.50   76.56
  15   4   4    6.38   51.74
  15   3  -4   87.47  116.68
 -15  -3  -4  -42.53  103.05
  15   3  -4   27.40   44.05
 -15  -3   4  -93.41   80.49
 -15  -3   4  151.64  104.28
  15   3   4   -6.22   47.68
  15   3   4    8.28  117.99
  15   2  -4   31.06  112.54
 -15  -2  -4   29.21  103.98
  15   2  -4   -5.63   45.69
  15   2   4    8.27  124.38
 -15  -2   4  -13.85  103.97
 -15  -2   4    7.17   70.32
  15   2   4  -11.93   49.86
  15   1  -4   -7.73  103.35
 -15  -1  -4    7.46   78.72
 -15  -1  -4 -286.52  114.39
  15   1  -4    5.93   52.26
  15   1   4   41.98   51.47
 -15  -1   4  155.36  117.69
  15   1   4   32.78  128.78
 -15  -1   4  -86.52   74.64
 -15   0  -4   -7.42   81.70
  15   0  -4   23.25  106.89
 -15   0  -4    7.83  118.99
  15   0  -4   37.73   56.98
 -15   0   4   32.62  128.97
  15   0   4  182.79  121.20
  15   0   4  -54.27   46.37
 -15   0   4  -37.76   75.86
 -15   1  -4   32.62  124.73
  15  -1  -4   -6.80   58.76
  15  -1  -4    7.65  101.99
 -15   1   4   31.26   73.28
 -15   1   4  262.86  149.10
  15  -1   4  -18.84   53.26
 -15   2  -4   86.41  138.70
  15  -2  -4    7.31   62.67
 -15   2  -4  -97.06   91.34
  15  -2  -4  -31.19  102.08
 -15   2   4  -78.98  158.33
 -15   2   4 -155.68   87.26
  15  -2   4  -19.42   50.25
  15  -2   4   42.97  122.88
 -15   3  -4   25.59   79.17
 -15   3  -4   91.98  145.48
  15  -3  -4 -105.25   99.69
  15  -3  -4   -7.93   67.23
  15  -3   4  -13.45   52.14
 -15   3   4   25.69   75.07
  15  -3   4   17.00  111.58
 -15   4  -4  -19.18  155.01
 -15   4  -4   27.00   90.13
  15  -4  -4   -8.49   68.96
  15  -4   4 -154.74  119.75
  15  -4   4  -28.11   62.49
 -15   5  -4   19.93  156.48
 -15   5  -4   66.54   85.27
  15  -5   4   88.44  118.65
  15  -5   4  -57.86   61.35
 -15   6  -4  159.55   89.82
  15  -6   4  161.11   62.70
  16   8  -4   67.17  137.48
  16   7  -4   -9.64  142.38
 -16  -7   4 -202.76  106.62
  16   6  -4 -153.10  134.90
 -16  -6   4  153.44  103.67
  16   6   4   81.78  137.20
 -16  -4  -4   -7.85  112.08
  16   4  -4    6.20   51.03
  16   4  -4  -72.30  139.15
 -16  -4   4   75.70   87.57
 -16  -4   4  118.66  107.87
  16   4   4  -64.18  129.52
  16   4   4   -7.04   55.20
 -16  -3  -4  -86.35  112.36
  16   3  -4   62.21  119.80
  16   3  -4   24.16   49.96
  16   3   4   41.29   56.77
 -16  -3   4   -7.25  111.43
  16   3   4 -129.07  140.13
 -16  -3   4   89.62   86.72
  16   2  -4    6.24   50.13
  16   2  -4    8.67  125.12
 -16  -2  -4  -85.87   94.92
 -16  -2  -4   88.99  118.31
 -16  -2   4   -7.67  110.87
  16   2   4    6.63   51.29
  16   2   4  181.90  132.88
 -16  -2   4  -49.74   89.74
 -16  -1  -4   83.42   99.74
 -16  -1  -4 -384.77  122.93
  16   1  -4   -6.51   57.14
  16   1  -4  -34.69  118.57
 -16  -1   4   -8.28   77.72
 -16  -1   4   98.34  124.76
  16   1   4 -136.97  133.30
  16   1   4    6.65   56.02
  16   0  -4  -90.50   60.92
  16   0  -4   42.38  113.68
 -16   0  -4    8.50   83.82
 -16   0  -4   -8.70  125.95
 -16   0   4 -110.13   86.71
 -16   0   4  -35.94  145.05
  16   0   4    9.21  140.41
  16   0   4   -6.77   57.64
  16  -1  -4   -7.41   61.81
  16  -1  -4  -42.01  117.06
 -16   1  -4  280.14  139.80
 -16   1   4   59.54  155.36
  16  -1   4   75.89   57.06
 -16   1   4   60.65   81.29
  16  -2  -4   48.35   67.18
  16  -2  -4  128.30  108.84
 -16   2  -4  133.01  149.89
 -16   2   4 -249.80  175.88
  16  -2   4   78.65   56.30
 -16   2   4  153.47   95.98
  16  -3  -4   26.47  111.38
 -16   3  -4  -40.12  157.50
  16  -3  -4  -50.97   68.11
 -16   3  -4 -143.75   93.37
  16  -3   4  -73.43   55.77
  16  -3   4   93.31  128.51
 -16   3   4    9.36   83.49
 -16   3   4 -140.18  187.79
  16  -4  -4   -9.16   77.39
 -16   4  -4   63.08  170.24
 -16   4  -4   19.83   93.14
  16  -4   4  -84.04   63.52
  16  -4   4   56.40  125.35
 -16   6  -4   65.29   98.52
  16  -6   4  -41.10   67.60
  17   7  -4   10.61  150.71
 -17  -7   4   83.19  117.18
  17   6  -4   10.50  153.42
  17   6  -4    7.27   54.98
 -17  -6   4 -251.82  117.08
  17   6   4  139.61  153.79
 -17  -6   4 -104.03  123.43
 -17  -5  -4   73.31  124.91
  17   5  -4   -7.07   57.20
  17   5  -4 -153.61  153.71
  17   5   4   -8.06   61.43
 -17  -5   4    9.89  110.51
 -17  -5   4   96.95  109.96
  17   5   4   10.07  151.31
 -17  -4  -4   26.03  121.75
  17   4  -4  120.97  150.54
  17   4  -4   -6.81   55.70
 -17  -4   4    7.62  113.40
  17   4   4  -10.13  148.02
  17   4   4    7.78   62.26
 -17  -4   4   -9.52  104.04
  17   3  -4    6.76   55.13
  17   3  -4  -29.67  136.39
 -17  -3  -4   26.04  118.62
 -17  -3  -4 -148.98  100.58
  17   3   4    7.62   61.47
 -17  -3   4  -55.80  129.08
 -17  -3   4    9.39   91.96
  17   3   4  -10.13  150.22
  17   2  -4  -20.79   57.65
 -17  -2  -4   19.15   95.89
  17   2  -4   -9.64  136.65
 -17  -2  -4  -80.60  127.18
 -17  -2   4 -229.24  132.00
  17   2   4  -30.13  148.47
  17   2   4    7.51   61.40
 -17  -2   4 -111.85   95.03
  17  -2  -4    8.75   73.84
 -17   2  -4   82.96  154.56
  17  -2  -4  -28.12  122.34
 -17   2   4    9.99   88.53
 -17   2   4  -11.91  188.55
  17  -3  -4  -27.79   77.06
 -17   3  -4  -10.60   98.70
 -17   3  -4  -10.92  169.05
  17  -3  -4   38.58  138.43
  17  -3   4   10.20  137.81
 -17   3   4  256.13  231.14
  17  -3   4 -201.73   72.17
 -17   3   4 -133.26  102.28
 -17   4  -4  -68.83  183.28
 -17   4  -4   98.30   97.61
  17  -4   4 -268.34  146.40
  17  -4   4  -41.80   68.17
 -17   5  -4  -47.98  185.47
 -17   5  -4  103.21  107.06
  17  -5   4  -53.01  133.50
  17  -5   4   87.30   76.94
 -17   6  -4   86.96  206.76
 -17   6  -4   83.32  106.53
  17  -6   4  -98.66   74.49
  18   7  -4  -34.88  169.06
 -18  -7   4    8.89  123.16
  18   4  -4  -44.82  164.18
 -18  -4  -4  215.89  142.64
  18   4  -4   14.96   58.80
 -18  -4   4  -65.59  120.99
  18   4   4   22.35  167.83
 -18  -4   4  -33.33  129.07
  18   4   4  -34.33   65.57
 -18  -3  -4   10.98  117.71
 -18  -3  -4  -57.53  134.76
  18   3  -4  -43.67  159.68
  18   3  -4    7.46   62.09
  18   3   4    8.44   65.32
 -18  -3   4   86.92  106.00
  18   3   4 -177.86  162.57
 -18  -3   4  -78.89  135.28
 -18  -2  -4  227.75  148.82
  18   2  -4   -7.70   66.75
 -18  -2  -4   32.34  115.29
  18   2  -4 -140.31  156.10
 -18  -2   4   21.44  104.59
 -18  -2   4  -74.59  153.62
  18   2   4    8.37   68.01
  18   2   4  -11.18  158.84
 -18  -1  -4 -184.57  155.41
  18   1  -4    7.93   69.31
 -18  -1  -4   10.84  104.76
  18   1  -4  159.18  147.41
 -18  -1   4 -139.03  118.36
  18   1   4    8.28   67.80
  18   1   4  258.56  166.31
 -18  -1   4  391.13  163.41
  18   0  -4    8.48   70.61
 -18   0  -4   10.65  162.43
  18   0  -4   51.41  143.97
 -18   0  -4 -165.21  110.53
  18   0   4    8.34   71.58
  18   0   4 -258.24  166.64
 -18   0   4  -97.21  183.87
 -18   0   4   64.62  111.60
  18  -1  -4  -30.56  145.29
  18  -1  -4   17.99   74.46
 -18   1  -4   22.12  177.38
 -18   1  -4  -89.24  115.97
 -18   1   4  -54.10  100.61
 -18   1   4 -189.95  192.88
  18  -1   4  205.67  168.61
  18  -1   4   -8.40   69.92
  18  -2  -4   30.85  140.55
 -18   2  -4  -22.84  177.21
  18  -2  -4    9.52   83.14
 -18   2   4  -25.98  206.89
  18  -2   4  -34.63   74.19
 -18   2   4 -254.68  106.43
 -18   3  -4   47.01  106.21
  18  -3  -4  232.44  139.89
  18  -3  -4   51.27   82.17
 -18   3  -4   59.87  189.65
 -18   3   4 -157.77  113.18
 -18   3   4 -224.15  232.53
  18  -3   4  -62.28   74.28
 -18   4  -4   73.16  126.77
 -18   4  -4  -37.69  208.10
  18  -4   4   79.48  164.01
  18  -4   4   -9.11   82.92
 -19  -7   4   12.88  141.13
  19   6  -4    8.55   64.24
  19   6  -4  -75.74  178.82
 -19  -6   4   73.92  131.97
 -19  -6   4   75.81  128.80
  19   6   4 -182.96  192.65
  19   5  -4   -8.38   64.87
 -19  -5  -4  111.27  152.65
  19   5  -4  226.67  190.59
  19   5   4   -9.80   76.44
 -19  -5   4   37.27  134.62
 -19  -5   4  115.32  137.22
  19   5   4 -257.36  189.02
 -19  -4  -4  141.38  153.10
 -19  -4  -4 -163.47  135.37
  19   4  -4    8.36   61.80
  19   4  -4   36.93  182.57
 -19  -4   4 -200.16  146.31
  19   4   4   38.70   78.32
  19   4   4  122.44  177.21
 -19  -4   4   12.35  118.96
  19   3  -4   36.30  172.16
 -19  -3  -4   95.83  153.40
  19   3  -4  -24.65   64.41
 -19  -3  -4  245.16  139.97
 -19  -3   4  -61.00  123.50
  19   3   4   -9.37   75.54
 -19  -3   4   28.88  145.30
  19   3   4 -245.83  186.38
 -19  -2  -4 -254.65  146.64
 -19   3  -4  234.84  213.40
  19  -3  -4  -11.08   93.29
  19  -3   4    9.86   84.17
 -19   3   4  -49.90  125.53
 -19   3   4-1000.00  248.38
 -19   4  -4  -54.69  230.38
 -19   4  -4   67.62  131.52
  19  -4   4  -87.41  164.68
  19  -4   4  -10.02   87.48
 -19   5  -4  -85.89  244.14
 -19   5  -4 -180.05  126.54
  19  -5   4  370.67  168.71
  19  -5   4  -10.27   86.48
  20   6  -4    9.29   70.36
  20   6  -4  139.16  220.57
 -20  -6   4  270.77  149.58
 -20  -6   4  -84.70  140.62
  20   5  -4 -173.91   75.72
  20   5  -4  222.18  208.21
 -20  -5   4  -14.19  153.40
 -20  -5   4  -38.81  148.17
  20   4  -4  -27.28  221.65
  20   4  -4    9.16   72.97
 -20  -4   4  113.47  155.63
 -20  -4   4 -189.37  151.14
  20   3  -4   67.66  204.87
  20   3  -4   -9.26   78.15
 -20  -3  -4  129.76  172.12
 -20  -3   4   74.10  170.08
 -20  -3   4 -252.02  146.10
  20   3   4  -10.65   81.37
  20   2  -4    9.33   72.54
  20   2  -4  106.14  195.12
 -20  -2  -4  133.40  185.69
  20   2   4  -10.36   82.51
 -20  -2   4  -79.27  182.07
 -20  -2   4 -388.28  152.31
 -20  -1  -4  113.47  191.49
  20   1  -4 -295.29   84.43
  20   1  -4 -255.31  186.18
 -20  -1   4   41.40  133.36
 -20  -1   4   49.11  185.40
  20   1   4  -40.84   83.62
 -20   0  -4  195.70  204.22
  20   0  -4   10.29   88.67
  20   0  -4  -99.86  164.61
 -20   0   4  436.32  218.91
  20   0   4   10.23   88.02
 -20   0   4   13.63  135.05
  20  -1  -4   21.86   94.56
  20  -1  -4 -136.92  172.83
 -20   1  -4   40.70  222.26
 -20   1   4   40.82  122.19
 -20   1   4  128.00  232.64
  20  -1   4  -10.45   91.38
  20  -2  -4 -262.47  164.61
  20  -2  -4  -34.57  101.74
 -20   2  -4  -27.97  227.10
 -20   2   4  232.42  259.68
 -20   2   4  137.05  138.54
  20  -2   4  -21.01   85.64
  20  -3  -4   12.07   98.75
 -20   3   4   16.75  272.58
 -20   3   4 -387.60  110.25
   0   0  -5   -3.30    7.49
   0   0  -5    1.09    6.39
   0   0   5    4.03   11.76
   0   1  -5  363.59   56.66
   0   1  -5  246.80   55.48
  -1   0  -5  304.91   56.71
   0  -1   5  263.27   66.50
   1   0   5  320.43   64.61
  -1   0   5  378.47   71.09
  -1   1  -5   -1.50    6.68
  -1   1  -5   -0.59    4.57
  -1   1  -5    1.63    6.02
   1   1  -5   -5.96    8.04
  -1  -1   5  -11.46   10.20
   1  -1   5    0.75    8.04
   1  -1   5    1.38    3.28
   1  -1   5    4.31    7.32
   2   1  -5  294.87   66.30
   2   1  -5  363.24   58.61
  -1   2  -5  279.16   58.41
  -1   2  -5  405.22   73.95
   1  -2   5  324.11   55.52
   1  -2   5  374.20   67.31
  -2  -1   5  288.38   71.63
   2   0  -5   -9.96    9.68
   0   2  -5    2.75    4.62
   2   0  -5   -1.27    6.69
   0   2  -5    5.97    7.31
  -2   0  -5   -3.73    8.37
   2   0   5   -3.83    5.59
   0  -2   5   -1.64    6.16
   2   0   5   -7.43    9.88
  -2   0   5   -1.66   16.42
   1   2  -5  367.38   55.50
  -2   1  -5  283.89   56.45
   1   2  -5  307.96   60.45
  -2   1  -5  292.96   57.81
   2  -1   5  295.77   50.49
  -1  -2   5  327.59   58.90
   2  -1   5  334.82   61.68
   2  -1   5  350.81   71.56
   2   2  -5    1.71    7.40
   2   2  -5    0.96    3.33
  -2   2  -5   -4.55    6.69
  -2   2  -5   -2.40    4.52
   2   2  -5    4.30    9.38
   2   2  -5   -3.42    5.31
  -2   2  -5   -2.17    7.95
   2  -2   5    4.05    5.69
   2  -2   5    8.10    6.35
   2  -2   5   -1.19   12.46
  -2  -2   5   -2.05    8.03
  -2  -2   5    4.05    7.33
   3   2  -5   89.47   19.41
   3   2  -5  115.27   14.92
   3   2  -5   71.32   20.53
   3   2  -5   43.90   16.75
  -3  -2   5  106.62   20.38
   2  -3   5   94.52   18.69
  -3  -2   5  123.27   24.13
   3   1  -5  379.64   77.95
   3   1  -5  311.53   86.65
   3   1  -5  460.42   73.93
   3   1  -5  453.91   66.86
  -3  -1  -5  334.53   69.11
  -1   3  -5  400.47   80.53
  -3  -1   5  396.90   91.95
   3   1   5  435.74   78.28
   3   1   5  471.75   72.13
   0   3  -5   14.92    6.88
   3   0  -5    1.33    8.87
   3   0  -5   -6.44   13.00
  -3   0  -5   -5.12   12.70
   0   3  -5    5.38    8.15
  -3   0   5   18.60   20.45
   0  -3   5   10.85    8.39
  -3   0   5    8.16    8.85
   3   0   5    3.31    6.16
   3   0   5   -5.63   12.99
  -3   1  -5  501.04   78.14
   1   3  -5  319.39   82.18
  -3   1  -5  456.09   73.50
   3  -1   5  387.03   90.93
   3  -1   5  327.71   78.76
   2   3  -5  111.73   21.24
  -3   2  -5  107.00   18.30
  -3   2  -5   71.81   19.44
  -3   2  -5   90.79   20.97
   3  -2   5  103.70   18.84
   3  -2   5  110.96   16.95
   3  -2   5  112.35   25.19
  -3   3  -5    6.01   13.69
   3   3  -5   10.28    9.36
   3   3  -5    6.97   13.41
   3   3  -5    2.24   13.04
   3  -3   5   13.46   19.61
  -3  -3   5    1.37   10.92
   3  -3   5    5.95   11.06
   4   3  -5 1770.37  282.65
   4   3  -5 1586.56  330.54
   4   3  -5 1837.71  347.79
  -4  -3   5 1742.28  288.01
   4   2  -5  603.99  110.06
   4   2  -5  580.64  103.31
   4   2  -5  439.55   98.23
   4   2  -5  584.29   90.28
  -4  -2   5  524.31  104.11
  -4  -2   5  529.92  100.64
  -4  -2   5  631.49  127.18
   4   1  -5 2043.41  353.78
   4   1  -5 2187.74  406.21
   4   1  -5 2143.98  376.10
  -4  -1  -5 1720.87  321.79
  -4  -1   5 2009.64  420.82
  -4  -1   5 1854.93  442.21
   4   0  -5   -1.81   16.35
   4   0  -5   -9.51   10.34
  -4   0  -5   -4.94   17.92
   4   0  -5   -8.62   17.50
   0   4  -5    4.21    8.00
   4   0  -5  -21.02   11.07
   4   0   5   -1.85   19.25
  -4   0   5   -2.09   24.66
   4   0   5   -5.33    8.99
   0  -4   5   -5.54    8.92
  -4   0   5   -5.25   12.10
  -4   1  -5 2038.05  351.71
   4  -1   5 1674.98  376.11
   4  -1   5 1961.12  306.91
  -4   2  -5  569.56  111.14
   4  -2   5  689.82  113.11
   4  -2   5  580.31   94.90
   4  -3   5 1687.11  292.89
   4  -3   5 1974.00  334.57
   4   4  -5  -11.61   20.01
   4   4  -5    4.63   13.59
  -4  -4   5    8.49   15.95
   5   4  -5   55.31   17.68
   5   4  -5   31.02   28.70
   5   4  -5   58.54   23.72
  -5  -4   5   10.90   19.49
  -5  -4   5   76.96   24.43
   5   3  -5  343.34   77.87
   5   3  -5  380.37   59.43
  -5  -3   5  331.15   67.46
   5   2  -5   23.15   11.66
   5   2  -5   14.73   17.31
   5   2  -5   32.03   23.19
  -5  -2   5   63.27   27.16
   5   2   5   78.02   26.12
  -5  -2   5   30.97   22.63
   5   1  -5  138.42   39.00
   5   1  -5  171.62   29.45
   5   1  -5  162.45   26.80
   5   1  -5  173.21   34.54
  -5  -1   5  132.40   35.13
  -5  -1   5  129.57   42.05
   5   0  -5   50.98   23.64
   5   0  -5   52.63   16.08
   5   0  -5   36.33   15.21
   5   0  -5   58.61   28.10
  -5   0   5   62.28   21.20
  -5   0   5   35.13   33.19
   5  -1  -5  111.36   31.31
  -5   1   5  139.94   37.78
   3   5  -5  369.35   71.64
  -3  -5   5  368.99   71.19
  -5   4  -5   74.89   29.09
   4   5  -5   51.19   18.42
   4   5  -5   45.07   20.88
  -4  -5   5   32.64   20.96
   5  -4   5   79.52   36.07
   5   5  -5   19.24   20.23
   5   5  -5   -4.10   17.91
  -5  -5   5   -8.56   18.71
   6   4  -5  189.48   31.87
   6   4  -5  161.97   38.88
  -6  -4   5  106.45   35.21
   6   3  -5 2260.24  283.29
   6   3  -5   -1.74  310.31
  -6  -2  -5   -2.49   28.90
   6   2  -5   -1.70   12.63
  -6  -2   5   25.71   31.86
   6   2   5    2.34   15.48
   6   2   5   -5.58   30.84
  -6  -1  -5  375.04   61.56
   6   1  -5  376.18   68.90
   6   1   5  326.36   50.75
  -6  -1   5  340.46   80.25
   6   1   5  410.46   71.34
   6   0  -5    9.15   24.92
   6   0  -5   15.29   14.53
  -6   0  -5   14.71   31.71
   6   0   5    5.73   15.04
   6   0   5   30.41   33.84
  -6   0   5   31.54   38.81
   6  -1  -5  259.78   60.50
   6  -1  -5  418.61   72.83
  -6   1  -5  256.46   69.65
   6  -1   5  284.71   73.13
  -6   1   5  203.18   78.14
   6  -1   5  340.23   53.85
  -6   2  -5   12.40   22.18
   6  -2   5   38.13   37.95
   6  -2   5    4.45   17.68
  -6   3  -5 2123.63  344.55
   6  -3   5 2242.45  277.25
   6  -3   5 2302.38  321.74
  -6   4  -5  152.30   44.85
   6  -4   5  212.40   50.64
   6  -4   5   96.82   33.64
   6   6  -5    7.54   27.75
   7   6  -5   10.91   32.30
   7   6  -5   23.12   42.47
  -7  -6   5  -16.57   23.79
   7   5  -5   -2.45   26.51
   7   5  -5    4.51   17.90
   7   5  -5  -34.20   40.19
  -7  -5   5   14.36   20.38
  -7  -5   5    2.91   35.46
  -7  -2  -5   93.35   36.11
   7   2  -5   65.45   21.44
   7   2  -5   89.94   21.06
   7   2  -5   99.57   40.93
  -7  -2   5   51.91   23.12
  -7  -2   5   41.27   42.96
   7   2   5   94.46   22.42
   7   2   5   63.75   42.56
  -7  -1  -5   -2.83   34.94
   7   1  -5  -26.54   15.06
   7   1  -5  -82.21   39.30
   7   1   5   32.90   38.93
   7   1   5   11.39   16.33
  -7  -1   5  -57.17   44.94
  -7  -1   5  -24.18   23.55
   7   0  -5    9.31   34.53
   7   0  -5    5.23   17.84
  -7   0  -5  -34.81   40.34
  -7   0   5   11.62   25.78
  -7   0   5   14.82   42.77
   7   0   5  -13.52   17.64
   7   0   5  -16.04   40.60
  -7   1  -5   -3.16   44.51
   7  -1  -5   24.57   22.12
   7  -1  -5   -9.79   37.67
   7  -1   5    7.10   19.22
  -7   1   5   13.50   27.94
   7  -1   5  -26.20   44.41
  -7   2  -5  104.20   52.06
  -7   2  -5  113.12   31.88
   7  -2  -5   82.32   29.92
   7  -2   5  103.78   25.63
   7  -2   5   54.78   46.17
  -7   5  -5  -22.89   35.74
   7  -5   5   16.96   26.13
   8   7  -5  230.18   59.53
   8   6  -5  389.70   72.28
   8   6  -5  231.61   64.01
  -8  -6   5  218.11   57.02
   8   5  -5  -36.63   31.37
   8   5  -5   -3.66   51.68
   8   5  -5    7.14   19.82
   8   5  -5  -18.02   21.76
  -8  -5   5   16.57   43.28
  -8  -5   5  -10.11   25.70
   8   4  -5   24.48   50.32
   8   4  -5   75.33   21.24
   8   4  -5   17.53   19.66
   8   4  -5   13.67   29.45
  -8  -4   5   11.94   41.78
  -8  -4   5   13.11   23.27
   8   3  -5   32.22   41.60
   8   3  -5    4.95   16.22
   8   3  -5  -19.96   26.00
   8   3  -5   31.39   18.10
  -8  -3  -5  -31.31   40.18
  -8  -3   5  -20.67   46.29
   8   3   5   12.65   22.03
  -8  -3   5  -11.91   21.82
  -8  -3   5   39.96   32.86
   8   2  -5  -12.63   47.66
   8   2  -5   93.92   23.32
  -8  -2   5   60.53   48.26
  -8  -2   5   50.24   31.71
  -8  -2   5   59.63   24.87
  -8  -2   5   65.20   40.94
   8  -2  -5   72.57   49.77
   8  -2  -5  145.73   32.57
   8  -2   5   89.41   27.26
  -8   2   5  100.64   40.85
   8  -2   5   66.99   57.23
  -8   3  -5   66.25   34.80
   8  -3   5  -26.57   26.73
   8  -3   5    4.20   51.56
  -8   4  -5   62.92   40.51
   8  -4   5   17.87   28.12
   8  -4   5   21.46   50.54
  -8   5  -5  -55.01   37.09
   8  -5   5   37.24   52.48
   8  -5   5   45.68   30.11
   9   6  -5  147.83   73.70
   9   6  -5  138.43   56.76
  -9  -6   5  220.24   50.72
   9   5  -5  537.68  107.97
   9   5  -5  569.96   82.68
   9   5  -5  529.79  123.01
   9   5  -5  324.27   95.99
  -9  -5   5  541.48  100.17
  -9  -5   5  549.48   97.42
   9   4  -5   23.90   23.15
   9   4  -5   18.96   28.78
  -9  -4  -5   79.60   50.83
   9   4  -5   66.64   55.50
   9   4  -5   47.70   21.75
  -9  -4   5   -3.41   49.20
  -9  -4   5   30.02   27.64
   9   4   5  122.83   54.83
  -9  -4   5   44.56   44.25
   9   3  -5   63.10   35.13
  -9  -3  -5   98.03   49.33
   9   3  -5   91.14   24.25
   9   3  -5  153.97   57.96
   9   3  -5   60.95   26.42
  -9  -3   5   50.94   52.10
   9   3   5   99.33   28.76
  -9  -3   5  100.38   32.10
  -9  -3   5  104.14   43.19
   9   2  -5   14.03   16.68
   9   2  -5   13.21   28.97
  -9  -2  -5  -14.76   47.79
   9   2  -5   13.93   21.56
   9   2  -5   58.71   48.19
   9   2   5   15.78   24.31
  -9  -2   5    3.47   52.68
  -9  -2   5  -24.70   29.56
  -9  -2   5   31.75   39.42
  -9  -2   5    5.65   21.45
   9   1  -5   30.47   51.92
  -9  -1  -5   41.31   50.01
   9   1  -5   24.34   17.01
   9   1  -5   47.95   24.40
   9   1  -5   53.34   35.65
   9   1   5   38.36   56.17
  -9  -1   5   -3.29   34.38
   9   1   5   11.97   21.70
  -9  -1   5   99.31   45.22
  -9  -1   5   19.27   57.53
   9   0  -5    8.10   55.96
  -9   0  -5   58.44   53.95
   9   0  -5  110.11   40.47
   9   0  -5   27.14   30.62
   9   0  -5  106.63   25.24
  -9   0   5  189.73   61.34
   9   0   5  117.70   27.24
   9   0   5    8.58   58.34
  -9   0   5   67.02   39.24
   9  -1  -5    3.90   29.14
   9  -1  -5    4.17   48.99
  -9   1  -5  -14.52   32.47
   9  -1  -5   47.85   22.74
  -9   1  -5  -58.94   63.74
   9  -1   5   12.92   56.70
  -9   1   5    8.51   40.30
   9  -1   5   56.95   25.19
   9  -2  -5    2.61   22.28
   9  -2  -5   17.49   30.82
  -9   2  -5   42.93   36.71
  -9   2  -5  -27.40   65.38
   9  -2  -5  -13.42   50.52
   9  -2   5    3.42   26.58
  -9   2   5  -18.80   40.51
   9  -2   5    8.98   59.02
  -9   3  -5  145.05   47.74
   9  -3   5  156.41   68.11
   9  -3   5   51.72   32.56
  -9   4  -5   29.68   43.60
   9  -4   5   11.85   30.90
   9  -4   5   72.10   64.09
  -9   5  -5  568.57  115.60
   9  -5   5  479.16  109.83
   9  -5   5  556.83   88.34
   9  -6   5  308.31   50.11
  10   7  -5  282.20   85.52
  10   7  -5  215.73   64.14
  10   5  -5   73.56   30.17
  10   5  -5    2.67   25.59
  10   5  -5   39.77   36.62
  10   5  -5   38.40   64.57
 -10  -5   5   50.48   31.59
 -10  -5   5   27.95   53.35
  10   4  -5  694.72  138.74
  10   4  -5  695.39  144.93
 -10  -4  -5 1001.53  131.66
  10   4  -5  782.75  166.44
  10   4  -5  844.53  115.54
 -10  -4   5  704.93  147.44
 -10  -4   5  737.01  193.80
 -10  -4   5  754.22  135.87
  10   4   5  727.52  113.10
  10   4   5  512.96  144.62
 -10  -3  -5  -12.56   54.01
  10   3  -5   18.86   24.36
  10   3  -5    2.33   30.03
  10   3  -5    4.30   61.70
  10   3  -5   20.44   20.58
 -10  -3   5   19.24   57.31
 -10  -3   5   31.00   42.15
  10   3   5    4.84   63.88
  10   3   5   22.79   26.49
 -10  -3   5   -8.73   26.43
  10   2  -5   51.63   34.08
  10   2  -5   22.42   26.14
 -10  -2  -5   25.10   55.98
  10   2  -5   40.71   20.72
  10   2  -5   -8.44   61.06
 -10  -2   5   79.58   26.41
  10   2   5   84.62   26.10
 -10  -2   5   22.81   46.29
 -10  -2   5   39.19   35.85
 -10  -2   5  181.51   61.71
  10   1  -5  466.77   74.68
  10   1  -5  405.11   70.99
  10   1  -5  321.66  100.27
 -10  -1  -5  509.23   92.24
  10   1  -5  383.66  100.76
  10   1   5  350.52  100.56
 -10  -1   5  288.77   93.70
 -10  -1   5  289.94   98.86
 -10  -1   5  366.76  124.14
  10   1   5  374.23   65.81
 -10   0  -5   39.98   63.19
  10   0  -5  -31.33   37.07
  10   0  -5   33.83   27.93
  10   0  -5   54.73   57.46
  10   0  -5  -48.58   20.13
 -10   0   5   16.83   42.32
 -10   0   5    4.15   65.04
  10   0   5    3.44   29.70
  10   0   5  -19.42   66.90
  10  -1  -5  482.99   78.27
  10  -1  -5  521.46   99.80
 -10   1  -5  437.19  105.05
  10  -1  -5  452.93   80.50
 -10   1  -5  330.88   92.73
  10  -1   5  470.95   71.24
 -10   1   5  394.09   98.65
  10  -1   5  569.86  105.61
 -10   2  -5    8.88   46.27
  10  -2  -5   65.48   28.40
  10  -2  -5   29.65   60.62
 -10   2  -5   -5.15   76.96
  10  -2  -5   91.46   38.18
 -10   2   5   41.52   46.64
  10  -2   5  106.31   73.37
  10  -2   5  103.55   32.61
 -10   3  -5   24.66   46.95
  10  -3  -5   -5.26   36.51
  10  -3   5   47.83   71.45
  10  -3   5   24.35   36.50
 -10   4  -5  829.12  164.97
  10  -4   5  736.24  126.57
  10  -4   5  710.76  155.80
 -10   5  -5   12.08   56.36
  10  -5   5   33.60   72.01
  10  -5   5   37.38   36.31
  11   7  -5   18.48   49.00
  11   7  -5  -34.84   82.26
  11   6  -5  -45.73   78.99
  11   6  -5   23.38   45.15
  11   6  -5   31.00   31.49
 -11  -6   5  -29.62   67.56
  11   5  -5   72.42   45.24
  11   5  -5  170.45   80.60
  11   5  -5  122.28   35.65
  11   5  -5  112.43   36.19
 -11  -5   5   56.90   64.26
 -11  -5   5  112.29   41.39
 -11  -5   5   92.05   65.97
  11   2  -5  487.71   96.35
  11   2  -5  912.57  139.99
 -11  -2  -5  532.55  114.34
 -11  -2   5  364.21  153.25
 -11  -2   5  547.36  120.78
  11   2   5  662.32   90.92
 -11  -2   5  464.97  118.69
 -11  -2   5  535.67  132.80
 -11  -1  -5  106.43   69.77
  11   1  -5   24.41   65.47
  11   1  -5   61.09   31.55
 -11  -1   5  -14.76   78.29
 -11  -1   5   61.88   45.79
  11   1   5    3.84   30.44
 -11   0  -5 1644.74  310.08
  11   0  -5 1209.28  358.68
  11   0  -5 1941.86  288.85
  11   0   5 1685.12  350.24
  11   0   5 1810.38  265.64
 -11   0   5 2062.55  338.25
  11  -1  -5  149.84   65.58
  11  -1  -5   86.50   40.30
 -11   1  -5   23.37   46.20
 -11   1  -5   16.04   83.35
  11  -1   5   16.51   75.92
 -11   1   5  119.80   52.22
  11  -1   5  101.52   35.58
  11  -2  -5  597.92  132.39
  11  -2  -5  748.88  116.44
 -11   2  -5  729.38  134.84
 -11   2  -5  542.93  139.48
  11  -2   5  654.40  140.24
 -11   2   5  906.98  142.17
  11  -2   5  732.21  103.17
 -11   5  -5  324.01   68.61
  11  -5   5  122.20   44.41
  11  -5   5  153.80   77.29
 -11   6  -5    7.10   60.17
  11  -6   5  162.38   46.15
  12   7  -5  111.58   95.77
  12   6  -5   -9.67   36.75
  12   6  -5   75.03   95.60
 -12  -6   5  -16.06   75.21
  12   5  -5    8.95   36.60
 -12  -5  -5   88.46   72.54
  12   5  -5  -47.81   89.31
 -12  -5   5  -19.19   67.40
  12   4  -5   57.71   83.12
  12   4  -5   60.69   33.99
 -12  -4  -5  -49.67   73.53
  12   4   5   43.89   38.07
 -12  -4   5   18.97   71.88
  12   4   5  208.96   83.76
  12   3  -5   11.91   34.51
  12   3  -5   -5.52   83.26
 -12  -3  -5  181.54   77.05
 -12  -3   5   67.51   75.34
  12   3   5  177.92   40.08
 -12  -3   5   96.26   54.12
  12   3   5  183.59   90.34
  12   2  -5   38.36   80.67
  12   2  -5   -8.07   34.27
 -12  -2  -5   37.00   74.92
 -12  -2   5   33.03   49.49
  12   2   5   30.26   34.35
 -12  -2   5   29.93   74.96
 -12  -1  -5  413.23  117.93
  12   1  -5  522.24   90.35
  12   1  -5  561.05  130.66
 -12  -1   5  480.58  123.29
  12   1   5  505.48   84.65
 -12  -1   5  461.53  127.25
  12   0  -5   -9.46   40.53
 -12   0  -5   -5.65   85.40
 -12   0  -5   10.58   55.71
  12   0  -5   39.71   77.74
  12   0   5   -4.37   33.99
 -12   0   5  -79.64   92.60
  12   0   5  -79.44   89.51
 -12   0   5  -21.53   55.76
 -12   1  -5  674.41  131.52
 -12   1  -5  669.14  121.75
  12  -1  -5  335.77   98.18
  12  -1  -5  587.68  123.67
  12  -1   5  618.72   92.78
 -12   1   5  542.06  127.86
  12  -1   5  314.79  134.15
  12  -2  -5  -65.52   77.19
 -12   2  -5  146.94  102.40
  12  -2  -5   34.83   41.57
 -12   2  -5   -5.77   56.93
 -12   2   5   -6.25   58.16
  12  -2   5   25.22   89.01
  12  -2   5  -47.38   39.14
  12  -3  -5   76.25   53.89
 -12   3  -5  203.00   67.69
 -12   3  -5  189.63  107.60
  12  -3   5  135.56   44.30
  12  -3   5  104.78   95.78
 -12   3   5  166.97   65.41
 -12   4  -5   33.57   66.83
  12  -4   5   58.93   93.97
  12  -4   5   41.78   42.28
  12  -5   5    5.62   46.65
  13   5  -5  107.32  102.24
  13   5  -5    9.59   41.85
 -13  -5  -5  283.65   83.19
  13   5   5   81.74   95.72
 -13  -5   5    5.25   80.11
  13   4  -5  -38.75   95.46
  13   4  -5  116.19   37.45
 -13  -4   5  130.55   79.78
 -13  -4   5   17.43   62.81
  13   4   5   20.60   94.19
  13   3  -5   61.77   37.14
  13   3  -5  -24.84   85.42
 -13  -3   5   37.29   79.97
 -13  -3   5  -54.43   56.83
  13   2  -5  326.94  108.16
  13   2  -5  135.42   58.83
 -13  -2   5  367.70  100.90
 -13  -2   5  476.75   91.33
  13   1  -5    6.15   86.42
  13   1  -5   62.15   40.90
 -13  -1   5   48.55   97.48
 -13  -1   5  -56.41   54.01
  13   0  -5  445.50  102.97
  13   0  -5  182.26   61.42
 -13   0   5  241.22   85.95
 -13   0   5  408.04  122.08
  13  -1  -5   -6.28   80.26
  13  -1  -5  -28.38   48.16
 -13   1   5  -70.12   64.21
 -13   1   5  -98.00  124.20
  13  -2  -5  543.05   78.11
  13  -2  -5  666.12  102.05
 -13   4  -5   -7.41   70.23
  13  -4   5    7.21  100.89
 -13   5  -5  -55.57   78.48
  13  -5   5   29.72   99.39
  14   8  -5   55.96  119.49
  14   7  -5   -7.84  114.51
  14   6  -5  208.54  117.22
 -14  -5  -5   42.24   97.37
  14   5   5   76.13  107.31
 -14  -1  -5   81.42   99.80
  14   1   5  -10.75   42.79
 -14   0  -5 -126.66  105.13
  14   0   5  -60.25   44.59
 -14   1  -5  -34.36   73.98
 -14   1  -5   43.90  111.43
  14  -1  -5   -6.89   87.09
  14  -1   5  145.59  106.57
 -14   1   5    7.13   67.51
  14  -1   5   50.65   52.91
 -14   5  -5   52.22   87.40
  14  -5   5  -52.26   55.72
  14  -5   5  130.22  108.59
 -14   6  -5  -45.78   84.90
  14  -6   5  145.38   59.51
  15   6  -5   51.30  125.85
  15   6  -5   -6.10   48.45
 -15  -6   5  -99.32   99.73
 -15  -5  -5  -23.16  100.74
  15   5  -5   74.79  121.34
  15   5  -5   28.51   44.78
 -15  -5   5  147.80   92.86
  15   5   5 -256.17  118.60
 -15  -5   5  -69.99   80.80
  15   5   5    6.73   56.32
 -15  -4  -5 -332.27  102.95
  15   4  -5    7.99  118.92
  15   4  -5   -5.52   45.03
 -15  -4   5  -43.84   96.10
 -15  -4   5  -29.15   80.24
  15   4   5  -26.11   49.84
  15   4   5   65.76  118.81
  15   3  -5    5.41   44.27
  15   3  -5   47.09  120.27
 -15  -3  -5  -99.56  100.89
 -15  -3   5  123.18  104.12
  15   3   5   18.69   52.15
 -15  -3   5  -91.79   73.81
  15   3   5 -149.59  119.09
  15   2  -5    5.53   48.55
  15   2  -5 -138.12  120.10
 -15  -2  -5   14.62  105.94
  15   2   5  -24.45   49.90
  15   2   5  132.63  117.05
 -15  -2   5   50.57   73.65
 -15  -2   5  130.28  109.44
  15   1  -5   46.42  106.81
  15   1  -5   11.87   50.35
 -15  -1  -5 -113.08  116.33
 -15  -1   5 -169.38  120.25
  15   1   5  -57.90  118.25
  15   1   5  -53.82   52.45
 -15  -1   5   21.87   76.54
 -15   0  -5  117.47  116.91
  15   0  -5   60.58   98.83
  15   0  -5   -6.31   57.66
 -15   0   5 -519.15  132.63
  15   0   5   36.54   52.20
 -15   0   5   30.17   70.25
  15  -1  -5   13.77   56.74
  15  -1  -5   45.45   93.69
 -15   1  -5  -56.88  130.04
 -15   1  -5 -124.03   82.72
  15  -1   5  -80.60   52.90
 -15   1   5 -125.94   83.55
  15  -1   5 -143.19  116.19
 -15   1   5  137.24  144.87
  15  -2  -5    7.41   63.94
 -15   2  -5   49.09   84.40
  15  -2  -5  -54.46   96.87
 -15   2  -5  222.20  131.11
  15  -2   5  103.70  119.11
 -15   2   5 -190.92  164.64
  15  -2   5  102.97   55.09
 -15   2   5    8.24   74.27
 -15   3  -5   90.12  140.37
  15  -3  -5    8.11   68.97
 -15   3  -5   17.19   86.57
  15  -3   5 -121.12  116.33
 -15   3   5  155.02   83.21
  15  -3   5   -6.61   51.51
 -15   4  -5   47.18  144.93
 -15   4  -5   27.29   90.39
  15  -4   5  -55.16   59.16
  15  -4   5 -104.21  119.47
 -15   5  -5  -58.83  159.12
 -15   5  -5    9.55   91.62
  15  -5   5  -78.62   59.94
  15  -5   5   80.10  114.48
 -15   6  -5   69.94   87.60
  15  -6   5  -37.63   61.29
  16   7  -5   -9.58  141.16
 -16  -7   5   22.80  106.35
  16   6  -5  -84.90  139.63
  16   6  -5   -6.58   50.15
 -16  -6   5   42.67   95.21
  16   4  -5   -6.07   47.54
  16   4  -5   17.88  130.22
  16   4   5    7.21   51.58
 -16  -3  -5  -47.31  114.75
  16   3  -5  -78.78  125.30
  16   3  -5  -11.92   46.44
  16   3   5   -6.91   55.72
  16   3   5   -9.18  124.96
 -16  -3   5    8.15   83.76
 -16  -3   5   42.75  106.21
 -16  -2  -5   72.89  114.16
 -16  -2  -5    8.69  100.28
  16   2  -5   -6.18   51.36
  16   2  -5  -68.30  120.70
  16   2   5    9.20  130.33
 -16  -2   5 -113.43  122.08
  16   2   5   13.61   54.95
 -16  -2   5  -16.25   78.66
  16   1  -5   26.01   56.73
 -16  -1  -5  150.33  122.23
  16   1  -5   51.27  121.95
 -16  -1  -5   25.27   94.83
 -16  -1   5  156.09   82.39
 -16  -1   5   16.27  131.94
  16   1   5   -6.64   56.91
  16   1   5  -64.06  130.96
  16   0  -5   -6.97   59.22
 -16   0  -5   17.39  134.72
  16   0  -5   33.32  111.03
 -16   0   5   34.15   88.09
 -16   0   5   90.05  150.91
  16   0   5   81.37   61.87
 -16   1  -5 -566.68  138.82
 -16   1  -5  -61.98   89.86
  16  -1  -5   -7.54   63.79
  16  -1  -5  108.24  116.40
 -16   1   5    8.71   79.72
 -16   1   5   60.46  172.11
  16  -1   5  -48.17   59.80
  16  -2  -5   17.03  114.57
  16  -2  -5   -8.12   73.85
 -16   2  -5 -118.57   97.18
 -16   2  -5  205.30  148.00
 -16   2   5  108.78   87.76
  16  -2   5  -95.82  133.02
  16  -2   5  -50.01   54.70
 -16   2   5  -66.14  173.20
 -16   3  -5    9.88  158.43
 -16   3  -5 -248.53  107.12
  16  -3  -5   26.05   71.15
  16  -3   5  -14.55   55.54
  16  -3   5  170.63  133.38
 -16   3   5   56.38   85.43
 -16   6  -5  211.71  175.96
 -16   6  -5  163.85   96.73
  16  -6   5   88.61   67.28
  17   6  -5   -7.11   57.88
  17   6  -5   10.32  151.32
 -17  -6   5  -30.58  118.34
 -17  -6   5 -221.26  106.58
  17   5  -5  131.56  150.94
 -17  -5  -5  102.57  126.62
  17   5  -5   -6.90   53.83
  17   5   5    8.14   65.65
 -17  -5   5   94.45  108.51
  17   5   5  -69.84  150.27
 -17  -5   5   86.44  102.72
  17   4  -5  -39.81  147.28
  17   4  -5  -33.38   53.22
 -17  -4  -5   -9.02  128.32
  17   4   5   -7.97   63.92
 -17  -4   5  -52.25  114.62
 -17  -4   5  -18.65   98.06
  17   4   5   10.09  154.88
 -17  -3  -5   60.96  123.08
  17   3  -5   -6.56   53.63
  17   3  -5  145.07  136.27
  17   3   5 -152.01  142.26
 -17  -3   5   56.63  101.56
  17   3   5   -7.66   57.45
 -17  -3   5  -54.76  118.06
  17   2  -5 -229.64  140.49
 -17  -2  -5  -35.88  131.97
  17   2  -5   -6.84   57.31
 -17  -2  -5  202.75   99.82
  17   2   5   45.52   62.13
  17   2   5 -322.66  154.07
 -17  -2   5    8.36  135.20
 -17  -2   5    9.34   89.34
 -17  -1  -5   37.07  141.00
  17   1  -5  -79.18   59.31
 -17  -1  -5 -180.52   99.13
  17   1  -5 -169.57  140.71
  17   1   5   -7.48   56.93
 -17  -1   5  -28.16   91.11
  17   1   5 -488.35  161.21
 -17  -1   5   80.99  143.87
  17   0  -5  -91.87  118.46
 -17   0   5    9.51   95.74
 -17   0   5  -19.78  159.01
  17   0   5    7.52   60.74
  17  -1  -5    9.14  129.80
  17  -1  -5   -8.23   65.37
 -17   1  -5  179.16  152.96
 -17   1   5   98.84  186.00
 -17   1   5   57.86   88.49
  17  -1   5    7.58   61.48
  17  -2  -5 -102.53  127.05
  17  -2  -5   53.35   73.32
 -17   2  -5  -41.05  167.23
 -17   2  -5  -10.19  103.44
 -17   2   5 -313.99  203.10
  17  -2   5   -7.81   63.93
 -17   2   5   69.89   99.08
  17  -2   5 -189.01  148.96
 -17   3  -5  -10.76  169.27
 -17   3  -5  118.28  113.32
  17  -3  -5    9.48   76.77
  17  -3   5   24.03   64.99
 -17   3   5  104.44  223.98
  17  -3   5   93.44  147.26
 -17   3   5   71.99   96.29
 -17   4  -5  199.11  106.92
 -17   4  -5 -112.79  185.11
  17  -4   5  -83.44  137.36
  17  -4   5  -65.58   69.75
 -17   5  -5  117.69  198.46
 -17   5  -5 -196.41  125.33
  17  -5   5 -277.79  143.12
  17  -5   5   34.04   70.07
 -17   6  -5  -36.58  198.23
 -17   6  -5  -95.75  103.79
  17  -6   5  123.09   70.83
 -18  -4  -5    9.98  143.20
  18   4  -5   55.19  148.46
  18   4  -5    7.33   55.24
  18   4   5   -8.82   71.34
  18   4   5  -66.66  165.59
 -18  -4   5  -48.88  120.60
 -18  -4   5 -139.43  103.11
 -18  -3  -5 -154.56  118.71
  18   3  -5   -7.33   58.14
 -18  -3  -5  -77.52  134.73
  18   3  -5   53.95  153.49
  18   3   5    8.51   65.01
 -18  -3   5  -17.20  133.44
  18   3   5  155.46  172.56
 -18  -3   5  158.94  117.30
  18   2  -5  -85.58  144.39
  18   2  -5   -7.58   63.54
 -18  -2  -5  150.56  111.03
 -18  -2  -5  129.05  140.28
 -18  -2   5  -36.82  147.12
  18   2   5   -8.43   65.14
 -18  -2   5   10.51  102.87
  18   2   5 -256.79  176.51
  18   1  -5  -30.88  156.10
 -18  -1  -5  102.76  159.14
  18   1  -5   -7.92   65.14
 -18  -1  -5  107.01  119.83
  18   1   5   -8.30   68.53
  18   1   5   11.28  159.91
 -18  -1   5  -95.16  102.12
 -18  -1   5 -159.07  170.61
 -18   0  -5  -11.12  114.70
  18   0  -5   34.13   70.36
 -18   0  -5  127.38  166.16
  18   0  -5 -121.08  137.54
  18   0   5   78.95  155.96
  18   0   5  116.98   69.15
 -18   0   5  194.43  176.67
 -18   0   5   10.60  104.77
  18  -1  -5   -9.05   77.73
  18  -1  -5  -20.16  130.33
 -18   1  -5  -10.98  171.11
  18  -1   5    8.45   70.60
 -18   1   5 -191.52  195.73
 -18   1   5  -97.41  106.52
  18  -2  -5 -184.05  130.27
 -18   2  -5   68.04  177.91
 -18   2  -5   11.57  117.90
  18  -2  -5   -9.71   87.54
 -18   2   5 -861.62  221.50
 -18   2   5  -33.13  104.44
  18  -2   5   -8.60   76.72
  18  -2   5 -126.41  166.84
 -18   3  -5 -117.42  192.45
  18  -3  -5  -10.41   79.66
 -18   3  -5  107.23  119.86
  18  -3   5    8.80   66.72
 -18   3   5  228.77  246.53
  18  -3   5   68.14  156.29
 -18   3   5  -45.21   97.15
 -18   4  -5  -97.70  109.32
 -18   4  -5   49.08  200.75
  18  -4   5   -9.00   78.04
  18  -4   5   68.76  154.79
  19   5  -5   -8.19   63.03
  19   5  -5 -236.28  196.56
 -19  -5  -5  124.75  156.79
  19   5   5  258.08  180.57
  19   5   5    9.92   71.45
 -19  -5   5 -137.57  138.47
 -19  -5   5  -12.36  118.39
  19   4  -5    8.04   67.12
  19   4  -5  145.74  186.56
 -19  -4  -5  -12.61  134.13
 -19  -4  -5 -177.06  155.88
 -19  -4   5  115.60  136.34
  19   4   5   -9.77   77.00
 -19  -4   5   12.34  127.07
  19   4   5   86.11  190.94
  19   3  -5  -47.93  191.18
 -19  -3  -5  -10.73  149.11
  19   3  -5    8.08   66.43
 -19  -3  -5  147.40  121.08
 -19  -3   5  406.48  148.76
 -19  -3   5  -60.83  129.98
  19   3   5   -9.66   77.44
  19   3   5  183.58  191.46
 -19  -2  -5  133.57  123.22
 -19  -2  -5  -65.94  164.13
  19   2  -5   23.57  154.09
 -19  -2   5   60.25  132.87
  19   2   5 -259.92  193.20
  19   2   5    9.37   74.17
 -19  -2   5   50.66  162.32
 -19   2  -5  -12.97  127.29
  19  -2  -5 -135.12  147.67
 -19   2  -5 -100.22  202.16
  19  -2   5   -9.46   84.18
 -19   2   5   36.56  109.31
 -19   2   5 -389.31  234.65
 -19   3  -5 -171.88  135.12
 -19   3  -5   12.87  204.34
  19  -3  -5  -11.28   92.10
 -19   3   5  438.05  258.49
 -19   3   5  236.58  118.97
  19  -3   5   29.12   83.80
  19  -3   5  149.30  181.23
 -19   4  -5  161.35  227.45
 -19   4  -5   27.34  139.11
  19  -4   5   -9.91   82.13
  19  -4   5 -252.50  179.58
 -19   5  -5   56.27  137.72
 -19   5  -5  364.75  233.90
  19  -5   5  141.80  173.38
  19  -5   5   20.27   83.74
 -19   6  -5  219.75  239.05
  19  -6   5   10.49   91.11
  20   5  -5    8.92   68.46
 -20  -5   5  -55.68  139.13
 -20  -5   5  -75.17  141.49
  20   4  -5 -120.84  218.42
  20   4  -5   -8.98   66.39
 -20  -4   5   13.79  140.04
 -20  -4   5  408.17  151.03
  20   3  -5   44.50   79.10
  20   3  -5  147.17  182.64
 -20  -3   5  396.35  149.62
 -20  -3   5  155.52  166.82
  20   2  -5   27.65   75.28
  20   2  -5  -64.39  186.05
 -20  -2   5  -11.17  177.73
 -20  -2   5 -204.27  138.46
  20   2   5  -21.18   90.79
  20   1  -5   -9.75   82.48
 -20  -1  -5  -12.60  197.71
  20   1  -5  -12.49  170.82
 -20  -1   5  400.83  200.78
  20   1   5   41.77   89.73
 -20  -1   5  175.61  141.80
  20   0  -5   10.28   90.64
  20   0  -5 -159.61  169.22
 -20   0  -5  259.93  197.46
 -20   0   5 -401.86  133.70
  20   0   5   31.07   86.49
 -20   0   5   13.17  212.17
  20  -1  -5   11.04   89.40
 -20   1  -5  -94.11  218.02
  20  -1  -5  -73.66  161.63
 -20   1   5   71.50  235.23
  20  -1   5   10.47   87.17
 -20   1   5   13.48  127.72
  20  -2  -5  -11.62   99.02
  20  -2  -5   99.40  158.62
 -20   2   5 -188.22  258.79
 -20   2   5   94.49  123.15
  20  -3  -5   12.26   97.14
 -20   3   5   17.03  277.37
   0   0  -6   21.02    8.24
   0   0  -6    5.37    9.67
   0   0   6   -9.86   14.57
   0   1  -6    1.10    9.44
  -1   0  -6   -1.21    7.51
   1   0  -6   -1.40    7.63
   1   0  -6    1.49   10.76
   0   1  -6   -2.79    6.35
  -1   0   6   -1.79   16.91
   0  -1   6    1.10   12.13
   1   0   6   -4.62   14.62
   1   1  -6  449.94   79.24
  -1   1  -6  286.88   72.80
   1  -1   6  428.19   83.02
   1  -1   6  503.78   95.11
   1  -1   6  502.55   77.15
  -1  -1   6  508.13   95.13
   2   1  -6   88.71   17.29
   2   1  -6   75.09   12.22
  -1   2  -6   45.38   14.41
  -1   2  -6   36.79   14.98
  -1   2  -6   72.20   12.62
  -2  -1   6   74.04   21.28
   1  -2   6   85.91   13.80
   1  -2   6   81.10   16.96
   1  -2   6   55.34   11.34
   0   2  -6 1036.76  180.33
   0   2  -6 1061.28  170.15
  -2   0  -6  830.86  165.73
   2   0   6 1014.55  179.72
   2   0   6  933.04  192.48
   1   2  -6   92.07   13.00
  -2   1  -6   55.98   13.54
  -2   1  -6   61.25   15.40
   1   2  -6   74.97   15.31
  -2   1  -6   69.30   15.52
   2  -1   6   70.41   18.64
   2  -1   6   78.96   12.03
  -1  -2   6   66.23   18.88
   2  -1   6   53.19   18.21
  -2   2  -6 4934.61  890.18
  -2   2  -6 4104.13  805.61
  -2   2  -6 4494.65  790.37
   2  -2   6 3736.72  848.54
   2  -2   6 4478.63  705.24
  -2   3  -6  832.45  145.23
   3   2  -6  822.25  125.42
   3   2  -6  742.82  120.26
  -2   3  -6  885.44  162.04
  -2   3  -6  698.44  140.01
   3   2  -6  557.00  138.23
   2  -3   6  650.64  122.46
  -3  -2   6  713.82  152.43
   2  -3   6  763.72  141.04
  -3  -2   6  700.71  123.28
   2  -3   6  894.68  147.80
   3   1  -6  424.55   84.50
   3   1  -6  404.35   90.70
  -3  -1   6  428.43   99.03
   1  -3   6  471.90   86.69
   3   1   6  491.43   83.11
   0   3  -6    5.93    6.56
   0   3  -6   -1.16    9.42
   3   0  -6    3.07   10.53
  -3   0  -6    6.67   13.05
   3   0  -6   13.05   15.63
  -3   0  -6    3.84    8.52
   0  -3   6  -12.69    8.96
   3   0   6   -1.52   15.56
  -3   0   6   -2.17   24.35
   3   0   6    6.34    7.30
  -3   1  -6  487.15   83.39
  -3   1  -6  297.07   76.09
   1   3  -6  444.46   85.40
   3  -1   6  367.54   67.78
   3  -1   6  516.59   85.56
  -3   2  -6  704.67  128.32
  -3   2  -6  628.03  138.65
   2   3  -6  721.05  149.31
   3  -2   6  635.81  112.20
   3  -2   6  658.24  135.34
   3   3  -6   -4.52   15.51
  -3   3  -6    1.01    8.52
   3   3  -6   16.74   13.86
  -3   3  -6   13.46   15.18
  -3   3  -6    2.65   10.37
  -3  -3   6    4.55   12.05
   3  -3   6    7.42   21.32
   3  -3   6    2.91    9.29
   3  -3   6    4.30   11.58
   4   3  -6  473.32  113.57
  -4  -3   6  658.15   98.48
   4   2  -6 1763.95  259.39
   4   2  -6 1635.73  292.65
   4   2  -6 1891.93  320.90
  -4  -2   6 1669.96  285.26
  -4  -2   6 1617.36  328.17
   4   1  -6  640.13  116.83
   4   1  -6  605.05   97.66
  -4  -1  -6  593.96  100.66
   4   1  -6  499.46  128.22
  -4  -1   6  670.98  133.28
   4   1   6  541.27  115.08
  -4  -1   6  610.61  135.59
   0   4  -6   26.83   12.15
   0   4  -6   46.24   13.98
   4   0  -6    8.30   20.06
  -4   0  -6   16.87   18.74
   4   0  -6   54.46   14.08
  -4   0   6   26.35   31.25
  -4   0   6    1.80   14.10
   0  -4   6   15.83   12.72
   4   0   6   24.20   10.55
   4   0   6    1.92   23.10
  -4   1  -6  677.24  105.57
  -4   1  -6  400.15  104.64
   4  -1   6  637.12  132.15
   4  -1   6  472.59  115.79
   4  -1   6  483.66   92.35
  -4   2  -6 1404.18  302.37
  -4   2  -6 1910.38  366.39
  -4   2  -6 1518.45  299.31
   4  -2   6 1666.84  342.49
   4  -2   6 1756.93  312.32
   4  -2   6 1659.33  358.31
   4  -2   6 1841.40  260.39
  -4   3  -6  600.59  121.70
   3   4  -6  579.65   98.51
  -4   3  -6  518.68  115.24
   3   4  -6  639.62  116.99
   4  -3   6  549.73  112.97
   4  -3   6  681.84   97.19
   4   4  -6  353.62   71.47
  -4   4  -6  253.54   73.44
   4   4  -6  327.40   65.39
   4   4  -6  312.67   56.16
  -4  -4   6  372.35   61.82
   4  -4   6  308.82   57.05
   5   4  -6  566.38  125.73
   5   4  -6  633.20  108.42
   5   4  -6  684.67  134.29
  -5  -4   6  714.97  112.39
  -5  -4   6  453.62  118.52
   5   3  -6 1642.68  306.09
  -5  -3   6 1831.33  276.59
  -5  -2  -6  613.40  119.79
   5   2  -6  583.78  141.47
   5   2  -6  831.89  111.82
   5   2   6  616.57  132.21
  -5  -2   6  750.20  143.27
  -5  -2   6  708.40  125.60
   5   1  -6  793.69  137.19
   5   1  -6  901.21  145.70
  -5  -1   6  979.95  158.17
  -5  -1   6  904.83  150.16
   5   0  -6   13.04   25.48
   5   0  -6    3.95   14.67
   5   0  -6  -18.44   25.15
  -5   0   6   -4.47   19.92
  -5   0   6   23.90   37.83
   1   5  -6  728.36  136.40
  -1  -5   6  999.91  133.06
   2   5  -6  757.95  129.93
  -5   2  -6  711.21  131.28
   5  -2   6  624.33  154.94
  -5   3  -6 2146.21  327.90
  -3  -5   6 1727.51  296.68
   4   5  -6  721.06  123.38
  -5   4  -6  537.53  139.19
   5  -4   6  576.52  124.74
  -4  -5   6  761.30  119.42
   5   5  -6    8.98   23.24
   5   5  -6    8.12   16.76
   5   5  -6   35.04   27.12
  -5  -5   6    8.70   18.03
   6   4  -6  746.27  137.58
   6   4  -6  912.31  159.71
  -6  -4   6  902.25  151.18
   6   3  -6  244.74   33.35
   6   3  -6  168.79   42.56
   6   3  -6  197.13   36.09
  -6  -3   6  267.84   41.28
  -6  -3   6  220.56   45.88
  -6  -3   6  208.01   53.67
  -6  -2  -6  829.49  215.68
   6   2  -6 1192.46  229.23
  -6  -2   6 1457.72  229.93
   6   2   6 1419.00  246.08
   6   1  -6   -1.91   14.28
  -6  -1  -6   24.59   30.25
   6   1   6    2.81   32.81
   6   1   6   -2.15   13.13
  -6   0  -6   98.87   37.95
   6   0   6  153.01   43.30
   6   0   6  101.56   22.93
  -6   1  -6   33.97   34.97
   6  -1   6    5.71   35.81
  -6   1   6  -11.94   23.70
   6  -1   6    1.99   15.21
  -6   2  -6 1449.44  249.05
   6  -2   6 1690.01  257.62
  -6   3  -6  178.35   47.50
  -6   3  -6  147.59   41.97
   6  -3   6  300.53   38.36
   6  -3   6  331.84   54.63
   4   6  -6  531.41  145.80
   6  -4   6  703.15  136.79
   6  -4   6  960.53  155.01
   6   6  -6   51.65   23.94
   6   6  -6    5.28   30.69
   6   6  -6   60.92   34.97
  -6  -6   6   21.36   25.34
   7   6  -6   11.28   31.75
   7   6  -6   19.62   42.24
   7   6  -6   18.74   24.53
  -7  -6   6   33.67   29.26
   7   5  -6  110.55   43.83
   7   5  -6   98.00   34.98
   7   5  -6   58.47   23.85
  -7  -5   6   58.17   28.87
  -7  -5   6   37.05   38.80
   7   4  -6   97.54   25.91
   7   4  -6   66.62   46.91
   7   4  -6   70.83   35.33
   7   4  -6  155.63   24.75
  -7  -4   6   87.32   30.18
  -7  -4   6   83.42   39.25
  -7  -2  -6  171.65   47.84
   7   2  -6  180.14   34.89
   7   2  -6  201.44   52.20
   7   1  -6  163.67   29.32
   7   1  -6   44.67   20.43
   7   1  -6   94.61   40.32
   7   1  -6   48.09   19.10
  -7  -1  -6   25.79   37.72
  -7  -1   6   25.76   41.71
   7   1   6   76.40   45.50
  -7  -1   6   56.23   26.09
   7   1   6   11.85   19.01
   7   0  -6   37.82   21.26
   7   0  -6   -6.15   38.47
   7   0  -6  -26.93   17.24
  -7   0  -6    5.81   38.56
   7   0   6   33.09   43.81
   7   0   6  -13.68   18.51
  -7   0   6   27.49   28.00
   7  -1  -6   68.22   22.57
  -7   1  -6   37.15   43.04
   7  -1  -6   59.46   39.13
   7  -1  -6   22.20   25.81
  -7   1   6  -20.76   30.73
   7  -1   6   61.22   21.10
   7  -1   6   66.95   47.76
  -7   4  -6   82.80   41.30
   7  -4   6  156.20   32.03
   7  -4   6  110.24   53.24
  -7   5  -6   76.39   39.71
   7  -5   6   58.53   51.76
   7  -5   6   10.00   26.67
   7   7  -6  225.70   57.31
   8   7  -6   42.82   51.89
   8   7  -6   39.20   37.60
   8   6  -6  109.48   30.91
   8   6  -6   86.37   54.63
   8   6  -6   30.25   40.80
  -8  -6   6  106.10   35.20
   8   5  -6  109.09   53.17
   8   5  -6    5.88   20.89
   8   5  -6   42.69   25.24
   8   5  -6   68.79   33.91
  -8  -5   6   94.57   31.07
  -8  -5   6   54.96   44.14
   8   4  -6   31.15   20.60
   8   4  -6  -13.25   45.80
   8   4  -6    2.40   29.42
   8   4  -6   44.91   19.46
  -8  -4   6   13.56   24.37
  -8  -4   6   27.17   39.29
  -8  -4   6    2.95   44.75
   8   3  -6   37.94   20.14
  -8  -3  -6    3.61   42.30
   8   3  -6   48.48   29.28
   8   3  -6   18.90   42.06
   8   3  -6   59.10   19.26
  -8  -3   6   47.25   24.95
   8   3   6   69.06   25.88
  -8  -3   6   50.32   38.00
  -8  -3   6  -11.65   43.19
   8   2  -6  197.10   44.48
  -8  -2  -6  187.01   49.55
   8   2  -6  152.71   34.82
   8   2  -6  188.23   54.64
   8   2  -6  162.50   35.81
   8   2   6  248.99   62.55
   8   2   6  178.81   34.71
  -8  -2   6  157.31   55.19
  -8  -2   6  180.14   46.05
  -8  -2   6  182.06   39.50
  -8  -2   6  216.43   56.92
   8   1  -6    2.62   21.29
   8   1  -6  -19.98   43.76
   8   1  -6    2.66   31.64
   8   1  -6  -13.42   18.38
  -8  -1  -6   -3.30   42.38
  -8  -1   6  -22.35   47.27
   8   1   6   -5.38   20.97
   8   1   6    7.81   50.43
  -8  -1   6  -36.83   50.98
  -8  -1   6   14.88   28.93
   8   0   6  167.19   54.19
  -8   0   6   72.34   40.09
   8  -1  -6  -21.44   27.25
   8  -1  -6  -15.57   23.26
   8  -1  -6  -33.85   47.42
  -8   1  -6   46.80   49.16
  -8   1   6   15.63   34.49
   8  -1   6  -19.32   50.31
   8  -1   6  -10.97   22.72
  -8   2  -6  144.59   46.96
  -8   2  -6  201.45   67.23
   8  -2  -6  156.21   46.59
   8  -2   6  150.87   66.86
   8  -2   6  177.11   37.12
  -8   3  -6   30.49   35.19
   8  -3   6   19.39   27.65
   8  -3   6   41.74   53.69
  -8   4  -6   26.58   35.93
   8  -4   6  -13.95   27.62
   8  -4   6   51.53   51.70
  -8   5  -6   99.58   48.28
   8  -5   6  138.15   32.22
   8  -5   6  132.82   56.76
   8  -6   6   75.41   34.06
   9   6  -6  450.97   81.26
   9   6  -6  276.50   91.66
   9   6  -6  304.27  107.42
  -9  -6   6  482.34   83.82
   9   5  -6   66.68   60.05
   9   5  -6   37.52   38.38
   9   5  -6   81.12   27.72
   9   5  -6   44.98   27.56
  -9  -5   6   70.03   32.13
  -9  -5   6   21.72   51.76
   9   4  -6   49.63   52.77
  -9  -4  -6   51.63   46.51
   9   4  -6   11.71   23.95
   9   4  -6   12.67   32.40
   9   4  -6   62.05   21.51
  -9  -4   6   19.11   27.70
  -9  -4   6   57.32   48.41
  -9  -4   6   -2.58   43.39
   9   3  -6    2.72   22.21
   9   3  -6   76.00   31.79
   9   3  -6   54.98   51.45
  -9  -3  -6   67.38   48.62
   9   3  -6  -11.21   19.46
  -9  -3   6    4.37   24.62
  -9  -3   6   31.35   39.40
   9   3   6   39.23   25.43
  -9  -3   6   66.71   49.84
   9   2  -6  152.28   41.29
   9   2  -6  132.32   31.05
  -9  -2  -6  119.03   54.59
   9   2  -6  127.28   32.08
   9   2  -6  234.19   58.24
  -9  -2   6  137.54   36.91
   9   2   6   32.78   30.99
  -9  -2   6  178.36   44.11
  -9  -2   6  161.90   53.17
   9   2   6   87.83   59.84
  -9  -2   6   93.58   59.06
  -9  -1  -6   22.58   49.22
   9   1  -6   22.92   48.93
   9   1  -6  -19.00   17.64
   9   1  -6  -35.26   35.94
   9   1  -6   27.23   23.08
   9   1   6    6.02   22.95
  -9  -1   6  -30.81   33.45
  -9  -1   6   12.73   47.19
   9   1   6    4.37   55.95
  -9  -1   6    3.86   58.91
  -9   0  -6   31.15   53.65
   9   0  -6    3.43   39.52
   9   0  -6   12.04   46.41
   9   0  -6   -3.49   25.98
   9   0  -6    5.70   21.15
   9   0   6   41.94   24.16
  -9   0   6  -44.67   60.49
   9   0   6   34.78   59.18
  -9   0   6  -23.35   39.04
  -9   1  -6   48.47   37.23
   9  -1  -6   -4.49   23.63
   9  -1  -6    4.00   31.36
  -9   1  -6   82.66   58.12
   9  -1  -6   29.50   49.57
  -9   1   6    4.37   38.43
   9  -1   6    8.84   63.22
   9  -1   6   22.04   24.98
   9  -2  -6  174.84   42.33
   9  -2  -6  138.09   40.21
  -9   2  -6  184.81   45.60
  -9   2  -6  148.94   71.10
  -9   2   6   47.61   48.86
   9  -2   6  104.42   67.45
   9  -2   6  248.38   37.39
  -9   3  -6   -4.41   42.65
  -9   3  -6   33.70   69.33
   9  -3   6  -56.67   63.27
   9  -3   6   43.00   32.53
  -9   4  -6   44.56   47.12
   9  -4   6   27.41   31.43
   9  -4   6   33.84   63.41
  -9   5  -6   98.27   52.34
   9  -5   6   62.60   33.69
   9  -5   6  131.21   66.57
   9  -6   6  514.85   75.69
  10   8  -6  332.70   81.64
  10   7  -6  -15.18   69.93
  10   7  -6    7.39   44.29
  10   4  -6    8.78   61.32
  10   4  -6   45.42   34.02
 -10  -4  -6   47.04   54.83
  10   4  -6   22.56   23.44
  10   4  -6   31.26   23.76
  10   4   6   -4.76   61.20
 -10  -4   6    7.56   28.19
 -10  -4   6   46.21   52.67
 -10  -4   6   37.88   55.90
  10   4   6   25.06   28.15
  10   3  -6  621.58  115.36
  10   3  -6  671.19  101.34
  10   3  -6  785.69  144.87
 -10  -3  -6  736.18  115.15
  10   3  -6  433.18  126.35
 -10  -3   6  787.47  158.98
 -10  -3   6  562.63  130.48
 -10  -3   6  748.19  121.46
  10   3   6  632.30   98.85
 -10  -3   6  649.42  145.67
  10   2  -6   32.63   41.37
  10   2  -6  113.44   61.65
  10   2  -6  107.52   32.63
 -10  -2  -6  142.79   58.53
  10   2  -6  120.19   29.55
 -10  -2   6  152.99   55.17
 -10  -2   6  199.35   44.43
  10   2   6  125.16   70.97
  10   2   6  172.32   34.71
 -10  -2   6   39.39   66.08
 -10  -2   6   81.89   35.19
 -10  -1  -6  119.91   58.43
  10   1  -6   90.74   62.58
  10   1  -6   19.50   41.43
  10   1  -6   88.82   29.62
  10   1  -6   99.74   23.42
  10   1   6   87.60   64.19
 -10  -1   6   65.69   71.34
 -10  -1   6   66.35   41.56
  10   1   6   34.02   27.94
 -10  -1   6   88.91   63.00
 -10   0  -6  390.68   92.13
  10   0  -6  505.24   98.80
  10   0  -6  417.44   74.61
  10   0  -6  422.09   72.30
  10   0  -6  547.26  104.90
 -10   0   6  247.79  136.74
  10   0   6  457.04   63.94
  10   0   6  458.37  102.66
 -10   0   6  196.57   95.16
 -10   1  -6  130.46   44.08
  10  -1  -6  112.29   56.78
  10  -1  -6   85.77   28.73
  10  -1  -6   44.04   37.48
 -10   1  -6  136.06   69.12
  10  -1   6   93.08   32.02
 -10   1   6    9.63   45.02
  10  -1   6  -34.72   68.24
  10  -2  -6  126.54   36.85
 -10   2  -6   26.35   47.17
  10  -2  -6  276.05   64.42
 -10   2  -6   40.82   78.39
  10  -2  -6  233.26   45.54
  10  -2   6  128.77   38.13
 -10   2   6  104.96   52.75
  10  -2   6   51.29   72.44
 -10   3  -6  822.28  148.24
 -10   3  -6  703.83  144.68
  10  -3   6  691.82  111.52
  10  -3   6  521.93  147.83
 -10   4  -6  -11.02   48.90
  10  -4   6   37.75   72.81
  10  -4   6  -12.94   34.85
  11   8  -6   23.04   81.64
  11   8  -6   12.43   53.38
  11   7  -6  104.45   92.75
  11   7  -6  163.28   58.51
  11   6  -6   69.60   48.16
  11   6  -6  -16.60   82.77
  11   6  -6   34.94   35.35
  11   6  -6  114.39   36.47
 -11  -6   6  101.20   38.73
 -11  -6   6   77.59   65.63
  11   5  -6   52.18   30.33
  11   5  -6   30.82   41.19
  11   5  -6  -46.97   77.28
  11   5  -6    2.80   28.55
 -11  -5   6   -6.00   33.33
 -11  -5   6   78.74   56.88
 -11  -5   6  -60.24   60.36
  11   1  -6 1806.85  297.21
 -11  -1  -6 1731.32  247.18
  11   1  -6 1592.01  230.30
 -11  -1   6  934.66  412.97
 -11  -1   6 1530.07  311.08
 -11  -1   6 1220.37  264.99
  11   1   6  895.39  285.31
  11   0  -6   -8.49   35.88
 -11   0  -6   30.03   73.18
  11   0  -6   25.10   64.07
 -11   0   6  -53.80   45.49
  11   0   6   42.40   31.70
 -11   0   6  -14.76   71.39
 -11   0   6  -22.09   86.74
  11   0   6  -44.62   78.36
 -11   1  -6 1943.14  266.40
  11  -1  -6 1485.68  289.89
  11  -1   6 1570.02  227.31
 -11   1   6 1625.67  321.72
  11  -1   6 1636.12  293.39
 -11   5  -6   26.36   55.79
  11  -5   6   35.31   41.44
  11  -5   6  -30.78   82.15
 -11   6  -6   84.63   64.56
  11  -6   6  -15.93   44.02
  12   7  -6  -45.28   94.15
  12   6  -6   18.32   93.60
  12   6  -6   -9.52   35.99
 -12  -6   6  -26.25   70.75
  12   5  -6   25.87   32.53
  12   5  -6  -29.44   83.08
 -12  -5   6    9.39   69.38
  12   4  -6  223.30   44.50
 -12  -4  -6  158.40   81.70
  12   4  -6  123.58   90.25
  12   4   6  223.71   50.08
 -12  -4   6  125.90   85.01
 -12  -3  -6  -31.48   72.73
  12   3  -6   78.05   32.18
  12   3  -6  -16.25   74.91
 -12  -3   6   23.67   76.64
  12   3   6   52.01   38.21
 -12  -3   6   -4.67   48.54
 -12  -2  -6  978.75  125.45
  12   2  -6  527.12  100.85
  12   2  -6  774.17  150.18
 -12  -2   6  641.06  128.52
  12   2   6  375.33   96.40
 -12  -2   6  363.56  143.14
 -12  -1  -6  -32.61   80.00
  12   1  -6  115.56   77.52
  12   1  -6  -85.50   36.73
 -12  -1   6  -21.92   86.69
  12   1   6  -30.82   91.59
  12   1   6  -17.21   36.36
 -12  -1   6   10.20   46.82
  12   0  -6 1124.55  197.93
 -12   0  -6  653.42  178.73
 -12   0  -6  833.50  205.77
  12   0  -6  784.57  157.17
 -12   0   6 1156.83  198.05
 -12   0   6  949.84  211.32
  12   0   6  960.18  143.28
  12   0   6 1225.56  205.23
 -12   1  -6   58.88   54.94
  12  -1  -6  -68.39   76.40
  12  -1  -6   37.32   44.75
 -12   1  -6   17.63   87.13
  12  -1   6   18.16   40.57
  12  -1   6  -31.27   92.51
 -12   1   6   11.76   55.16
 -12   2  -6  650.26  153.71
  12  -2  -6  853.93  143.81
 -12   2  -6  679.64  145.61
  12  -2  -6  817.86  122.87
  12  -2   6  860.90  109.65
 -12   2   6  508.02  149.57
  12  -2   6  815.79  160.04
 -12   3  -6  -66.98  106.45
  12  -3  -6   52.03   51.76
 -12   3  -6   49.49   54.13
  12  -3   6   24.75   44.82
  12  -3   6  -66.56   92.55
 -12   4  -6  210.01   82.31
 -12   4  -6  154.23  117.96
  12  -4   6  165.13   54.98
  12  -4   6  278.39  102.51
  12  -5   6  -16.45   46.99
  13   7  -6  195.99  108.13
  13   5  -6   -6.58   98.14
  13   5  -6  -18.86   37.08
 -13  -5  -6 -137.70   83.54
 -13  -5   6   35.88   76.76
  13   5   6  -54.51   87.60
 -13  -4  -6  296.68   83.26
  13   4  -6   79.23   38.82
  13   4  -6   18.80   93.20
 -13  -4   6   88.93   63.24
  13   4   6   96.77   95.27
  13   4   6  168.55   41.49
 -13  -4   6   20.51   77.49
  13   3  -6    8.70   36.89
  13   3  -6  140.84   85.34
  13   3   6  169.37  100.91
 -13  -3   6    5.25   82.97
 -13  -3   6   21.39   58.07
  13   2  -6  -84.60   85.73
  13   2  -6   13.39   33.98
 -13  -2   6  -10.98   84.87
 -13  -2   6   10.91   59.58
  13   1  -6  305.32   86.72
  13   1  -6  463.52  129.88
 -13  -1   6  413.80  136.75
 -13  -1   6  573.37  121.34
  13   0  -6   -5.30   41.48
  13   0  -6  -92.21   81.15
 -13   0   6   92.43   64.81
 -13   0   6  129.57  111.54
  13  -1  -6  726.47  125.23
  13  -1  -6  531.12   96.45
 -13   1   6  511.94  123.49
  13  -2  -6   19.54   50.18
  13  -2  -6  367.47   80.61
 -13   2   6   -6.95   53.78
 -13   4  -6   82.34   73.47
  13  -4   6   21.95   97.63
 -13   5  -6    7.97   66.42
  13  -5   6   44.71   99.48
  13  -5   6  159.27   48.84
  14   7  -6  101.15  113.50
 -14  -5  -6   28.71   92.57
  14   5   6  129.82  105.74
 -14   5  -6   70.57  138.57
 -14   5  -6  122.42   88.37
  14  -5   6   98.28  106.58
  14  -5   6   77.35   59.95
 -14   6  -6   27.48   84.05
  14  -6   6  -27.23   50.28
  14  -6   6  -50.84  110.72
  15   6  -6  -16.74  124.26
  15   6  -6    5.98   47.99
 -15  -6   6  -58.02   97.18
  15   5  -6    5.59   42.81
 -15  -5  -6  -39.33  101.11
  15   5  -6  -40.37  116.79
 -15  -5   6 -156.14   78.95
  15   5   6   -6.80   52.44
  15   5   6   41.49  115.65
 -15  -5   6  -30.14   88.94
  15   4  -6    5.31   41.86
 -15  -4  -6   52.53   99.49
  15   4  -6   55.04  110.17
 -15  -4   6   42.94   99.91
  15   4   6   73.94  125.47
  15   4   6    6.58   48.05
 -15  -4   6    7.11   72.64
 -15  -3  -6    7.18  101.64
  15   3  -6  -21.43   45.33
  15   3  -6   76.99  116.51
  15   3   6   49.77  116.36
 -15  -3   6   12.74   97.72
 -15  -3   6   14.10   75.90
  15   3   6  -64.11   50.39
  15   2  -6    5.50   40.00
  15   2  -6 -113.36  109.61
 -15  -2  -6   87.72  103.09
 -15  -2   6 -205.33   75.35
  15   2   6   67.92   50.14
 -15  -2   6   33.77  105.64
  15   1  -6  -98.68   95.36
  15   1  -6    5.88   47.28
 -15  -1  -6  173.26  113.15
 -15  -1   6   73.56   79.56
  15   1   6  -36.40   52.44
 -15  -1   6  -81.19  115.42
  15   0  -6  -50.66   53.06
 -15   0  -6  151.58   89.95
 -15   0  -6  -31.35  118.91
  15   0  -6   82.18  106.71
 -15   0   6   66.16  140.33
 -15   0   6   15.23   70.47
  15   0   6   24.47   54.63
  15   0   6  -25.34  124.31
 -15   1  -6   64.74  125.21
 -15   1  -6    7.81   84.71
  15  -1  -6    7.02   60.41
  15  -1  -6  -22.61   94.42
  15  -1   6  -37.21   55.26
 -15   1   6 -518.66  150.12
  15  -1   6   77.26  124.28
 -15   1   6  -39.29   80.72
  15  -2  -6    7.56   61.10
 -15   2  -6   89.25   87.25
  15  -2  -6  -15.61   97.22
 -15   2  -6   83.97  132.65
  15  -2   6   32.22   54.60
 -15   2   6  -58.14   80.53
  15  -2   6   43.47  125.77
 -15   3  -6 -186.74  139.77
  15  -3  -6   -8.39   70.34
 -15   3  -6   95.36   92.23
 -15   3   6   60.87   71.79
  15  -3   6  -32.85   52.03
  15  -3   6   53.24  125.17
 -15   4  -6  -45.51   86.53
 -15   4  -6 -214.66  144.77
  15  -4   6    6.80   58.32
  15  -4   6   61.70  128.74
 -15   5  -6   67.22   89.07
 -15   5  -6  -58.03  148.82
  15  -5   6   21.15   61.51
  15  -5   6   53.96  111.10
 -15   6  -6  260.53  101.54
  15  -6   6  174.77   64.45
  15  -6   6   46.39  119.79
  16   6  -6  -83.45  133.76
  16   6  -6    6.44   49.34
 -16  -6   6  131.29  101.39
 -16  -6   6    8.78  101.26
 -16  -3  -6  -87.41  112.63
  16   3  -6  -25.58  114.18
  16   3  -6   -5.87   52.04
  16   3   6  211.29  130.07
  16   3   6    7.11   60.72
 -16  -3   6  103.94   78.57
 -16  -3   6  -27.97  109.61
  16   2  -6    6.04   48.63
 -16  -2  -6  -48.63  119.12
  16   2  -6   50.87  111.31
  16   2   6 -249.28  144.55
 -16  -2   6  -96.74  124.87
  16   2   6   -6.87   60.87
 -16  -2   6  -65.08   85.55
 -16  -1  -6 -167.46  126.80
  16   1  -6   97.82   56.84
  16   1  -6   16.74  114.17
 -16  -1   6   41.31   79.22
 -16  -1   6  104.93  129.03
  16   1   6    6.75   54.83
 -16   0  -6   25.95  135.01
  16   0  -6  155.58  118.87
  16   0  -6    6.98   58.67
 -16   0  -6  -76.50   92.52
 -16   0   6   63.15  140.62
  16   0   6    6.83   62.59
 -16   0   6  118.24   85.05
  16   0   6   -9.37  128.65
 -16   1  -6  -96.62   88.25
  16  -1  -6    8.28  108.50
  16  -1  -6  -15.24   63.45
 -16   1  -6   -8.97  134.51
 -16   1   6   -8.77   89.12
  16  -1   6   81.86   56.35
 -16   1   6  182.85  167.32
  16  -1   6 -197.91  139.79
 -16   2  -6    9.24  148.93
  16  -2  -6   41.12   71.77
  16  -2  -6  -68.12  114.27
 -16   2  -6  -27.70   92.49
  16  -2   6   -7.04   62.22
 -16   2   6 -246.30  183.88
  16  -2   6   96.71  141.65
 -16   2   6   81.78   83.65
 -16   3  -6  174.53  154.40
  16  -3  -6   -9.02   71.88
 -16   3  -6  -67.54  101.05
  16  -3   6  135.01  139.33
  16  -3   6  -28.92   61.20
 -16   3   6    9.47   82.06
 -16   6  -6   76.68  176.92
 -16   6  -6   54.84  109.49
  16  -6   6  -63.34   65.37
  16  -6   6  -10.17  131.64
 -17  -6   6   19.40   99.57
  17   5  -6  -69.71  154.43
  17   5  -6  -13.21   52.71
 -17  -5  -6   -9.48  122.63
 -17  -5   6   28.34  103.29
  17   5   6  290.09  144.70
  17   5   6   16.43   60.33
 -17  -5   6  -65.49  103.08
 -17  -4  -6 -100.84  125.48
  17   4  -6   -6.52   54.85
  17   4  -6  126.84  139.28
  17   4   6  -80.94  152.96
 -17  -4   6   80.23  113.46
 -17  -4   6    9.24   95.82
  17   4   6    8.04   63.75
 -17  -3  -6   52.79  121.97
  17   3  -6 -171.43  134.64
  17   3  -6   12.90   55.05
  17   3   6 -333.76  159.21
  17   3   6  -78.95   64.01
 -17  -3   6   53.73  121.51
 -17  -3   6  137.69   99.33
 -17  -2  -6 -134.66  135.56
  17   2  -6    6.74   56.39
  17   2  -6  -18.89  141.36
 -17  -2  -6   -9.71  108.13
  17   2   6 -263.18  143.51
  17   2   6   -7.63   59.09
 -17  -2   6   98.71  132.98
 -17  -2   6 -128.29   95.73
 -17  -1  -6   46.42  130.15
  17   1  -6   45.69  124.90
  17   1  -6   57.05   62.61
  17   1   6   -7.50   62.42
 -17  -1   6  196.02  146.92
 -17  -1   6   27.86   99.18
  17   0  -6  -81.08  120.89
  17   0  -6   38.53   69.73
 -17   0  -6    9.58  146.09
 -17   0   6  -59.40  162.49
 -17   0   6 -237.56   95.00
  17   0   6    7.52   65.20
 -17   1  -6   10.01   97.47
 -17   1  -6   29.68  149.73
  17  -1  -6 -157.56   72.34
  17  -1  -6    9.10  121.37
  17  -1   6    7.63   63.40
  17  -1   6  104.42  143.75
 -17   1   6  193.62   96.48
 -17   1   6 -110.75  187.61
 -17   2  -6 -154.53  106.55
  17  -2  -6   18.21   79.67
  17  -2  -6  204.94  124.62
 -17   2  -6  -61.25  156.97
  17  -2   6 -160.11  149.45
  17  -2   6   23.15   61.07
 -17   2   6  179.17   97.92
 -17   2   6   12.27  205.39
 -17   3  -6   74.38  165.43
  17  -3  -6   -9.63   85.58
 -17   3  -6 -118.14  109.62
 -17   3   6  159.68  224.13
  17  -3   6  137.06  147.39
  17  -3   6  135.07   66.95
 -17   4  -6 -166.62  192.53
 -17   4  -6   33.61  111.38
  17  -4   6   56.85   67.26
  17  -4   6  -10.59  145.79
 -17   5  -6   11.60  185.28
 -17   5  -6   46.67  102.91
  17  -5   6  -25.16   71.27
  17  -5   6  194.34  137.71
 -17   6  -6 -156.37  116.33
 -17   6  -6   60.00  187.50
  17  -6   6  156.10  140.67
  17  -6   6 -174.92   76.14
  18   4  -6   -7.16   59.40
  18   3  -6    7.19   63.58
 -18  -3  -6  -78.23  128.81
  18   3  -6 -127.02  143.79
 -18  -3  -6  100.01  116.06
 -18  -3   6  147.49  104.97
  18   3   6   78.38  166.17
 -18  -3   6  168.20  130.29
  18   3   6    8.76   70.09
  18   2  -6  -93.86  135.24
 -18  -2  -6  208.90  145.96
 -18  -2  -6   10.82  110.11
  18   2  -6    7.47   61.36
 -18  -2   6 -372.46  153.02
  18   2   6   44.61  166.15
 -18  -2   6   10.48  106.02
  18   2   6  -34.53   67.03
  18   1  -6  140.97  146.42
  18   1  -6   -7.88   65.96
 -18  -1  -6  -10.26  146.79
  18   1   6   68.03  166.27
 -18  -1   6  158.25  112.11
  18   1   6   -8.32   67.33
 -18  -1   6 -118.16  160.85
  18   0  -6   -8.54   73.32
 -18   0  -6  286.02  166.08
  18   0  -6   29.77  125.65
 -18   0   6 -194.24  179.00
  18   0   6    8.32   70.72
 -18   0   6 -200.65  110.22
 -18   1  -6  -54.77  166.19
  18  -1  -6    9.11   77.87
 -18   1  -6   11.16  104.13
  18  -1  -6 -130.01  126.46
 -18   1   6  109.14  197.44
  18  -1   6   -8.45   71.85
 -18   1   6   32.27  108.05
  18  -1   6 -149.71  171.55
  18  -2  -6   -9.84   81.71
  18  -2  -6  -91.85  137.76
 -18   2  -6  128.60  118.64
 -18   2  -6  -11.27  180.46
  18  -2   6 -292.46  153.06
  18  -2   6    8.54   69.01
 -18   2   6  295.33  219.83
 -18   2   6  240.54  103.78
 -18   3  -6   12.09  107.61
 -18   3  -6 -127.32  177.04
  18  -3  -6   10.51   91.28
 -18   3   6  -14.55  229.99
  18  -3   6  127.13  161.44
  18  -3   6    8.76   75.32
  18  -6   6  -28.34   77.05
 -19  -5  -6   69.29  153.96
  19   5   6 -427.37  178.00
  19   5   6   20.05   75.25
 -19  -4  -6  -67.55  156.66
  19   4  -6  167.17  168.54
 -19  -4  -6  -12.64  129.91
  19   4  -6   23.55   59.28
  19   4   6 -294.41  185.71
 -19  -4   6    8.67  135.72
  19   4   6   19.75   75.90
 -19  -4   6 -143.35  123.14
  19   3  -6 -201.39  178.06
 -19  -3  -6   49.31  128.42
  19   3  -6   -7.92   61.24
 -19  -3  -6   43.49  161.02
 -19  -3   6  212.64  146.39
  19   3   6    9.70   80.18
 -19  -3   6  142.03  123.39
  19   3   6   85.75  176.15
  19   2  -6   22.78  161.34
  19   2  -6   -8.28   70.11
 -19  -2  -6   66.11  163.83
 -19  -2  -6   12.16  120.00
  19   2   6  -24.79  184.66
  19   2   6   -9.57   76.52
 -19  -2   6   59.11  127.96
 -19  -2   6  -49.85  158.82
 -19  -1  -6  181.94  177.20
  19   1  -6  121.85  155.61
 -19  -1  -6 -110.82  122.93
  19   1  -6  -34.56   77.66
  19   1   6  122.53   77.50
  19   1   6  175.49  182.38
 -19  -1   6  -70.74  106.94
 -19  -1   6  -87.03  176.30
  19   0  -6 -142.15  143.98
 -19   0   6  178.14  189.99
 -19   0   6  141.27  118.08
  19   0   6   -9.33   83.78
  19  -1  -6   65.95  139.47
 -19   1  -6  -38.24  120.15
  19  -1  -6   10.03   88.75
 -19   1   6  -83.72  110.83
 -19   1   6  -26.39  234.32
  19  -1   6    9.36   75.44
 -19   2  -6 -124.06  194.48
  19  -2  -6  -67.29  136.96
 -19   2  -6   91.63  139.66
  19  -2  -6   10.69   88.44
  19  -2   6    9.36   81.86
 -19   2   6  262.78  250.02
 -19   2   6   24.11  114.24
  19  -2   6   12.79  182.59
 -19   3  -6 -408.08  207.28
  19  -3  -6   11.48   87.37
 -19   3  -6  214.50  136.86
 -19   3   6  413.15  257.94
  19  -3   6   63.24  176.30
  19  -3   6   -9.56   84.98
 -19   4  -6 -123.32  142.54
 -19   4  -6  -13.15  219.60
  19  -4   6    9.80   81.70
  19  -4   6   25.51  184.67
 -19   5  -6   28.53  142.82
 -19   5  -6 -205.61  224.38
  19  -5   6   13.02  183.29
  19  -5   6  -10.01   87.88
 -19   6  -6   58.44  120.92
 -19   6  -6  157.10  234.00
  19  -6   6   10.27   82.63
 -20  -4   6  -13.65  124.72
  20   3  -6   65.04  188.09
  20   3  -6  183.22   74.70
 -20  -3   6 -148.98  150.25
 -20  -3   6   10.16  168.03
  20   2  -6 -150.21  174.36
  20   2  -6   -9.09   74.73
 -20  -2   6  -10.98  180.26
 -20  -2   6   27.00  135.03
  20   1  -6  293.10  179.54
  20   1  -6   28.92   78.38
 -20  -1   6 -226.94  142.97
 -20  -1   6  -72.00  200.23
  20   0  -6 -254.18  178.14
  20   0  -6  -10.28   88.72
 -20   0   6  380.64  219.30
 -20   0   6 -265.57  124.88
  20  -1  -6  -33.06   88.46
  20  -1  -6   12.13  162.35
 -20   1   6   26.70  127.14
 -20   1   6  215.76  243.61
  20  -2  -6  -11.73  103.15
 -20   2   6 -241.23  136.09
 -20   2   6   95.21  265.71
   0   0  -7    1.54    9.39
   0   0  -7    6.37   12.01
   0   0   7   -5.86   18.00
  -1   0  -7  241.88   48.96
   0   1  -7  213.54   50.28
   0   1  -7  236.46   48.89
   1   0  -7  331.68   48.53
   1   0  -7  311.92   46.87
  -1   0   7  225.72   62.81
   0  -1   7  238.93   58.32
   1   0   7  237.98   57.56
  -1   1  -7  -13.06    8.55
  -1   1  -7  -13.68   11.74
  -1   1  -7   -2.02    6.77
   1   1  -7    8.71    9.20
   1   1  -7   16.35   12.32
   1  -1   7  -12.07    9.85
   1  -1   7   -8.96   15.43
  -1  -1   7   -1.49   15.86
   2   1  -7  293.63   48.77
  -1   2  -7  237.99   48.36
  -1   2  -7  210.70   41.96
  -1   2  -7  226.02   43.22
  -1   2  -7  286.32   44.69
   1  -2   7  264.02   38.39
   1  -2   7  192.59   47.19
   1  -2   7  151.36   53.25
  -2  -1   7  127.75   56.53
   0   2  -7  -10.24    7.07
   0   2  -7   -8.21   11.73
   2   0  -7  -13.44   15.00
  -2   0  -7   -3.96   10.46
  -2   0   7   -2.28   23.07
   0  -2   7   -3.28   12.75
   2   0   7   -2.42   12.44
   1   2  -7  228.18   45.01
   1   2  -7  292.79   42.55
  -2   1  -7  249.36   43.39
  -2   1  -7  220.47   47.85
  -2   1  -7  228.78   47.12
  -1  -2   7  162.98   53.50
   2  -1   7  265.25   40.94
   2  -1   7  276.11   49.05
   2  -1   7  283.89   56.29
  -2   2  -7   -4.84    8.57
  -2   2  -7   -2.08   14.72
   2   2  -7   -8.60   12.63
  -2   2  -7    5.57    6.13
  -2   2  -7   -1.89   10.44
   2  -2   7   -1.57    6.73
   2  -2   7    6.13   12.63
  -2  -2   7    1.33   15.90
   2  -2   7   -1.14   15.18
   2  -2   7  -10.66    7.91
  -2   3  -7 3430.72  615.33
   3   2  -7 3767.83  665.31
  -2   3  -7 3027.53  607.42
  -3  -2   7 3467.63  564.86
   2  -3   7 3517.52  625.82
  -3  -2   7 3698.78  682.45
  -3  -2   7 3175.71  692.06
   2  -3   7 3061.82  645.05
   3   1  -7  364.35   70.15
  -1   3  -7  408.76   67.62
   3   1  -7  391.99   59.10
   3   1  -7  363.05   63.24
  -3  -1   7  422.26   80.47
   1  -3   7  319.21   67.49
  -3  -1   7  310.14   76.37
   0   3  -7 2262.20  387.38
  -3   0  -7 2366.21  374.46
   3   0  -7 2255.00  389.93
   0  -3   7 2002.49  412.45
   3   0   7 1953.83  435.29
  -3   1  -7  340.81   66.03
  -3   1  -7  246.87   61.45
   1   3  -7  425.01   67.21
  -3   1  -7  351.43   67.03
   3  -1   7  359.50   80.68
  -1  -3   7  328.85   64.43
   3  -1   7  332.50   54.71
   3  -1   7  232.58   70.74
  -3   2  -7 3438.19  626.77
  -3   2  -7 3445.37  574.01
  -3   2  -7 3033.46  586.96
   3  -2   7 3525.04  502.51
   3  -2   7 3702.01  691.11
   3  -2   7 2981.91  594.08
   3  -2   7 3902.03  604.00
  -3   3  -7   -6.68   11.96
  -3   3  -7    2.05    9.75
   3   3  -7    3.62   15.01
  -3   3  -7   14.54   16.79
   3   3  -7   -1.61    6.49
   3  -3   7   -3.09   10.64
  -3  -3   7  -16.81   13.03
   3  -3   7    9.62   10.87
   3  -3   7   -9.10   23.17
   4   3  -7 1531.38  299.96
   4   3  -7 1586.43  261.05
  -3   4  -7 1791.19  307.85
   4   3  -7 1567.73  263.07
  -4  -3   7 1772.10  277.27
  -2   4  -7   71.60   23.68
   4   2  -7   71.54   17.86
  -2   4  -7   87.09   24.48
   4   2  -7   78.66   28.23
  -4  -2   7  108.75   23.76
  -4  -2   7  136.60   28.56
   2  -4   7   70.50   24.48
  -1   4  -7  147.52   34.35
  -1   4  -7  105.98   33.44
   4   1  -7  219.31   38.09
  -4  -1  -7  149.25   34.03
   4   1  -7  184.43   28.51
  -4  -1   7  184.54   39.12
  -4  -1   7  148.10   45.50
   1  -4   7  190.68   34.12
   4   1   7   79.75   30.28
  -4   0  -7   19.19   20.52
   0   4  -7   10.40   14.45
  -4   0  -7  -12.31   11.17
   4   0  -7   13.97   22.82
   4   0   7    7.84    9.76
  -4   0   7   -5.46   32.26
   4   0   7   25.69   24.39
  -4   1  -7  218.56   36.16
  -4   1  -7  169.91   30.89
  -4   1  -7  193.45   29.66
   4  -1   7  176.86   39.50
   4  -1   7   97.53   26.11
   4  -1   7  191.45   40.88
  -4   2  -7  136.78   22.07
  -4   2  -7  114.81   20.64
  -4   2  -7  120.52   32.65
  -4   2  -7   79.67   24.74
   4  -2   7  100.17   25.16
   4  -2   7   99.27   19.96
   4  -2   7  109.87   21.66
   4  -2   7   62.46   32.44
  -4   3  -7 1377.69  325.72
   3   4  -7 1755.74  264.85
  -4   3  -7 1424.58  307.20
   3   4  -7 1730.31  343.63
   4  -3   7 1449.87  263.08
   4  -3   7 1710.83  305.89
   4   4  -7  -31.74   14.09
   4   4  -7    1.98   22.69
   4   4  -7    7.25   20.47
  -4   4  -7   -5.49   12.53
  -4  -4   7    5.68   19.69
   4  -4   7   -2.58   24.63
   4  -4   7    7.80   14.84
   5   4  -7 1028.77  245.82
   5   4  -7 1338.00  229.31
  -5  -4   7 1027.64  209.64
  -5  -4   7 1379.35  220.33
   5   3  -7 1145.88  203.00
   5   3  -7 1004.84  186.60
   5   3  -7 1234.24  178.07
   5   3  -7 1100.49  214.37
  -5  -3   7  953.52  197.86
  -5  -3   7 1175.47  252.50
   5   2  -7 2241.29  315.38
   5   2  -7 2532.48  346.33
   5   2  -7 2681.15  408.08
  -5  -2   7 2736.57  414.49
  -5  -2   7 2417.62  349.50
   5   2   7 2512.10  365.48
   5   1  -7   38.30   15.24
   5   1  -7   52.29   26.74
  -5  -1   7   54.50   22.47
   5   1   7   61.73   28.29
   5   0  -7 4488.25  871.81
   1   5  -7   65.16   20.26
   1   5  -7   76.62   18.73
  -5   1  -7   49.59   10.47
  -1  -5   7   53.17   20.34
   2   5  -7 2461.98  375.34
  -5   2  -7 2298.80  382.49
   5  -2   7 2386.81  432.97
   5  -2   7 1588.28  444.47
  -5   3  -7 1075.74  216.74
   4   5  -7 1214.80  206.80
  -5   4  -7 1252.41  240.51
   4   5  -7 1088.20  254.98
   4   5  -7 1182.15  226.78
   5  -4   7 1499.36  223.92
   6   5  -7  108.81   37.12
   6   5  -7   92.69   28.15
  -6  -5   7  130.20   32.18
   6   3  -7 1177.40  163.53
   6   3  -7 1133.05  188.64
   6   3  -7 1226.60  174.54
  -6  -3   7 1199.50  183.06
  -6  -3   7 1344.18  235.21
   6   2  -7 1084.40  153.52
  -6  -2  -7 1012.90  164.67
   6   2  -7 1059.56  170.40
  -6  -2   7  906.33  171.82
   6   2   7  616.19  183.32
   6   2   7 1021.76  159.35
   6   1  -7  363.50   54.99
  -6  -1  -7  251.06   57.36
   6   1  -7  264.39   66.37
   6   1  -7  303.30   50.53
   6   1   7  157.33   66.09
  -6  -1   7  361.32   78.54
   6   1   7  287.77   49.12
   6   0  -7   -9.69   19.44
  -6   0  -7   17.47   31.88
   6   0   7  -29.63   38.10
   6   0   7   16.09   15.60
  -6   1  -7  238.28   61.64
   6  -1  -7  294.25   55.81
   6  -1   7  296.34   68.41
   6  -1   7  233.91   47.83
  -6   2  -7 1210.99  196.41
  -6   2  -7  929.61  195.28
  -6   2  -7  816.96  184.14
  -2  -6   7  958.28  186.83
   6  -2   7 1053.62  192.47
  -6   3  -7 1152.71  199.19
  -6   3  -7 1367.60  212.81
   6  -3   7 1399.24  201.02
   5   6  -7   66.70   36.26
  -6   5  -7   76.40   40.22
   5   6  -7  132.98   31.38
   6  -5   7  147.59   30.75
  -5  -6   7  116.93   33.32
   6   6  -7  -16.65   37.46
   6   6  -7  -10.19   23.31
   6   6  -7    5.47   30.48
  -6  -6   7  -24.52   28.84
   6  -6   7  -41.40   25.30
   7   6  -7  109.31   33.50
   7   6  -7  129.82   44.02
   7   6  -7  138.44   52.57
  -7  -6   7  100.04   40.07
   7   5  -7   40.83   30.64
   7   5  -7   -3.02   43.11
   7   5  -7  -15.10   17.57
   7   5  -7    8.89   20.81
  -7  -5   7    5.56   37.35
  -7  -5   7    2.50   26.20
   7   4  -7  183.59   78.85
   7   4  -7  570.04   77.84
   7   4  -7  473.45  100.48
   7   4  -7  309.27   93.64
  -7  -4   7  535.82   89.46
  -7  -4   7  586.16   90.75
  -7  -4   7  381.30  120.35
  -7   4  -7  571.62   99.76
  -7   4  -7  545.24  104.65
   7  -4   7  581.96  100.38
   7  -4   7  600.44   81.23
  -7   5  -7   13.38   36.25
   5   7  -7   35.60   29.93
   7  -5   7   36.83   45.17
   7  -5   7   26.30   26.18
   6   7  -7  144.59   42.50
   7  -6   7  122.88   36.90
  -6  -7   7  234.10   43.39
   7   7  -7  -16.94   45.38
   7   7  -7  -50.64   37.23
  -7  -7   7   13.02   33.96
   8   7  -7  420.31  111.27
   8   7  -7  511.91   99.96
  -8  -7   7  442.56   92.42
   8   6  -7   30.74   23.75
   8   6  -7   22.16   36.50
   8   6  -7  -22.22   49.44
  -8  -6   7    3.00   30.38
   8   5  -7    2.88   20.97
   8   5  -7   16.42   22.76
   8   5  -7    2.89   34.96
   8   5  -7  -45.66   51.94
  -8  -5   7  -10.54   25.64
  -8  -5   7   -9.51   42.59
   8   4  -7  188.48   38.23
   8   4  -7  224.29   58.64
   8   4  -7  210.77   36.07
   8   4  -7  102.79   47.83
  -8  -4   7  221.10   54.36
  -8  -4   7  221.74   63.30
  -8  -4   7  165.89   44.86
   8   3  -7  -50.81   28.77
   8   3  -7  -12.82   17.85
   8   3  -7   -6.91   18.80
  -8  -3  -7   -3.74   42.93
   8   3  -7   40.00   44.16
  -8  -3   7   -9.40   37.28
   8   3   7   11.61   46.36
   8   3   7  -10.23   23.90
  -8  -3   7   15.42   24.27
  -8  -3   7   25.80   23.74
  -8  -3   7    8.55   43.69
   8   2  -7  487.01  106.46
   8   2  -7  496.51   77.87
  -8  -2  -7  315.71   87.13
   8   2  -7  427.49   97.45
   8   2  -7  463.46   87.20
  -8  -2   7  323.52   95.90
   8   2   7  372.24  103.88
  -8  -2   7  468.36  105.67
  -8  -2   7  428.30  116.81
   8   2   7  475.79   76.60
   8   1  -7   60.38   28.88
   8   1  -7  181.37   44.41
  -8  -1  -7  119.78   48.29
   8   1  -7   44.57   29.16
   8   1  -7  181.27   51.95
  -8  -1   7   87.02   54.41
  -8  -1   7  186.58   58.89
  -8  -1   7   96.46   39.82
   8   1   7  148.54   29.70
   8   1   7   31.66   56.47
   8   0  -7    6.25   25.26
   8   0  -7  -23.74   38.78
  -8   0  -7   33.97   46.55
   8   0  -7   14.14   41.35
   8   0  -7  -24.91   20.32
   8   0   7   69.83   48.13
  -8   0   7   61.32   34.65
  -8   0   7   48.09   58.96
   8   0   7   -8.01   21.41
   8  -1  -7  243.71   49.85
  -8   1  -7  127.12   54.15
   8  -1  -7  132.79   36.26
   8  -1  -7  191.85   34.86
  -8   1   7  143.27   46.55
   8  -1   7  178.04   60.98
   8  -1   7  126.04   30.15
  -8   2  -7  577.64  104.04
   8  -2  -7  565.44   98.59
  -8   2  -7  566.71  106.80
   8  -2   7  610.57  110.41
   8  -2   7  552.34   82.53
  -8   3  -7  -16.82   59.44
  -8   3  -7    3.83   34.81
   8  -3   7   71.21   58.80
   8  -3   7   12.54   23.28
  -8   4  -7  136.82   57.75
   8  -4   7  305.93   69.82
   8  -4   7  179.88   42.35
  -8   5  -7   44.16   40.96
   8  -5   7    7.41   29.74
   8  -5   7   -4.52   54.24
   8  -6   7   -3.93   31.63
   9   8  -7  715.28  145.91
   9   6  -7  318.48   89.62
   9   6  -7  226.90   72.48
   9   6  -7  313.65   59.16
  -9  -6   7  301.98   64.06
   9   5  -7  277.29   54.05
   9   5  -7  377.78   83.45
   9   5  -7  227.65   50.82
   9   5  -7  199.72   67.54
  -9  -5   7  251.48   60.13
  -9  -5   7  243.06   69.23
   9   4  -7   13.63   32.62
   9   4  -7   -6.43   21.78
   9   4  -7  -33.88   21.43
   9   4  -7   25.96   55.74
  -9  -4   7   19.17   44.27
  -9  -4   7   13.29   49.73
  -9  -4   7   -5.05   29.40
   9   3  -7    7.96   21.34
   9   3  -7    2.58   31.79
   9   3  -7   24.96   51.75
  -9  -3  -7   32.87   49.97
   9   3  -7   13.91   21.02
  -9  -3   7   -5.18   42.83
   9   3   7   90.03   55.94
  -9  -3   7  -27.01   33.48
   9   3   7   25.79   27.22
  -9  -3   7    2.33   25.06
  -9  -3   7   -3.27   51.00
   9   2  -7  -27.38   22.34
   9   2  -7  -25.97   20.21
   9   2  -7    5.45   33.77
  -9  -2  -7  -33.73   48.06
   9   2  -7    3.67   52.12
  -9  -2   7   -4.39   25.57
  -9  -2   7   -9.49   32.67
   9   2   7    3.34   26.31
  -9  -2   7   -5.55   46.64
   9   2   7   -8.79   57.44
  -9  -2   7   65.18   52.45
   9   1  -7   36.05   24.29
   9   1  -7   17.60   21.54
   9   1  -7   70.13   55.06
  -9  -1  -7   22.75   50.87
   9   1  -7    6.44   37.48
  -9  -1   7   32.03   33.25
   9   1   7   15.48   21.70
   9   1   7   81.07   61.96
  -9  -1   7  119.25   60.70
  -9  -1   7   66.46   59.28
  -9   0  -7  -58.42   52.75
   9   0  -7   -6.42   23.40
   9   0  -7   21.21   28.28
   9   0  -7   18.63   42.30
   9   0  -7   60.12   48.42
  -9   0   7    4.40   66.53
   9   0   7    8.88   59.88
   9   0   7   27.42   23.31
  -9   0   7   -4.03   34.02
   9  -1  -7   52.02   28.07
  -9   1  -7    4.06   58.86
   9  -1  -7   34.09   53.48
   9  -1  -7    8.19   31.83
   9  -1   7   40.84   26.05
  -9   1   7   17.96   39.72
   9  -1   7  108.04   59.09
   9  -2  -7   37.12   35.97
  -9   2  -7  -11.69   29.45
  -9   2  -7    4.43   67.88
   9  -2   7   18.36   59.13
   9  -2   7   32.97   28.30
  -9   3  -7   39.10   35.61
  -9   3  -7   28.60   68.51
   9  -3   7  -28.38   60.46
   9  -3   7   17.70   30.07
  -9   4  -7   43.90   46.91
   9  -4   7    3.84   31.91
   9  -4   7   19.43   67.22
  -9   5  -7  292.00   75.33
   9  -5   7  256.11   79.24
   9  -5   7  400.00   59.18
  -9   6  -7  218.29   79.85
   9  -6   7  303.48   58.73
  10   8  -7    4.09   51.21
  10   7  -7  387.00  115.47
  10   7  -7  462.04   98.26
 -10  -7   7  379.56   85.56
  10   6  -7  157.82   48.97
  10   6  -7  291.14   85.98
  10   6  -7  160.36   45.42
  10   6  -7  265.61   63.17
 -10  -6   7  121.79   56.10
 -10  -6   7  209.71   69.88
  10   4  -7  195.90   79.88
  10   4  -7  168.38   48.83
  10   4  -7  197.05   60.93
  10   4  -7  320.67   46.55
 -10  -4  -7  241.83   69.66
 -10  -4   7  221.91   54.88
 -10  -4   7  287.00   73.42
 -10  -4   7  302.32   76.89
 -10  -3  -7   26.92   57.45
  10   3  -7   12.06   26.21
  10   3  -7   11.00   35.84
  10   3  -7   -2.08   21.10
  10   3  -7   49.19   60.34
 -10  -3   7  -25.81   46.76
  10   3   7  -63.77   59.96
 -10  -3   7   24.55   29.76
  10   3   7    4.00   31.20
 -10  -3   7  -13.93   36.11
 -10  -3   7   40.74   57.17
  10   2  -7   89.65   41.76
 -10  -2  -7   67.60   55.65
  10   2  -7  -54.51   60.77
  10   2  -7   54.15   26.04
  10   2  -7   93.94   29.27
  10   2   7  111.26   33.27
 -10  -2   7  138.85   41.99
 -10  -2   7  108.89   56.31
 -10  -2   7   93.64   64.14
  10   2   7   55.42   66.33
 -10  -2   7   30.04   28.09
  10   1  -7  379.77   69.39
  10   1  -7  269.16  101.28
 -10  -1  -7  451.14   89.17
  10   1  -7  228.06   98.99
  10   1  -7  390.94   74.59
 -10  -1   7  395.02  125.09
 -10  -1   7  383.34   95.43
  10   1   7  273.86  102.16
  10   1   7  484.17   64.09
 -10  -1   7  345.61   97.99
  10   0  -7  -20.36   46.82
  10   0  -7   58.36   55.09
 -10   0  -7   75.36   61.21
  10   0  -7  -35.29   32.99
  10   0  -7   -8.77   22.73
 -10   0   7  -45.13   42.94
  10   0   7    5.03   68.65
  10   0   7  -41.51   27.80
 -10   0   7    9.72   74.36
  10  -1  -7  420.28   77.69
  10  -1  -7  431.25   98.64
 -10   1  -7  484.68   95.21
 -10   1  -7  462.62   92.46
  10  -1  -7  435.14   79.17
  10  -1   7  498.07   68.86
  10  -1   7  412.53  105.50
 -10   1   7  417.28  101.36
  10  -2  -7  112.43   43.13
 -10   2  -7  -45.04   77.16
 -10   2  -7  154.99   50.09
  10  -2  -7   98.78   37.03
 -10   2   7   91.13   49.63
  10  -2   7  138.02   33.82
  10  -2   7  114.12   77.18
 -10   3  -7   91.19   80.20
 -10   3  -7   58.74   47.31
  10  -3   7  -15.99   74.32
  10  -3   7  -28.10   34.15
 -10   4  -7  380.94   75.26
  10  -4   7  174.14   79.96
  10  -4   7  251.78   54.73
 -10   6  -7  358.62   74.72
  10  -6   7  287.58   52.56
  11   8  -7  165.09   59.91
  11   7  -7   34.37   82.81
  11   7  -7   65.25   55.97
  11   6  -7  164.72   50.66
  11   6  -7   54.95   35.99
  11   6  -7   69.01   81.82
  11   6  -7   86.15   38.40
 -11  -6   7   80.96   67.34
 -11  -6   7   41.45   41.19
 -11  -6   7   16.03   72.34
  11   5  -7  174.04   61.36
  11   5  -7  395.88   69.49
  11   5  -7  507.10  107.34
  11   5  -7  385.27   80.93
 -11  -5   7  314.25   73.42
 -11  -5   7  262.61  108.71
 -11  -5   7  328.46   86.09
  11   4  -7   17.69   28.00
  11   4  -7   11.90   24.87
  11   4  -7   57.67   40.71
  11   4  -7   48.28   67.54
 -11  -4  -7   47.45   66.42
 -11  -4   7    2.76   32.63
 -11  -4   7   -4.19   44.99
  11   4   7   37.08   33.36
 -11  -4   7  104.59   55.77
 -11  -4   7   45.58   63.86
 -11   4  -7  175.78   97.31
 -11   4  -7   12.13   57.20
  11  -4   7 -109.11   83.36
  11  -4   7    9.28   39.91
 -11   5  -7  365.88   95.77
  11  -5   7  464.72   71.65
  11  -5   7  607.86  106.75
 -11   6  -7   98.07   64.24
  11  -6   7  192.88   81.88
  11  -6   7   98.76   46.15
  11  -7   7  110.34   48.07
  12   6  -7  -59.32   89.53
  12   6  -7    4.68   36.74
 -12  -6   7 -122.56   72.47
 -12  -6   7  -10.75   39.39
 -12  -6   7   36.94   69.32
  12   5  -7   51.28   80.55
  12   5  -7   93.33   36.22
 -12  -5   7  -18.48   69.69
  12   4  -7    3.92   32.54
  12   4  -7   37.96   80.82
  12   4   7   -5.05   34.52
 -12  -4   7   41.13   69.57
 -12  -4   7   -9.45   50.62
  12   3  -7  730.31  131.90
 -12  -3  -7  448.36  112.08
  12   3  -7  349.40   81.72
 -12  -3   7  528.70  109.32
 -12  -3   7  465.19  121.41
  12   3   7  409.83   81.61
  12   2  -7  -20.01   35.03
 -12  -2  -7  -58.32   76.69
  12   2  -7   21.33   75.76
  12   2   7   98.87   93.22
  12   2   7  -32.21   36.66
 -12  -2   7  -38.97   79.71
 -12  -2   7    4.87   53.50
 -12  -1  -7 1261.02  236.60
  12   1  -7 1379.36  214.85
  12   1  -7 1491.55  285.15
 -12  -1   7 1381.39  299.45
  12   1   7 1418.52  273.88
 -12  -1   7 1191.97  250.43
  12   0  -7  -44.19   72.36
  12   0  -7   57.32   38.84
 -12   0  -7  214.38   92.82
  12   0   7   65.99   40.90
 -12   0   7  -67.99   94.72
 -12   0   7  -11.16   51.91
  12   0   7   12.57   94.19
  12  -1  -7 1111.79  275.64
  12  -1  -7 1347.52  239.60
 -12   1  -7 1106.98  286.19
 -12   1  -7 1616.04  253.87
  12  -1   7 1522.93  210.85
 -12   1   7 1514.40  303.63
  12  -1   7 1189.97  282.20
 -12   2  -7   80.54   57.95
  12  -2  -7   -6.10   48.68
 -12   2  -7  -62.10   96.09
 -12   2   7  -19.21   50.83
  12  -2   7 -107.82   42.74
  12  -2   7    6.52   95.36
 -12   3  -7  701.31  126.58
 -12   3  -7  571.69  143.39
  12  -3   7  549.46   94.62
  12  -3   7  374.44  138.76
 -12   4  -7  107.77   62.48
 -12   4  -7   -6.94  109.21
  12  -4   7  -35.82   44.41
  12  -4   7  100.75   87.49
  12  -5   7  140.80   49.11
 -13  -4  -7   25.33   80.58
  13   4  -7   24.35   87.93
  13   4  -7   21.60   36.30
 -13  -4   7  -96.36   59.46
  13   4   7  -49.79   41.11
  13   4   7   -6.96   96.93
 -13  -4   7   70.30   77.98
  13   3  -7    8.54   36.63
  13   3  -7  -48.18   86.47
 -13  -3   7  -97.77   80.84
 -13  -3   7  -85.64   57.50
  13   2  -7  191.96   93.41
  13   2  -7   66.71   45.15
 -13  -2   7  154.04   65.08
  13   2   7  130.01  100.59
 -13  -2   7   16.25   90.90
  13   1  -7   57.05   40.39
  13   1  -7   79.40   84.18
 -13  -1   7  -24.26   99.31
 -13  -1   7  -99.28   61.26
  13   0  -7  676.28  141.82
  13   0  -7  493.80  106.65
 -13   0   7  673.63  142.37
 -13   0   7  610.01  158.73
  13  -1  -7  -56.80   79.23
  13  -1  -7  -65.46   44.39
 -13   1   7  -19.80   64.28
  13  -2  -7  571.61   90.17
  13  -2  -7  345.54   65.20
  13  -3   7   -7.46  106.08
 -13   4  -7  -45.34   73.33
  13  -4   7  -59.28   96.67
  13  -7   7   -6.49   57.89
 -14  -5  -7  -29.17   88.77
  14   5   7  -53.26  111.28
 -14  -4   7   -5.49   84.49
  14  -4   7   65.29  115.41
 -14   5  -7 -130.81  145.10
 -14   5  -7   17.47   77.60
  14  -5   7  140.23   58.68
  14  -5   7   90.57  113.45
 -14   6  -7   83.16   86.49
  14  -6   7   52.89   57.09
  14  -6   7   76.33  108.20
  14  -7   7   76.99   60.56
  15   5  -7   78.36  114.83
  15   5  -7    5.48   40.43
 -15  -5  -7   23.98  102.38
 -15  -5   7  -99.88   71.14
 -15  -5   7  -11.78   86.13
  15   5   7  319.49  127.48
 -15  -4  -7  -68.64  101.93
  15   4  -7   10.41   43.73
  15   4  -7 -146.11  113.58
 -15  -4   7   35.98   91.52
  15   4   7  107.81  114.84
 -15  -4   7 -124.22   66.34
  15   4   7    6.67   50.31
  15   3  -7   31.41   45.17
  15   3  -7  -44.95  103.30
 -15  -3  -7  -36.24   99.95
 -15  -3   7  -70.61   72.81
  15   3   7   45.23   49.72
 -15  -3   7  180.88  100.11
 -15  -2  -7  -29.28  105.96
  15   2  -7  112.71   99.76
  15   2  -7    5.44   46.40
 -15  -2   7   -6.65  114.10
 -15  -2   7   -7.11   69.08
  15   2   7  -12.43   50.27
  15   1  -7   -5.84   48.61
  15   1  -7   73.84  101.78
 -15  -1  -7 -101.19   86.27
 -15  -1  -7   -7.55  111.71
 -15  -1   7   -7.33   69.83
 -15  -1   7   -7.34  118.39
  15   1   7  -76.38  123.08
  15   1   7   30.45   49.40
 -15   0  -7  -23.36  121.45
  15   0  -7    6.39   56.51
  15   0  -7   -7.35   95.01
 -15   0  -7 -160.14   99.32
  15   0   7   85.14  129.94
  15   0   7  116.61   57.87
 -15   0   7   -7.65   72.27
 -15   0   7    8.28  130.59
 -15   1  -7   96.94  121.15
  15  -1  -7   15.10   94.64
  15  -1  -7    7.04   60.58
 -15   1  -7   -7.89   96.00
  15  -1   7   -6.15   54.83
 -15   1   7 -158.71  146.49
  15  -1   7 -156.72  130.51
 -15   1   7   15.95   79.99
  15  -2  -7    7.69   61.86
 -15   2  -7   65.91   89.99
 -15   2  -7  -33.32  129.58
  15  -2  -7  -47.15   95.64
  15  -2   7  114.34  133.14
  15  -2   7   25.45   56.76
 -15   2   7   24.89   77.87
  15  -3  -7  -94.25   71.47
 -15   3  -7 -175.40   85.44
 -15   3  -7   35.01  135.70
  15  -3   7   54.27  125.55
  15  -3   7  -32.70   58.91
 -15   4  -7   46.18   93.56
 -15   4  -7 -100.88  142.58
  15  -4   7   20.12   57.94
  15  -4   7   17.94  118.82
 -15   5  -7  133.51  158.86
 -15   5  -7  -47.99   94.51
  15  -5   7  199.29  128.94
  15  -5   7   -7.04   61.57
 -15   6  -7   40.48   87.35
 -15   6  -7    9.88  157.73
  15  -6   7   43.24   59.79
  15  -6   7   93.07  121.38
  16   5   7   81.89  135.22
 -16  -5   7  -88.46   84.81
 -16  -5   7   69.95   92.79
  16   2  -7  -91.76  113.85
 -16  -2  -7  -56.85  124.07
  16   2  -7   -5.99   48.12
 -16  -2   7  -29.37  120.47
 -16  -2   7  120.01   84.44
  16   2   7   -7.03   59.46
 -16  -1  -7   51.81   96.10
  16   1  -7  -97.41  111.44
 -16  -1  -7   75.41  124.21
  16   1  -7  -13.00   53.89
 -16  -1   7    8.31   79.09
 -16  -1   7  -88.18  134.10
  16   1   7   18.59  129.66
  16   1   7  -13.53   60.10
 -16   0  -7   -8.58   91.30
  16   0  -7    8.08  114.85
 -16   0  -7 -120.82  125.95
  16   0  -7    6.99   56.30
  16   0   7 -128.97   55.17
  16   0   7 -179.40  149.32
 -16   0   7    9.09  149.18
 -16   0   7   25.40   80.69
 -16   1  -7  142.74  131.05
  16  -1  -7 -205.96  106.08
  16  -1  -7 -246.50   66.86
 -16   1  -7   26.61   97.25
  16  -1   7   66.74  143.53
 -16   1   7   52.69   86.28
  16  -1   7   61.95   55.47
 -16   1   7 -440.02  169.45
  16  -2  -7   34.23  101.93
 -16   2  -7  128.23  100.83
 -16   2  -7 -147.28  143.75
  16  -2  -7    8.39   71.67
  16  -2   7 -292.61  148.11
 -16   2   7   -9.06   88.49
 -16   2   7   56.81  183.30
  16  -2   7 -153.48   56.39
 -16   5  -7  250.86  169.25
 -16   5  -7  -42.73  107.47
  16  -5   7    9.97  135.35
  16  -5   7  -30.40   66.89
 -16   6  -7   33.27   96.72
 -16   6  -7  129.68  174.66
  16  -6   7  337.23  140.52
  16  -6   7   55.13   68.06
 -16   7  -7   67.08  181.05
  16  -7   7  -48.63   66.27
 -17  -5  -7   67.61  125.85
  17   5   7  269.89  144.19
 -17  -4  -7   37.24  124.68
  17   4  -7   -6.36   50.74
  17   4  -7 -122.72  145.93
  17   4   7   -8.13   64.32
 -17  -4   7  225.03  101.99
 -17  -4   7   92.47  113.74
  17   4   7  192.07  152.80
  17   3  -7    6.34   48.12
 -17  -3  -7    8.92  126.23
  17   3  -7  139.74  130.17
  17   3   7 -398.07  146.68
 -17  -3   7  -52.57  120.00
 -17  -3   7   27.33   93.86
  17   3   7   -7.93   60.14
  17   2  -7  -27.61  118.15
 -17  -2  -7  314.96  131.89
  17   2  -7   46.55   58.15
 -17  -2   7 -127.85   93.14
  17   2   7  -15.59   59.92
 -17  -2   7    8.08  130.83
  17   1  -7  116.25  124.97
 -17  -1  -7   -9.60   97.72
  17   1  -7    7.09   59.17
 -17  -1  -7 -129.82  137.90
 -17  -1   7  -55.64   88.24
 -17  -1   7 -202.71  143.57
  17   1   7    7.66   57.18
 -17   0  -7    9.56  145.55
 -17   0  -7  -86.77  102.75
  17   0  -7 -133.06  119.41
  17   0  -7   -7.69   66.85
  17   0   7 -135.85  163.49
 -17   0   7   18.77   89.73
 -17   0   7   59.37  160.50
  17   0   7   -7.50   63.60
  17  -1  -7   90.25  118.12
 -17   1  -7   29.65  148.64
  17  -1  -7  -33.64   77.13
 -17   1  -7   30.43  106.53
 -17   1   7   89.22  180.54
  17  -1   7  -94.82  153.53
 -17   1   7  -77.45  102.65
  17  -1   7  -53.41   65.44
 -17   2  -7   10.42  109.02
  17  -2  -7   -9.18  132.09
 -17   2  -7 -121.84  159.00
  17  -2   7    7.72   59.83
 -17   2   7 -347.88  220.18
 -17   2   7 -396.66  124.63
  17  -2   7  -21.66  149.18
 -17   3  -7   10.86  121.59
 -17   3  -7  -20.88  169.83
  17  -3  -7    9.81   85.54
 -17   3   7 -135.39  214.16
  17  -3   7  -87.27   72.09
  17  -3   7  129.13  159.52
 -17   4  -7  -54.49  171.09
 -17   4  -7   45.53  101.33
  17  -4   7  171.93  145.02
  17  -4   7   40.31   65.55
 -17   5  -7 -105.87  108.78
  17  -5   7  -32.85  139.13
  17  -5   7   41.20   67.78
 -17   6  -7  -11.80  199.21
 -17   6  -7   85.18  119.18
  17  -6   7  -11.22  143.04
  17  -6   7    8.55   62.31
  18   3  -7 -104.33  144.19
 -18  -3  -7   -9.91  141.65
  18   3  -7   27.82   54.41
  18   3   7   67.24  167.96
 -18  -3   7  -82.14  125.70
 -18  -3   7   10.23  105.14
  18   3   7   -8.80   70.08
 -18  -2  -7  229.45  147.43
  18   2  -7 -241.46  147.71
  18   2  -7   29.36   62.42
 -18  -2   7  102.89  104.26
  18   2   7   -8.64   64.91
 -18  -2   7  -98.04  146.26
  18   1  -7  -49.06  138.15
 -18  -1  -7   10.27  156.79
  18   1  -7    7.82   66.71
 -18  -1   7  278.72  115.12
 -18  -1   7   -9.73  158.94
  18   1   7  -93.65   69.04
  18   0  -7   -8.47   69.83
  18   0  -7  195.39  138.24
 -18   0  -7  -11.03  114.72
 -18   0  -7   52.80  152.15
 -18   0   7  433.86  192.88
  18   0   7 -184.47  168.87
 -18   0   7 -228.90  109.44
  18   0   7   16.85   69.41
  18  -1  -7    9.16   77.09
  18  -1  -7  237.45  131.41
 -18   1  -7   11.30  116.31
 -18   1  -7   10.90  168.07
 -18   1   7  -10.72  106.24
  18  -1   7   11.61  173.43
 -18   1   7   12.19  207.89
  18  -1   7   16.90   74.54
  18  -2  -7   -9.97   85.65
 -18   2  -7  151.43  124.75
 -18   2  -7 -212.97  173.23
 -18   2   7  230.76  238.98
  18  -2   7  -16.90   68.88
  18  -2   7 -130.67  163.58
 -18   2   7  -10.91   91.68
 -18   3  -7  -11.47  181.65
 -18   3  -7   24.50  120.25
  18  -3  -7  -10.66   92.26
  18  -3   7    8.65   73.33
  18  -3   7   11.74  165.65
 -18   3   7  -14.78  235.50
 -18   6  -7 -219.59  206.24
 -18   6  -7 -253.85  132.48
  18  -6   7   61.68  161.43
  18  -6   7  -37.28   81.11
 -19  -5  -7   11.78  158.29
 -19  -4  -7  -80.60  161.91
  19   4   7  159.59  188.58
  19   4   7   10.01   77.61
 -19  -3  -7   11.02  158.72
  19   3  -7 -172.12  186.28
  19   3  -7    7.75   59.56
 -19  -3  -7  -12.33  128.59
  19   3   7    9.75   79.99
 -19  -3   7   63.18  143.21
  19   3   7  -49.11  176.78
 -19  -3   7   23.39  116.81
  19   2  -7  -11.03  159.21
  19   2  -7   -8.11   64.24
 -19  -2  -7  154.57  161.93
 -19  -2  -7 -109.15  119.07
  19   2   7  248.21  195.15
 -19  -2   7   11.71  117.26
  19   2   7   -9.59   78.83
 -19  -2   7   39.16  164.83
 -19  -1  -7 -227.20  180.00
  19   1  -7  -43.24  145.31
  19   1  -7    8.59   71.83
  19   1   7    9.50   81.93
 -19  -1   7 -326.18  123.25
 -19  -1   7 -504.77  185.75
  19   0  -7   64.77  144.00
  19   0  -7   -9.34   77.09
 -19   0  -7 -202.89  142.30
 -19   0  -7 -163.77  185.38
  19   0   7  -12.65  177.36
 -19   0   7   35.06  116.06
  19   0   7    9.35   77.99
 -19   0   7   23.63  195.26
 -19   1  -7  120.20  194.03
  19  -1  -7  110.56   83.01
  19  -1  -7   10.88  133.31
 -19   1  -7  116.00  139.12
  19  -1   7 -206.51  199.72
  19  -1   7    9.37   76.80
 -19   1   7  -82.91  116.90
 -19   1   7   79.57  218.87
  19  -2  -7   10.80   85.41
 -19   2  -7   98.84  196.20
 -19   2  -7   39.65  142.30
  19  -2   7 -182.20  189.24
  19  -2   7    9.43   82.36
 -19   2   7  132.75  243.04
 -19   2   7   72.24  111.79
 -19   3  -7  217.83  140.97
 -19   3  -7  -75.94  201.53
  19  -3   7   -9.53   81.76
  19  -3   7 -605.56  194.66
 -19   4  -7  111.32  137.25
 -19   4  -7 -129.64  207.49
  19  -4   7    9.76   86.22
  19  -4   7 -374.81  193.72
 -19   5  -7  -13.48  218.43
 -19   5  -7   14.41  138.99
  19  -5   7   -9.92   87.16
  19  -5   7   13.18  178.17
 -19   6  -7  238.42  236.38
  19  -6   7  -10.14   87.43
 -20  -3   7   52.68  133.88
  20   2  -7   -8.95   72.77
  20   2  -7   60.84  166.85
 -20  -2   7   43.07  176.93
 -20  -2   7  -39.31  122.31
  20   1  -7    9.53   82.66
  20   1  -7 -143.23  161.24
 -20  -1   7  -35.49  196.06
 -20  -1   7   52.01  136.13
  20   0  -7  -10.18   90.20
  20   0  -7  -59.56  160.18
 -20   0   7 -104.59  135.19
 -20   0   7  -13.04  223.65
  20  -1  -7 -108.06  154.42
  20  -1  -7  -11.05   94.72
 -20   1   7  157.28  121.89
 -20   1   7  -43.51  250.42
  20  -2  -7  -11.82  102.89
 -20   2   7  483.02  268.86
 -20   2   7 -106.52  111.15
   0   0  -8 1872.99  305.34
   0   0  -8 1424.98  318.21
   0   0   8 2002.43  391.22
   1   0  -8    5.51   12.31
   1   0  -8    8.00   15.55
   0   1  -8    3.26   14.01
   0   1  -8    8.04   10.21
  -1   0  -8  -11.61   12.63
   0  -1   8   13.39   19.30
  -1   0   8   14.59   26.24
   1   0   8    4.32   22.49
   1   1  -8  253.09   56.53
  -1   1  -8  280.15   54.69
   1   1  -8  224.77   52.16
  -1   1  -8  256.77   55.67
  -1  -1   8  313.16   65.58
   1  -1   8  314.48   57.00
   1  -1   8  376.24   66.20
  -1   2  -8   11.56    8.01
  -1   2  -8   12.80   13.37
  -1   2  -8   -1.95   10.88
   2   1  -8   -7.61   16.90
   1  -2   8   -7.09   15.65
   1  -2   8    3.95    5.33
   1  -2   8    1.48   12.66
  -2  -1   8   21.41   23.57
  -2   0  -8    1.54   12.17
   0   2  -8   11.20   14.57
   2   0  -8    4.37   17.57
   0   2  -8    1.11    8.91
  -2   0   8   31.24   29.95
   0  -2   8    2.59   15.34
   2   0   8  -11.65   13.60
   1   2  -8   -4.95    9.51
   1   2  -8   13.73   15.07
  -2   1  -8   14.02   14.65
  -2   1  -8    8.63    9.93
  -2   1  -8   14.77   12.42
   2  -1   8   10.77   19.92
   2  -1   8    4.83   15.90
   2  -1   8    4.37    8.49
  -1  -2   8   12.72   16.44
  -2   2  -8   28.09    9.76
   2   2  -8   46.43   18.31
  -2   2  -8   36.29   14.91
  -2   2  -8   10.08   15.41
   2  -2   8   25.57   17.93
  -2  -2   8    1.59   21.30
   2  -2   8   26.55    8.98
   2  -2   8   56.03   18.21
  -2   3  -8   13.06   15.15
   3   2  -8   32.96    7.81
  -2   3  -8    8.90   10.18
  -2   3  -8   20.07   14.87
   3   2  -8   13.22   14.44
  -3  -2   8   10.29   11.98
   2  -3   8   46.03   20.02
   2  -3   8   18.15   13.03
  -3  -2   8   33.03   18.02
   2  -3   8   17.39    9.40
  -1   3  -8 1239.46  194.50
   1  -3   8 1032.71  204.84
  -3   0  -8  -11.04   17.17
   3   0  -8   -2.38   21.33
  -3   0  -8   -9.88   13.31
   0   3  -8   13.20    8.63
   0   3  -8    1.41   14.75
   3   0   8   -8.03   11.73
   0  -3   8   11.80   10.96
   3   0   8   10.13   20.49
  -3   0   8   36.65   34.62
  -3   1  -8 1102.59  194.02
   3  -1   8 1117.18  181.36
   3  -1   8  945.06  222.79
   3  -1   8 1064.32  255.93
  -3   2  -8   12.77   14.56
  -3   2  -8    9.92   21.82
  -3   2  -8   17.71    8.39
   3  -2   8   35.30   17.07
   3  -2   8   33.15   10.34
   3  -2   8   32.16   22.74
   3  -2   8   25.19   10.36
  -3   3  -8 5155.25 1167.00
  -3   3  -8 6728.64 1084.76
   3   3  -8 5715.77  947.84
  -3   3  -8 5855.29 1059.99
   3   3  -8 5449.45 1097.14
   3   3  -8 6207.53 1015.88
   3   3  -8 5968.97  943.15
   3  -3   8 5108.34  926.49
   3  -3   8 5424.45 1083.74
  -3  -3   8 6471.35 1245.46
  -3  -3   8 4903.44  968.81
  -3   4  -8 1150.76  218.99
   4   3  -8 1000.50  216.78
   4   3  -8 1179.22  182.62
   4   3  -8 1178.21  185.76
   4   3  -8 1125.38  199.24
  -3   4  -8 1232.28  250.78
  -3   4  -8 1264.60  241.73
   3  -4   8 1180.40  192.84
  -4  -3   8 1027.41  198.87
  -4  -3   8 1128.50  196.26
   4   2  -8  985.11  201.92
   4   2  -8  833.72  147.47
  -2   4  -8  840.34  189.16
  -2   4  -8  999.03  182.79
  -4  -2   8 1140.62  201.02
  -4  -2   8  959.92  163.48
  -4  -2   8  913.79  208.56
   2  -4   8 1120.77  165.63
   4   1  -8    2.64   11.06
   4   1  -8   -1.73   15.61
  -1   4  -8    1.47   16.26
  -4  -1   8   49.34   15.43
  -4   0  -8 6310.14 1187.57
  -4   0  -8 6201.12  940.36
   4   0   8 5271.57 1069.21
   1   4  -8    4.20   13.16
  -4   1  -8   26.47   15.20
  -4   1  -8    5.28   24.02
  -4   1  -8   19.84    8.90
   4  -1   8   16.89   28.38
   4  -1   8  -24.65   24.84
  -1  -4   8    8.25   16.35
   4  -1   8    4.29   11.81
  -4   2  -8 1065.33  170.37
   2   4  -8 1079.47  177.49
  -4   2  -8 1058.87  176.62
   2   4  -8  857.70  200.65
  -4   2  -8  822.68  166.16
   4  -2   8  900.86  173.41
   4  -2   8 1006.30  144.77
   4  -2   8  917.31  204.56
   4  -2   8  894.67  179.88
  -4   3  -8 1154.18  225.65
   3   4  -8 1108.78  232.93
  -4   3  -8  939.72  207.42
  -4   3  -8 1290.32  243.76
   4  -3   8 1412.28  210.44
   4  -3   8 1309.67  228.60
  -4   4  -8 1328.57  203.20
   4   4  -8  956.72  178.92
   4   4  -8 1007.70  155.57
   4   4  -8 1031.67  191.67
   5   4  -8   75.30   33.04
   5   4  -8  137.15   24.36
   5   4  -8   81.39   32.18
   5   4  -8   93.00   20.96
  -4   5  -8   68.60   25.49
  -5  -4   8  107.12   31.20
  -5  -4   8   96.83   28.18
   5   3  -8 2073.05  298.24
   5   3  -8 2059.88  333.32
   5   3  -8 1899.20  363.95
  -3   5  -8 2057.54  349.25
  -5  -3   8 2101.75  408.41
  -5  -3   8 2239.33  329.51
   5   2  -8  176.54   27.47
   5   2  -8  195.85   31.92
   5   2  -8  171.18   42.31
   5   2  -8  186.65   38.55
  -5  -2   8  151.41   38.82
  -5  -2   8  294.29   48.41
  -5  -2   8  204.78   39.19
   5   1  -8 2300.02  410.64
   5   1  -8 2082.83  402.93
  -5  -1  -8 2045.06  333.67
   5   1  -8 2259.08  330.66
  -5  -1   8 2285.31  461.16
   5   1   8 2133.61  378.14
   1  -5   8 2325.22  396.67
  -5   0  -8   -4.24   12.64
   5   0  -8   93.69   29.41
   0   5  -8   16.33   15.22
   0   5  -8  -15.98   19.89
   5   0  -8    8.35   18.58
   5   0  -8   -6.62   16.50
   5   0   8   20.24   33.00
  -5   0   8   -3.33   41.96
   0  -5   8  -13.02   17.58
   1   5  -8 2104.56  366.99
  -5   1  -8 1815.59  368.54
  -5   2  -8  157.60   34.40
  -5   2  -8  170.58   34.17
   2   5  -8  189.01   33.86
   2   5  -8  197.12   37.84
  -2  -5   8  109.64   35.10
   5  -2   8  135.79   33.99
   5  -2   8  204.15   40.80
   5  -3   8   -2.67  348.09
   5  -3   8 1765.85  387.06
   4   5  -8   97.07   32.12
   4   5  -8  108.57   23.75
  -5   4  -8  109.09   33.69
  -5   4  -8  110.33   26.25
   4   5  -8  109.97   32.01
   5  -4   8   74.38   42.02
  -4  -5   8  100.86   29.05
   6   5  -8  448.13   62.67
   6   5  -8  373.20   76.79
  -6  -5   8  437.98   69.51
   5  -6   8  400.51   64.56
   6   2  -8 1058.44  144.71
   6   2  -8 1246.03  194.45
   6   2  -8 1026.51  173.35
  -6  -2  -8  874.23  157.43
  -6  -2   8  838.88  202.32
  -6  -2   8 1035.54  161.87
   6   2   8 1122.95  172.81
  -6  -2   8 1139.51  204.61
   6   1  -8  210.85   60.35
   6   1  -8  313.98   47.17
   6   1  -8  185.75   43.26
  -6  -1  -8  311.36   52.07
   6   1   8  318.96   43.93
  -6  -1   8  192.46   70.24
   6   1   8  314.72   59.58
   6   0  -8  167.31   42.32
   0   6  -8  140.76   29.03
   6   0  -8  117.73   28.01
  -6   0  -8  137.13   37.49
  -6   0  -8  128.37   27.89
  -6   0   8   61.69   58.85
   0  -6   8  116.08   30.97
   6   0   8   69.51   23.60
   6   0   8  174.00   46.20
   1   6  -8  298.46   49.73
  -6   1  -8  295.73   55.94
   6  -1  -8  390.94   49.89
  -6   1  -8  235.85   46.19
   1   6  -8  316.50   52.29
  -1  -6   8  302.51   53.16
   6  -1   8  191.62   62.83
   6  -1   8  228.22   40.94
   6  -1   8  224.07   45.53
  -6   2  -8 1078.34  225.35
  -6   2  -8  816.67  169.95
   2   6  -8  996.29  167.13
  -6   2  -8  974.22  183.31
   6  -2   8 1038.12  219.46
   6  -2   8 1046.38  200.10
   6  -2   8  889.87  183.19
   5   6  -8  239.38   72.47
  -6   5  -8  420.15   84.68
   5   6  -8  386.46   83.95
  -6   5  -8  296.33   73.51
   5   6  -8  357.97   65.82
  -5  -6   8  364.50   70.35
   6  -5   8  364.45   79.53
   6  -5   8  220.84   65.10
   6   6  -8   12.71   22.41
   6   6  -8   11.51   33.83
  -6  -6   8    5.50   23.03
   6  -6   8    6.18   26.26
   7   6  -8    9.28   43.69
   7   6  -8   15.99   24.41
   7   6  -8   -6.20   36.56
  -7  -6   8  -11.54   30.77
   7   5  -8   49.11   21.76
   7   5  -8   44.26   18.62
   7   5  -8   -2.87   34.46
   7   5  -8   28.78   43.44
  -7  -5   8   40.78   36.21
  -7  -5   8   -5.17   27.91
   7   4  -8 1142.98  230.84
   7   4  -8 1166.75  190.73
  -7  -4   8 1040.93  279.45
   7   3  -8  428.72  119.58
   7   3  -8  513.79   98.70
   7   3  -8  499.20  110.36
  -7  -3   8  550.00  106.77
  -7  -3   8  536.00  132.68
  -7  -3   8  564.66  119.13
  -7   3  -8  549.61  119.96
  -7   3  -8  612.42  121.53
   3   7  -8  542.82  101.50
   7  -3   8  614.33   96.48
   7  -3   8  793.78  119.99
  -4  -7   8 1329.50  213.43
   7  -4   8 1012.07  218.74
  -7   5  -8    4.38   39.47
   5   7  -8   35.00   27.35
   5   7  -8   14.33   33.10
  -5  -7   8   42.37   30.74
   7  -5   8   42.49   28.81
   7  -5   8   80.39   51.85
   6   7  -8   65.81   28.66
   6   7  -8   15.28   34.65
   7  -6   8   72.93   29.36
  -6  -7   8   31.56   32.06
   7   7  -8  258.27   67.52
   7   7  -8  305.83   76.63
   7   7  -8  345.75   89.18
  -7  -7   8  481.40   72.85
   8   7  -8   63.63   41.93
   8   7  -8   45.37   55.22
   8   7  -8   12.99   29.07
  -8  -7   8   20.68   36.99
   8   6  -8  125.75   38.85
   8   6  -8  323.20   65.12
   8   6  -8   76.84   50.22
  -8  -6   8   87.84   43.86
   8   5  -8    5.65   21.70
   8   5  -8  -21.20   22.67
   8   5  -8  -15.15   37.21
   8   5  -8  -22.86   46.71
  -8  -5   8  -16.36   30.34
  -8  -5   8   15.52   42.85
   8   4  -8   30.10   21.25
   8   4  -8   -8.28   34.16
   8   4  -8   -2.44   17.26
   8   4  -8   -6.12   44.74
  -8  -4   8    2.74   43.82
  -8  -4   8   -2.57   28.49
  -8  -4   8   -8.59   41.97
   8   3  -8 1374.23  230.11
  -8  -3  -8 1000.12  190.47
   8   3  -8 1044.05  212.60
   8   3  -8  891.78  194.22
  -8  -3   8 1024.24  194.26
   8   3   8 1324.04  206.23
  -8  -3   8 1008.85  210.55
   8   2  -8   57.17   43.53
  -8  -2  -8  -17.80   44.63
   8   2  -8   46.73   31.56
   8   2  -8   31.29   22.08
   8   2  -8   25.78   18.96
  -8  -2   8   51.31   26.92
   8   2   8   16.20   23.59
  -8  -2   8   20.75   46.51
   8   2   8   23.32   50.25
  -8  -2   8   13.94   45.15
   8   1  -8  346.02   93.05
   8   1  -8  340.57   90.60
   8   1  -8  354.76   71.62
  -8  -1  -8  440.07   76.97
   8   1  -8  316.71   65.96
   8   1   8  492.29   62.14
  -8  -1   8  364.55  111.32
  -8  -1   8  446.92   94.43
   8   1   8  436.04   92.21
   8   0  -8  299.32   56.57
  -8   0  -8  332.77   68.74
   8   0  -8  397.80   79.35
   8   0  -8  248.02   57.50
   8   0  -8  340.08   75.97
  -8   0   8  345.62   76.48
   8   0   8  308.70   49.06
   8   0   8  236.38   78.60
  -8   0   8  222.25  104.48
   8  -1  -8  287.70   73.21
  -8   1  -8  253.46   82.44
   8  -1  -8  457.38   77.79
   8  -1   8  462.73   62.92
   8  -1   8  488.86   95.19
  -8   2  -8   -6.89   30.54
  -8   2  -8  -57.22   54.84
   8  -2   8   -8.58   23.32
   8  -2   8  -16.27   52.07
  -8   3  -8 1363.32  223.18
  -8   3  -8 1262.67  237.12
   8  -3   8 1345.46  225.93
   8  -3   8 1175.53  187.48
  -8   4  -8  -30.31   40.33
   8  -4   8  -27.07   27.08
   8  -4   8   39.08   55.42
  -8   5  -8   72.79   44.17
   8  -5   8   14.53   29.53
   8  -5   8   35.83   53.98
  -8   6  -8  133.77   56.07
   8  -6   8  301.66   39.95
   7   8  -8   20.97   42.04
   8  -7   8   16.34   33.17
   9   8  -8   63.99   52.57
  -9  -7   8  654.87  122.86
   9   5  -8   47.36   25.08
   9   5  -8    3.22   39.71
   9   5  -8   22.81   25.32
   9   5  -8   11.24   53.12
  -9  -5   8   13.60   49.79
  -9  -5   8    8.60   32.07
  -9  -5   8    9.89   50.97
   9   4  -8   76.85   28.62
   9   4  -8   46.26   53.95
   9   4  -8   58.86   42.56
   9   4  -8   99.91   28.22
  -9  -4   8   55.45   53.71
  -9  -4   8  125.34   37.37
  -9  -4   8  171.31   55.36
  -9  -3  -8   76.33   52.88
   9   3  -8   76.18   26.90
   9   3  -8   64.80   26.23
   9   3  -8   28.18   51.73
   9   3  -8  109.22   37.48
  -9  -3   8  147.74   54.99
   9   3   8   34.71   55.98
  -9  -3   8   77.87   33.38
   9   3   8   95.28   31.77
  -9  -3   8   82.70   35.86
  -9  -3   8   63.61   52.85
   9   2  -8    2.71   23.59
   9   2  -8    3.00   33.31
  -9  -2  -8  -42.27   49.31
   9   2  -8 -102.49   51.18
   9   2  -8   32.81   21.52
  -9  -2   8   13.67   54.28
   9   2   8  -53.46   59.22
  -9  -2   8  -15.51   52.27
  -9  -2   8  -46.17   33.28
   9   2   8   -3.50   26.64
   9   1  -8   18.11   25.39
   9   1  -8   91.07   42.88
  -9  -1  -8    3.81   49.30
   9   1  -8  -13.01   24.48
   9   1  -8   42.80   51.57
  -9  -1   8   11.52   60.84
   9   1   8    9.23   61.57
  -9  -1   8   41.00   35.69
  -9  -1   8   22.96   58.41
   9   1   8   67.73   27.80
   9   0  -8   36.28   49.70
   9   0  -8   -3.58   23.48
  -9   0  -8   50.56   52.02
   9   0  -8  -48.24   46.45
   9   0  -8   14.11   24.86
  -9   0   8  -76.11   72.18
   9   0   8  -40.71   62.92
   9   0   8  -18.54   25.53
  -9   0   8    4.15   35.55
   9  -1  -8  117.81   33.52
  -9   1  -8   56.60   57.13
   9  -1  -8    2.71   27.97
  -9   1   8    9.07   37.20
   9  -1   8    3.12   24.88
   9  -1   8  -37.01   65.80
  -9   2  -8   11.80   39.04
   9  -2  -8    4.83   38.49
  -9   2  -8   -4.34   64.08
   9  -2   8   46.55   67.20
   9  -2   8   -3.27   27.23
  -9   3  -8  122.90   45.81
  -9   3  -8   42.40   73.54
   9  -3   8  244.02   67.84
   9  -3   8   56.24   31.93
  -9   4  -8  136.33   51.86
   9  -4   8   74.67   33.98
   9  -4   8   84.07   67.08
  -9   5  -8    5.33   47.70
   9  -5   8  -19.90   61.16
   9  -5   8   16.22   33.83
   9  -7   8  556.71  109.16
  10   8  -8  467.44  106.52
  10   7  -8   61.01   56.99
  10   7  -8  221.65   43.97
 -10  -7   8   89.99   49.93
  10   6  -8   70.58   49.58
  10   6  -8   69.37   34.10
  10   6  -8  151.07   71.09
  10   6  -8  133.82   37.61
 -10  -6   8   15.92   71.64
 -10  -6   8  113.11   40.87
 -10  -6   8   81.49   64.83
  10   3  -8    8.12   57.44
  10   3  -8   -2.98   23.68
  10   3  -8   15.00   37.24
  10   3  -8  -11.27   24.09
 -10  -3  -8   51.04   56.24
 -10  -3   8   65.73   53.31
  10   3   8   16.47   29.70
  10   3   8   39.66   65.44
 -10  -3   8    3.45   35.38
 -10  -3   8  -23.70   31.19
 -10  -3   8   32.74   57.75
  10   2  -8   92.93   35.52
 -10  -2  -8  350.70   62.49
  10   2  -8   72.42   33.08
  10   2  -8  138.07   50.43
  10   2  -8   91.94   65.67
 -10  -2   8  192.40   50.03
 -10  -2   8  221.15   42.91
 -10  -2   8   57.89   70.02
  10   2   8  271.01   75.99
  10   2   8  296.68   40.37
 -10  -2   8  197.51   68.10
  10   1  -8   -6.74   25.08
  10   1  -8  -26.28   55.28
  10   1  -8    3.79   42.66
  10   1  -8   10.27   26.94
 -10  -1  -8  -56.00   59.23
 -10  -1   8  -47.91   68.21
  10   1   8   43.15   27.52
  10   1   8  111.93   74.84
 -10  -1   8   16.82   42.05
 -10  -1   8  -80.65   68.53
  10   0  -8  324.96   83.84
  10   0  -8  261.41   61.93
 -10   0  -8  309.41   82.04
  10   0  -8  360.86   60.76
  10   0  -8  314.97   85.87
  10   0   8  178.71   92.77
 -10   0   8  323.68  119.34
 -10   0   8  278.45   81.36
  10   0   8  311.89   52.82
  10  -1  -8    2.75   28.96
 -10   1  -8   27.61   64.39
  10  -1  -8  -48.11   55.86
  10  -1  -8    4.65   35.79
  10  -1   8    7.09   29.24
 -10   1   8  -25.27   46.25
  10  -1   8   36.34   73.80
 -10   2  -8  121.40   56.23
  10  -2  -8  215.74   52.37
 -10   2  -8  215.99   81.05
  10  -2   8   89.67   81.17
  10  -2   8  100.34   40.28
 -10   3  -8   58.40   82.25
 -10   3  -8   34.70   49.51
  10  -3   8  -31.49   34.48
  10  -3   8   16.20   74.06
 -10   6  -8   82.91   61.34
  10  -6   8  135.95   43.66
  10  -6   8  272.83   74.26
  10  -7   8  114.14   49.06
  11   8  -8  -32.06   57.02
  11   7  -8    7.46   40.46
  11   7  -8   67.73   55.79
 -11  -7   8  229.87   47.76
  11   6  -8   -3.87   55.53
  11   6  -8  104.11   40.15
  11   6  -8  189.75   82.63
  11   6  -8  144.08   40.90
 -11  -6   8  186.67   67.47
 -11  -6   8   87.74   45.02
 -11  -6   8  140.94   77.27
  11   5  -8   38.03   30.78
  11   5  -8   -4.87   74.87
  11   5  -8   39.17   31.69
  11   5  -8   17.58   48.15
 -11  -5   8    8.29   60.48
 -11  -5   8   53.57   35.15
 -11  -5   8   59.15   63.57
 -11  -4  -8   64.95   69.88
  11   4  -8  142.81   52.19
  11   4  -8  156.18   38.38
  11   4  -8  241.77   77.19
  11   4  -8  114.27   36.94
 -11  -4   8  114.25   43.42
 -11  -4   8   89.16   68.43
  11   4   8   -5.51   78.88
 -11  -4   8  247.29   71.73
 -11  -4   8  108.10   53.20
  11   3  -8   65.62   26.62
 -11  -3   8  118.89   59.80
  11   3   8  116.25   38.75
 -11  -3   8  102.07   65.37
  11   3   8   56.58   86.57
 -11  -3   8  115.80   37.56
 -11  -3   8  115.51   45.60
 -11   3  -8  105.65   58.57
  11  -3   8   13.18   40.75
  11  -3   8  181.99   85.56
 -11   4  -8   49.84   96.95
 -11   4  -8  200.78   69.76
  11  -4   8   92.76   89.38
  11  -4   8  262.70   46.94
 -11   5  -8   26.23   61.47
  11  -5   8   73.99   81.53
  11  -5   8   -4.90   38.33
 -11   6  -8   49.16   69.61
  11  -6   8  178.58   83.28
  11  -6   8  377.13   52.26
  11  -7   8  108.36   48.34
  12   8  -8    4.77   64.35
  12   6  -8   13.55   34.25
  12   6  -8   -4.00   49.38
 -12  -6   8   21.89   43.15
 -12  -6   8   25.86   75.15
 -12  -6   8   24.99   69.85
  12   5  -8   12.52   32.30
  12   5  -8   43.88   82.78
 -12  -5   8    3.26   34.21
 -12  -5   8  -43.34   67.85
 -12  -5   8   27.14   70.96
  12   4  -8   69.14   35.37
  12   4  -8   89.46   77.16
 -12  -4   8    4.55   50.48
 -12  -4   8  195.82   67.58
 -12  -4   8   33.25   36.40
 -12  -4   8   26.80   72.73
  12   3  -8   -5.25   72.61
  12   3  -8   18.66   29.78
 -12  -3  -8  -16.70   73.96
  12   3   8  -93.22   36.20
 -12  -3   8    9.27   51.36
 -12  -3   8  149.64   72.61
 -12  -2  -8  670.37  121.22
  12   2  -8  436.64  100.07
  12   2  -8  595.01  149.95
 -12  -2   8  779.72  130.80
  12   2   8  758.69   97.34
  12   2   8  857.95  144.32
 -12  -2   8  485.10  145.63
  12   1  -8   17.16   36.79
 -12  -1  -8  -27.24   79.44
  12   1  -8    5.40   72.67
  12   1   8  -35.29   34.21
  12   1   8  -56.52   89.76
 -12  -1   8  -10.93   86.54
 -12  -1   8   58.06   54.90
 -12   0  -8 1246.59  261.85
  12   0  -8 1701.15  244.24
  12   0  -8 1374.66  299.48
  12   0   8 1550.11  219.31
  12   0   8 1582.28  302.00
 -12   0   8 1343.84  332.75
 -12   0   8 1161.06  291.02
  12  -1  -8   16.74   44.13
 -12   1  -8   11.14   58.71
  12  -1  -8   40.60   77.29
 -12   1  -8  -52.54   89.68
  12  -1   8   13.45   39.60
 -12   1   8   12.30   54.98
  12  -1   8   19.31   89.98
 -12   2  -8  646.84  147.90
  12  -2  -8  389.11  126.55
 -12   2  -8  636.83  142.37
  12  -2   8  874.36  161.86
  12  -2   8  732.47  107.77
 -12   3  -8  196.08  104.02
 -12   3  -8  -99.41   61.37
  12  -3   8    6.74   98.43
  12  -3   8   62.98   41.57
 -12   4  -8 -116.96  110.43
  12  -4   8   -6.83   74.32
  12  -4   8   46.26   44.01
 -12   5  -8   14.33  109.39
  12  -5   8  100.28   44.84
  13   4  -8   16.93   35.72
  13   4  -8   47.63   83.74
 -13  -4  -8  109.64   81.70
  13   4   8   50.52   43.56
 -13  -4   8   88.20   76.04
 -13  -3  -8  104.42   79.00
  13   3  -8  123.09   86.39
  13   3  -8   54.53   37.79
 -13  -3   8  -21.20   58.50
  13   3   8  185.68   43.69
 -13  -3   8  110.68   80.17
  13   3   8  -83.29   95.56
  13   2  -8   11.94   88.40
  13   2  -8  -57.32   37.83
 -13  -2   8  282.86   93.47
  13   2   8    6.90  102.02
 -13  -2   8  -33.41   54.64
  13   1  -8  501.36   71.49
  13   1  -8  250.52  106.06
 -13  -1   8  638.65  114.07
  13   1   8  252.11  129.58
 -13  -1   8  489.11  102.58
  13   0  -8 -115.34   76.04
  13   0  -8   21.18   45.45
 -13   0   8  -13.73  108.85
 -13   0   8  -25.13   61.63
  13  -1  -8  217.43   80.67
  13  -1  -8  462.51  112.61
 -13   1   8  208.73  101.83
  13  -2  -8  -20.31   53.72
 -13   2   8   -7.12   44.74
  13  -2   8   -7.36  114.46
 -13   3  -8   84.93   72.58
  13  -3   8   60.17  107.70
 -13   4  -8   82.76   73.31
  13  -4   8   -5.59   30.93
  13  -4   8  -75.37   99.95
  13  -7   8 -102.86   54.52
 -14  -5   8   31.90   81.32
  14   4  -8    4.65   37.91
 -14  -4  -8  -70.84   90.48
  14   4   8   30.74   46.22
 -14  -4   8 -182.30   88.62
 -14   4  -8  -91.92   92.30
 -14   4  -8   91.15  133.75
  14  -4   8 -132.59  120.86
  14  -4   8 -140.04   52.76
 -14   5  -8    8.65  142.40
 -14   5  -8    8.83   89.09
  14  -5   8   44.77   57.29
  14  -5   8  258.17  118.12
 -14   6  -8  -37.29   85.46
 -14   6  -8   71.46  146.62
  14  -6   8  280.46  111.47
  14  -6   8  176.53   59.88
  14  -7   8   -6.90   56.54
 -15  -4  -8  -38.97  104.14
  15   4  -8 -119.53  103.57
  15   4  -8   20.37   42.97
 -15  -4   8    5.85   90.18
 -15  -4   8   34.17   77.21
  15   4   8   94.63   53.91
 -15  -3  -8   66.17  100.44
  15   3  -8  124.46  105.55
  15   3  -8    5.14   44.16
 -15  -3   8   48.99   97.84
 -15  -3   8    6.87   72.04
  15   3   8  -77.93   50.10
  15   2  -8  -42.71   47.30
 -15  -2  -8  -80.65   97.02
  15   2  -8 -161.94  100.56
 -15  -2   8   28.54   76.50
 -15  -2   8 -333.29  101.50
  15   2   8 -127.20  129.31
  15   2   8  -25.36   52.19
  15   1  -8    5.80   49.01
 -15  -1  -8   -7.53  110.68
  15   1  -8  123.02   95.10
  15   1   8   24.93   49.62
  15   1   8 -179.98  123.92
 -15  -1   8   36.39  121.22
 -15  -1   8    7.40   73.13
  15   0  -8    6.40   54.11
 -15   0  -8  -54.24   82.00
 -15   0  -8  132.15  112.63
  15   0  -8  -65.64   95.42
  15   0   8   42.76   55.36
  15   0   8  -86.04  126.53
 -15   0   8  122.11   74.22
 -15   0   8   33.33  140.23
 -15   1  -8  156.90   87.94
  15  -1  -8   -7.54   97.42
  15  -1  -8   14.16   60.17
 -15   1  -8 -136.84  121.79
  15  -1   8   -6.22   58.99
 -15   1   8  225.85  150.39
 -15   1   8  -32.23   69.73
  15  -1   8    8.82  130.80
 -15   2  -8   58.66   84.43
 -15   2  -8    8.31  131.62
  15  -2  -8   -7.96   63.84
 -15   2   8   67.29   79.99
  15  -2   8  -82.51   56.76
  15  -2   8  -71.62  132.24
 -15   3  -8   52.49   96.34
 -15   3  -8  -43.28  135.26
  15  -3   8  -27.62  137.93
  15  -3   8  -26.08   54.36
 -15   4  -8   18.14  139.15
 -15   4  -8   28.11   90.01
  15  -4   8 -173.20  127.27
  15  -4   8  146.74   59.69
 -15   5  -8  -87.52   86.30
 -15   5  -8  -47.30  146.89
  15  -5   8   45.74  121.81
  15  -5   8  103.62   61.48
 -16  -5  -8   26.72  109.35
  16   5   8  -36.68  129.19
  16   1  -8    6.40   56.01
 -16  -1  -8  -43.61   88.51
  16   1  -8  -31.77  110.07
 -16  -1  -8   25.11  127.34
  16   1   8  262.85  142.50
  16   1   8   13.86   62.80
 -16  -1   8    8.20   83.67
 -16  -1   8  127.07  132.99
  16   0  -8    8.00  111.47
 -16   0  -8    8.60  128.69
  16   0  -8  -27.94   59.33
 -16   0  -8  -17.39  102.49
  16   0   8   57.29  134.33
  16   0   8  -33.88   56.86
 -16   0   8    8.40   79.09
 -16   0   8   99.82  151.59
 -16   1  -8   71.37  139.22
 -16   1  -8   26.88   93.41
  16  -1  -8   -7.84   64.34
  16  -1  -8  -90.50  106.42
 -16   1   8 -174.94  173.33
 -16   1   8  -70.53   83.67
  16  -1   8   34.56   59.47
  16  -1   8  -48.70  137.60
 -16   5  -8  -61.69  156.18
 -16   5  -8 -107.05  102.12
  16  -5   8  -10.06  137.05
  16  -5   8  -44.93   63.06
 -16   6  -8   44.99   93.82
 -16   6  -8  -42.61  173.86
  16  -6   8   23.32   65.70
  16  -6   8   20.56  132.19
 -16   7  -8   22.03  182.87
  16  -7   8 -271.49   76.38
 -17  -5  -8   29.42  127.20
  17   5   8  110.26  142.88
 -17  -4  -8 -133.15  134.73
  17   4   8    8.23   59.17
  17   4   8 -121.37  155.55
  17   3  -8   -6.22   50.60
  17   3  -8   45.75  127.64
 -17  -3  -8  -18.49  128.89
 -17  -3   8   14.67  119.54
 -17  -3   8   -8.86   86.07
  17   3   8    7.96   66.34
  17   2  -8   -6.47   51.93
 -17  -2  -8 -297.79  110.21
  17   2  -8 -115.08  117.82
 -17  -2  -8  198.14  131.22
 -17  -2   8  224.64   96.70
 -17  -2   8  110.86  136.30
  17   2   8   -7.81   65.59
 -17  -1  -8    9.70  101.48
 -17  -1  -8 -148.16  138.81
  17   1  -8    7.07   59.85
  17   1  -8   17.44  116.58
 -17  -1   8 -252.72  151.00
  17   1   8   46.33   63.09
 -17  -1   8  109.25   85.89
  17   1   8   51.65  154.36
  17   0  -8    7.67   64.18
  17   0  -8   70.36  121.74
 -17   0  -8   57.20  146.28
 -17   0  -8   77.74  105.02
 -17   0   8 -131.40   92.59
 -17   0   8 -365.52  174.48
  17   0   8  -22.85   65.95
  17   0   8   10.57  158.54
 -17   1  -8  -10.06   95.53
 -17   1  -8  -39.31  148.40
  17  -1  -8   89.91  122.12
  17  -1  -8   -8.46   71.13
 -17   1   8 -259.44  191.95
 -17   1   8    9.65   92.57
  17  -1   8   31.97  161.87
  17  -1   8   69.24   63.21
 -17   2  -8   74.00  108.75
 -17   2  -8   80.98  155.74
  17  -2   8   61.19   63.48
  17  -2   8  164.05  162.34
 -17   3  -8 -321.14  169.34
 -17   3  -8 -110.04  115.77
  17  -3   8  187.67  163.58
  17  -3   8  -62.77   69.12
 -17   4  -8  -53.83  176.89
 -17   4  -8  114.22  105.87
  17  -4   8   16.06   66.59
  17  -4   8 -196.83  151.58
 -17   5  -8   56.06  179.94
 -17   5  -8  -95.46  124.77
  17  -5   8   22.15  146.43
  17  -5   8  -49.08   71.21
 -17   6  -8  -46.61  181.24
 -17   6  -8  111.04  128.34
  17  -6   8  143.51   73.62
  17  -6   8   90.49  152.10
  18   2  -8   14.42   55.84
  18   2  -8  -29.17  134.52
 -18  -2  -8  -69.79  146.81
  18   2   8   -8.67   75.36
 -18  -2   8  -34.94  137.74
 -18  -2   8  -61.17   99.52
 -18  -1  -8  153.73  158.23
 -18  -1  -8   87.05  111.22
  18   1  -8  -23.10   71.90
  18   1  -8  134.23  123.71
 -18  -1   8  220.88  159.78
  18   1   8    8.59   72.12
  18   1   8   34.37  172.23
 -18  -1   8  -40.90   93.74
 -18   0  -8  -63.33  157.88
 -18   0  -8  -77.74  119.96
  18   0  -8   -9.66  131.10
  18   0  -8 -219.60   71.87
  18   0   8   -8.45   71.50
 -18   0   8   10.82  175.78
 -18   0   8  104.05   97.14
  18   0   8 -104.90  182.21
 -18   1  -8   11.45  119.56
  18  -1  -8   -9.19   78.54
  18  -1  -8   -9.85  124.94
 -18   1   8  183.75  210.66
 -18   1   8   10.59  102.85
  18  -1   8   -8.45   64.59
  18  -1   8  176.75  175.41
 -18   2  -8  -11.14  170.54
 -18   2  -8   94.21  115.58
  18  -2  -8 -111.03   84.40
  18  -2   8  -42.64   75.51
 -18   2   8 -356.34  233.35
  18  -2   8   24.19  170.58
 -18   6  -8 -244.03  126.35
 -18   6  -8  -50.58  210.08
  18  -6   8   36.62   79.41
  18  -6   8 -398.05  159.94
 -18   7  -8  275.85  213.37
 -19  -5  -8  251.20  160.61
 -19  -4  -8  257.03  165.69
  19   4   8   10.11   82.46
  19   4   8 -282.78  190.75
 -19  -3  -8 -514.35  165.54
  19   3   8 -123.16  191.72
  19   3   8   -9.98   84.81
  19   2  -8    7.98   65.88
 -19  -2  -8   89.00  160.19
  19   2  -8  160.15  159.65
  19   2   8   48.21   77.95
 -19  -2   8   -9.63  159.45
 -19  -2   8   68.18  108.95
  19   1  -8   84.40  148.10
 -19  -1  -8  147.46  180.13
  19   1  -8   -8.50   70.22
 -19  -1  -8   12.21  137.70
  19   1   8  418.38  190.25
  19   1   8   -9.55   83.59
 -19  -1   8  -91.00  104.85
 -19  -1   8  508.08  185.88
  19   0  -8   63.62  128.26
 -19   0  -8   23.37  182.08
 -19   0  -8   12.52  132.42
  19   0  -8    9.32   80.95
  19   0   8    9.36   78.43
 -19   0   8  176.24  194.13
 -19   0   8   11.56  116.90
  19   0   8   50.98  188.63
  19  -1  -8  -10.07   87.51
  19  -1  -8  -54.02  140.55
 -19   1  -8  -23.95  187.98
 -19   1  -8  -12.76  119.48
  19  -1   8    9.32   79.81
  19  -1   8 -428.24  191.13
 -19   1   8 -106.32  228.63
 -19   1   8   11.65  110.21
 -19   2  -8   40.07  144.54
  19  -2  -8  -10.97   94.65
 -19   2  -8   61.58  178.19
  19  -2   8    9.45   76.18
 -19   2   8   89.89  258.90
  19  -2   8 -674.75  204.18
 -19   3  -8   55.26  149.33
 -19   3  -8 -201.12  197.94
  19  -3   8   -9.44   78.82
  19  -3   8  340.32  197.86
 -19   4  -8   38.49  200.85
 -19   4  -8   14.12  142.74
  19  -4   8   -9.62   89.34
  19  -4   8  223.39  184.89
 -19   5  -8 -106.26  216.30
 -19   5  -8  -72.95  130.95
  19  -5   8   19.66   83.97
  19  -5   8  280.56  174.27
 -19   6  -8  109.67  228.16
  19  -6   8   60.17   86.06
 -20  -2   8  -12.82  126.12
  20   1  -8    9.30   77.34
  20   1  -8 -116.49  159.76
 -20  -1   8 -326.06  190.93
 -20  -1   8 -102.42  136.83
  20   0  -8   10.15   85.54
  20   0  -8 -151.80  154.28
 -20   0   8   12.92  211.24
 -20   0   8   12.88  121.72
  20  -1  -8  -11.06   90.43
 -20   1   8  116.14  248.85
 -20   1   8  -90.53  116.67
  20  -2  -8   11.91  104.41
 -20   2   8 -113.68  260.72
   0   0  -9    5.91   14.86
   0   0  -9    6.37   18.11
   0   0   9   -2.62   30.21
   1   0  -9 2314.68  334.27
  -1   0   9 2511.75  424.73
   1   0   9 2362.83  398.25
   0  -1   9 2474.01  419.41
  -1   1  -9  -10.70   17.48
   1   1  -9   26.68   20.41
  -1   1  -9   -5.68   10.61
   1  -1   9   -5.84   26.12
   1  -1   9  -11.16   13.75
  -1  -1   9    8.62   27.24
  -1   2  -9   27.77   11.04
  -1   2  -9   13.86   11.47
  -1   2  -9    3.00   17.38
   1  -2   9   16.42   14.52
   1  -2   9   19.19   21.50
   1  -2   9   21.52    8.28
  -2   0  -9   -3.54   12.77
   0   2  -9    3.24   17.36
   0   2  -9   44.35   11.29
   0  -2   9  -15.94   22.19
   2   0   9  -21.09   15.96
  -2   1  -9   16.69   14.61
  -2   1  -9   24.47   12.24
  -2   1  -9    8.28   18.24
   2  -1   9   39.24   26.57
   2  -1   9   38.31   18.47
   2  -1   9   18.88   10.35
  -2   2  -9   -2.12   16.89
  -2   2  -9    0.99    9.88
  -2   2  -9   -4.18   16.89
   2  -2   9   -4.47    8.73
   2  -2   9   -7.29   19.21
   2  -2   9  -16.41   21.20
   3   2  -9  343.57   48.68
   3   2  -9  326.93   56.40
  -2   3  -9  334.62   60.48
  -2   3  -9  208.62   59.28
  -2   3  -9  360.52   67.07
   3   2  -9  292.33   61.18
  -2   3  -9  218.11   54.73
   2  -3   9  294.35   63.20
  -3  -2   9  295.93   56.66
   2  -3   9  304.64   50.52
  -3  -2   9  343.57   73.27
   2  -3   9  332.23   71.37
   2  -3   9  297.66   57.63
  -1   3  -9  124.33   29.43
  -1   3  -9  198.97   26.29
  -1   3  -9  140.04   34.85
  -1   3  -9  134.68   31.25
   3   1  -9  126.01   30.21
   1  -3   9  160.51   28.60
   1  -3   9  128.39   23.40
   1  -3   9  169.59   38.25
   1  -3   9  139.84   33.29
  -3   0  -9   45.73   17.88
   3   0  -9   25.90   20.43
   3   0   9   48.21   23.34
  -3   1  -9  145.14   31.75
  -3   1  -9  102.84   31.37
  -3   1  -9  135.36   31.00
   3  -1   9  173.62   37.23
   3  -1   9   97.06   26.81
   3  -1   9  155.05   42.55
  -3   2  -9  278.80   60.97
   2   3  -9  395.60   59.91
  -3   2  -9  301.14   55.09
   2   3  -9  243.17   54.47
  -3   2  -9  329.11   57.33
   3  -2   9  285.73   70.70
   3  -2   9  248.47   63.37
   3  -2   9  329.28   49.11
  -2  -3   9  212.09   71.60
   3   3  -9   -1.56   13.98
   3   3  -9   21.84   21.38
   3   3  -9   -5.25    5.73
  -3   3  -9  -11.24   25.63
  -3   3  -9    4.90   15.30
  -3   3  -9   18.11   16.19
   3   3  -9    4.15   14.31
  -3   3  -9   -6.99   10.08
  -3  -3   9   22.49   27.96
  -3  -3   9   -7.07    9.45
  -3  -3   9  -22.83   12.12
   3  -3   9   24.67   26.01
   3  -3   9   14.57   13.25
   3  -3   9   43.29   18.84
   3  -3   9    6.06   11.55
  -3   4  -9  565.19  118.93
   4   3  -9  726.30  103.74
   4   3  -9  674.61  100.64
   4   3  -9  625.61  126.63
  -3   4  -9  401.70  136.25
   4   3  -9  704.56  112.05
  -3   4  -9  543.19  126.24
   3  -4   9  609.36  121.50
  -4  -3   9  803.91  112.02
   3  -4   9  569.89  121.27
   3  -4   9  617.39  106.87
  -4  -3   9  712.47  135.15
   4   2  -9    0.97    8.82
   4   2  -9   30.62   26.02
   4   2  -9   -1.37   18.76
  -2   4  -9   10.47   16.95
   4   2  -9   -8.86   17.22
   2  -4   9   19.96   10.99
  -4  -2   9   14.83   23.63
  -4  -2   9    9.76   14.66
  -4  -2   9   17.34   32.90
   4   1  -9  390.21   65.86
   4   1  -9  389.16   79.17
   4   1  -9  398.53   63.39
  -4  -1   9  291.45   93.20
   1  -4   9  442.66   66.09
   4   0  -9   28.80   30.42
  -4   0  -9    1.47   13.54
   0   4  -9    1.39   12.70
   4   0  -9    2.23   16.77
  -4   0  -9   15.83   24.24
   4   0   9    1.95   14.86
  -4   0   9   23.79   43.32
   0  -4   9   -1.65   16.34
   1   4  -9  407.48   72.24
  -4   1  -9  323.02   67.26
   1   4  -9  233.47   63.42
  -4   1  -9  405.76   68.13
   4  -1   9  406.68   79.64
   4  -1   9  260.47   58.94
   4  -1   9  349.81   86.50
  -1  -4   9  385.13   68.77
   2   4  -9   -7.93   19.60
  -4   2  -9    9.05   26.80
   2   4  -9   -4.70   14.66
  -4   2  -9   20.98   16.37
  -4   2  -9   -2.87    8.39
   4  -2   9    6.11   21.98
  -2  -4   9  -16.56   18.30
   4  -2   9   -5.69   12.51
   4  -2   9   11.66   10.35
   4  -2   9   40.33   32.04
  -4   3  -9  521.09  123.50
  -4   3  -9  720.60  120.17
   3   4  -9  679.92  121.80
  -4   3  -9  595.43  112.08
  -4   3  -9  597.33  115.95
   3   4  -9  662.81  115.71
   4  -3   9  594.74  116.49
   4  -3   9  490.30  133.30
  -4   4  -9    6.39   16.96
   4   4  -9   -8.43   20.55
  -4   4  -9    9.06   14.17
  -4   4  -9   90.27   22.39
   4   4  -9   -7.19   16.53
   4   4  -9   27.17   25.77
   4  -4   9    2.89   15.69
  -4  -4   9  -10.54   20.64
   4  -4   9   11.08   15.95
   5   3  -9  787.34  188.55
   5   3  -9  964.36  211.17
  -5  -3   9 1028.38  184.96
  -5  -3   9 1075.23  214.62
   5   2  -9  914.58  153.49
  -2   5  -9 1004.39  172.40
   5   2  -9  706.20  176.59
  -5  -2   9  885.73  191.20
  -5  -2   9  716.87  142.23
  -5  -2   9  956.78  180.06
   5   1  -9  553.53   87.43
   5   1  -9  630.09  106.92
   5   1  -9  485.85   84.51
  -5  -1  -9  400.02   90.59
  -1   5  -9  495.60   98.82
  -5  -1   9  475.41  125.23
   1  -5   9  564.32   98.35
   5   1   9  364.23  100.53
   5   1   9  487.51   88.70
  -5  -1   9  489.55  114.46
  -5   0  -9  866.35  111.47
   0   5  -9  859.95  120.66
   5   0  -9  930.58  138.12
   5   0   9  809.88  132.02
  -5   0   9  426.11  172.24
   0  -5   9  909.54  123.53
   1   5  -9  648.06   97.31
   1   5  -9  439.16   89.04
   5  -1   9  475.49  105.65
  -1  -5   9  468.28   94.82
  -5   2  -9  809.02  154.95
   5  -2   9  877.60  154.62
  -2  -5   9  960.98  150.37
   5  -2   9  982.42  190.30
   3   5  -9 1409.79  194.86
  -5   3  -9 1429.42  207.88
  -5   3  -9 1127.87  238.09
   5  -3   9 1368.13  196.16
   5  -3   9 1061.70  216.38
   5  -3   9 1069.98  224.09
   5   5  -9  -27.40   28.71
  -5   5  -9  -12.89   18.86
   5   5  -9    2.65   31.28
  -5   5  -9   10.51   28.67
   5   5  -9  -16.61   20.31
   5  -5   9  -46.80   22.59
  -5  -5   9    2.44   22.72
   6   5  -9   67.98   38.13
   6   5  -9   37.32   23.43
  -6  -5   9   51.67   30.63
   5  -6   9   72.69   25.62
   6   4  -9 1404.46  266.10
   6   4  -9 1498.81  229.37
  -6  -4   9 1073.79  243.66
  -6  -4   9 1354.50  244.97
   6   1  -9  595.28   86.85
  -6  -1  -9  545.26   88.26
   6   1  -9  584.91  106.90
   6   1  -9  646.25   82.03
  -1   6  -9  445.06   91.65
   6   1   9  567.70   81.28
   6   1   9  525.83   98.44
  -6  -1   9  627.89  126.07
   0   6  -9   -6.77   17.00
   6   0  -9   -3.39   36.48
  -6   0  -9  -12.61   13.71
   6   0  -9    4.68   21.60
   0   6  -9   -2.06   21.56
  -6   0  -9   -5.17   31.44
  -6   0   9  -16.01   53.28
   6   0   9  -37.39   40.05
   6   0   9   -2.26   18.02
   0  -6   9   16.13   22.67
  -6   1  -9  382.97   89.40
   6  -1  -9  591.85   87.40
   1   6  -9  590.66   93.96
   1   6  -9  530.63   92.59
  -6   1  -9  558.14   90.48
   6  -1   9  516.86   75.25
   6  -1   9  545.16  104.51
  -1  -6   9  561.80   95.66
   4   6  -9 1464.04  250.43
   4   6  -9 1497.79  231.62
   4   6  -9 1285.91  299.30
   6  -4   9 1433.52  251.38
  -4  -6   9 1205.57  242.20
   5   6  -9   51.99   23.89
   5   6  -9  110.38   36.64
  -6   5  -9   77.85   36.90
   5   6  -9  163.29   37.70
  -6   5  -9   70.36   24.88
   6  -5   9   74.61   45.11
   6  -5   9   65.55   26.95
  -5  -6   9  102.01   31.66
   6   6  -9  -33.39   35.04
   6   6  -9    5.18   22.97
   6  -6   9    6.10   27.05
  -6  -6   9  -19.75   29.52
   7   6  -9  -10.88   26.71
   7   6  -9  -22.98   37.55
   7   6  -9   20.87   43.61
  -7  -6   9   -2.97   32.04
   7   5  -9  318.55   70.97
   7   5  -9  364.12   68.87
   7   5  -9  441.91   89.77
   7   5  -9  355.92   85.86
  -7  -5   9  455.06   78.00
   7   4  -9   -2.16   22.13
   7   4  -9  -19.96   36.87
   7   4  -9   16.69   33.69
  -7  -4   9    5.44   43.98
  -7  -4   9    5.08   27.64
   7   3  -9 3154.14  728.40
   7   3  -9 4307.18  674.79
   7   3  -9 4209.90  802.14
  -7  -3   9 3770.29  873.85
   7   2  -9    5.62   39.42
   7   2  -9   59.73   22.54
   7   2  -9   81.03   34.77
  -7  -2  -9   40.83   42.39
  -7  -2   9   56.42   29.81
  -7  -2   9   73.20   46.02
   7   2   9   63.23   23.40
   7   2   9   14.24   45.20
   7   1  -9 1291.43  204.87
  -7  -1  -9 1437.57  194.10
   7   1  -9 1083.34  251.59
   7   1  -9 1071.43  250.90
   7   1   9 1121.10  231.48
  -7  -1   9 1005.03  295.79
   7  -1  -9 1314.51  204.13
   1   7  -9 1108.00  205.03
   7  -1   9  875.33  237.87
   2   7  -9   38.41   25.86
  -7   2  -9   39.82   31.22
   2   7  -9   47.00   28.04
  -7   2  -9   83.63   47.48
   7  -2   9   81.13   24.25
  -2  -7   9   72.50   31.38
   7  -2   9  101.88   52.22
  -7   3  -9 4330.59  802.44
  -7   3  -9 3713.36  740.16
   7  -3   9 3730.28  752.71
   4   7  -9  -14.02   26.49
   4   7  -9   -2.80   30.56
  -7   4  -9    7.60   37.45
   7  -4   9  -17.67   25.98
   7  -4   9   -3.85   49.60
  -4  -7   9  -11.91   29.05
  -7   5  -9  465.71   91.07
   5   7  -9  414.16   74.74
   5   7  -9  317.74   79.12
  -5  -7   9  384.49   79.39
   7  -5   9  438.37   72.55
   7  -5   9  345.06   85.34
   6   7  -9   28.78   36.24
   6   7  -9    3.01   27.73
   7  -6   9   -6.87   28.37
  -6  -7   9  -54.52   31.46
   7   7  -9   17.28   44.97
   7   7  -9  -28.01   28.18
   7  -7   9   10.94   30.63
  -7  -7   9  -73.74   37.97
   8   6  -9  108.71   50.73
   8   6  -9   94.29   35.00
  -8  -6   9  164.89   40.10
   8   5  -9   -2.77   20.71
   8   5  -9    6.16   45.03
   8   5  -9   22.19   23.52
   8   5  -9  -12.90   41.08
  -8  -5   9    6.07   44.17
  -8  -5   9   19.52   49.43
  -8  -5   9    8.61   30.53
   8   4  -9   55.02   21.80
   8   4  -9  121.32   47.37
   8   4  -9   59.21   25.12
   8   4  -9   50.74   39.22
  -8  -4   9   40.19   31.21
  -8  -4   9   44.94   45.99
  -8  -4   9   64.96   48.38
  -8  -4   9   22.42   30.45
   8   3  -9   44.48   22.90
   8   3  -9   56.09   19.79
   8   3  -9   22.79   33.05
   8   3  -9   24.21   42.43
  -8  -3   9   71.11   44.75
  -8  -3   9   45.94   26.76
  -8  -3   9   35.24   28.55
  -8  -3   9   -2.91   50.06
   8   2  -9  689.37  104.92
   8   2  -9  736.42  149.66
   8   2  -9  587.77  136.52
  -8  -2  -9  677.38  117.87
   8   2  -9  617.71  119.01
  -8  -2   9  680.32  152.67
  -8  -2   9  276.79  121.45
  -8  -2   9  638.24  157.97
   8   2   9  722.57  106.21
   8   2   9  493.73  132.39
   8   1  -9  402.48   62.02
   8   1  -9  398.52   86.65
  -8  -1  -9  241.79   72.52
   8   1  -9  476.41   87.86
   8   1  -9  332.84   67.02
  -8  -1   9  213.47  109.24
   8   1   9  369.50   59.10
   8   1   9  306.34   89.96
  -8  -1   9  359.88   90.37
   8   0  -9  -42.62   26.71
   8   0  -9    3.98   42.20
   8   0  -9   28.95   41.59
  -8   0  -9   -6.84   44.46
   8   0  -9    2.49   24.54
  -8   0   9   18.84   63.86
   8   0   9  -20.66   57.49
   8   0   9   -2.79   22.05
  -8   0   9   -3.80   33.09
   8  -1  -9  242.19   68.43
  -8   1  -9  449.15   80.09
   8  -1  -9  392.42   73.74
   8  -1   9  361.07   93.01
   8  -1   9  430.42   58.73
  -8   2  -9  766.34  142.14
  -8   2  -9  589.59  131.49
   8  -2   9  636.38  145.03
   8  -2   9  794.40  108.12
  -8   3  -9  -11.38   37.53
  -8   3  -9  -32.81   60.56
   8  -3   9   64.15   25.63
   8  -3   9   64.07   55.60
  -8   4  -9    4.40   68.20
  -8   4  -9  129.42   43.09
   8  -4   9   57.32   60.78
   8  -4   9  115.00   31.69
  -8   5  -9   23.85   41.42
   5   8  -9    9.54   38.13
   8  -5   9  -14.45   30.22
   8  -5   9  -13.28   53.55
  -5  -8   9   17.55   33.73
   6   8  -9   98.06   47.71
  -8   6  -9  110.45   52.33
   8  -6   9  181.16   40.29
  -6  -8   9  134.40   43.19
   8   8  -9   -3.88   46.61
  -8  -8   9  -55.10   44.74
   9   8  -9  213.65   99.37
  -9  -8   9  573.69   90.98
   9   7  -9   -4.01   54.11
   9   7  -9   51.34   37.53
  -9  -7   9   54.92   39.04
   9   5  -9  121.67   52.37
   9   5  -9  183.26   37.43
   9   5  -9  118.45   63.33
   9   5  -9  124.31   36.95
  -9  -5   9  189.61   60.04
  -9  -5   9  141.26   44.94
  -9  -5   9  228.82   70.06
   9   4  -9  199.40   63.47
   9   4  -9  235.49   50.35
   9   4  -9  250.24   46.87
   9   4  -9  192.31   71.38
  -9  -4   9  238.89   82.58
  -9  -4   9  159.49   65.98
  -9  -4   9  288.07   58.83
  -9  -4   9  278.64   64.20
   9   3  -9   -7.76   21.97
   9   3  -9   24.38   24.23
   9   3  -9   -6.10   35.14
   9   3  -9   28.14   50.20
  -9  -3  -9   -4.40   52.80
  -9  -3   9   44.14   48.35
  -9  -3   9  -21.98   50.80
  -9  -3   9   33.51   31.01
  -9  -3   9    8.04   29.44
   9   3   9   13.27   59.40
   9   2  -9   29.66   41.86
   9   2  -9   70.94   52.75
   9   2  -9   29.20   24.89
  -9  -2  -9   36.49   50.26
   9   2  -9   24.17   23.39
  -9  -2   9   81.48   57.03
   9   2   9   58.39   27.66
  -9  -2   9   75.36   37.33
  -9  -2   9   -6.75   55.56
   9   2   9   27.26   59.01
   9   1  -9   30.79   48.61
  -9  -1  -9   84.39   51.69
   9   1  -9    3.77   43.65
   9   1  -9   12.12   24.69
   9   1  -9    4.77   21.81
  -9  -1   9  -25.18   69.93
   9   1   9   40.45   26.51
  -9  -1   9   23.29   34.59
   9   1   9   33.07   65.31
   9   0  -9   46.48   29.65
   9   0  -9  -16.34   49.06
   9   0  -9   21.58   46.53
  -9   0  -9   19.46   51.40
   9   0  -9    3.64   28.91
   9   0   9   36.98   59.61
  -9   0   9   15.46   76.55
   9   0   9   12.58   23.72
  -9   0   9   25.83   36.80
   9  -1  -9   47.52   33.55
   9  -1  -9    2.94   28.96
  -9   1  -9   24.14   58.72
   9  -1   9  127.22   69.02
   9  -1   9   46.43   25.12
  -9   2  -9   24.13   42.85
  -9   2  -9  -42.47   62.99
   9  -2   9   13.04   27.52
   9  -2   9  108.78   73.61
  -9   3  -9  -60.26   71.44
  -9   3  -9   -4.33   41.95
   9  -3   9   45.08   30.42
   9  -3   9  -38.68   69.78
  -9   4  -9  330.97   73.55
  -9   4  -9  377.36   92.91
   9  -4   9  258.05   52.42
   9  -4   9  225.04   81.87
  -9   5  -9  149.00   58.99
   9  -5   9  159.54   44.29
   9  -5   9  292.90   70.79
   9  -7   9   80.44   34.21
   9   9  -9    4.36   54.29
  10   8  -9   54.23   56.53
 -10  -8   9   25.59   41.14
  10   7  -9  127.28   63.09
  10   7  -9  174.90   45.05
 -10  -7   9  137.47   48.20
  10   6  -9  353.93   99.28
  10   6  -9  245.18   77.10
 -10  -6   9  411.99  135.06
 -10  -6   9  516.14   86.76
  10   5  -9  -37.08   58.22
  10   5  -9   25.12   47.17
  10   5  -9    2.71   29.26
 -10  -5   9  -22.11   56.61
 -10  -5   9  -10.89   57.65
 -10  -5   9   78.56   37.33
  10   3  -9  -20.57   23.52
  10   3  -9   30.79   25.79
  10   3  -9  -32.73   40.66
 -10  -3  -9    9.55   57.24
  10   3   9   50.91   32.89
  10   2  -9   21.56   45.68
 -10  -2  -9   69.85   57.16
  10   2  -9    2.34   27.13
  10   2  -9   42.38   58.54
  10   2  -9    9.19   25.12
  10   2   9   -5.20   69.16
 -10  -2   9   57.15   62.91
  10   2   9   66.90   28.31
 -10  -2   9  -42.86   39.01
 -10  -2   9  -19.15   62.56
  10   1  -9  212.69   41.71
  10   1  -9  142.96   64.01
 -10  -1  -9  293.84   66.53
  10   1  -9  165.18   41.85
  10   1  -9  138.88   66.34
  10   1   9  208.62   80.15
 -10  -1   9  346.67   78.14
  10   1   9  128.71   37.81
 -10  -1   9  139.70   58.53
 -10  -1   9  165.07   86.78
  10   0  -9   28.07   55.25
  10   0  -9   -4.06   33.05
  10   0  -9   50.25   58.18
 -10   0  -9  -35.37   61.73
  10   0  -9   10.63   28.84
 -10   0   9   44.67   85.42
  10   0   9   51.97   68.31
  10   0   9  -14.00   27.62
 -10   0   9   43.15   43.76
 -10   1  -9  174.01   72.62
  10  -1  -9  274.96   51.82
  10  -1  -9  143.18   45.30
  10  -1   9  193.35   38.97
  10  -1   9  143.10   81.91
 -10   1   9  180.64   63.45
 -10   2  -9   19.26   72.85
 -10   2  -9   13.65   41.63
  10  -2  -9  -26.92   41.12
  10  -2   9  112.56   73.56
  10  -2   9   33.48   32.15
 -10   3  -9   10.44   79.35
 -10   3  -9  -14.76   47.23
 -10   5  -9   29.67   57.06
  10  -5   9   72.13   69.42
  10  -5   9   -4.41   36.79
 -10   6  -9  388.43  104.92
  10  -6   9  809.28  103.04
  10  -6   9  537.47   81.66
  10  -7   9  137.77   49.43
  11   7  -9   40.89   37.94
  11   7  -9  -44.56   57.36
 -11  -7   9   -9.71   82.39
 -11  -7   9   39.96   45.10
  11   6  -9   16.40   53.20
  11   6  -9   26.28   31.65
 -11  -6   9   71.42   42.47
 -11  -6   9   86.97   73.28
  11   5  -9    7.53   50.24
  11   5  -9   56.68   32.59
 -11  -5   9   52.48   40.43
 -11  -5   9  -44.49   49.61
 -11  -5   9   81.20   60.66
 -11  -5   9   93.06   67.54
  11   4  -9   26.44   26.69
  11   4  -9   17.38   47.94
  11   4  -9    3.36   27.60
  11   4  -9   -9.07   66.70
 -11  -4   9    3.70   64.86
 -11  -4   9   12.70   36.25
 -11  -4   9  -23.74   65.28
 -11  -4   9  -42.50   42.71
  11   3  -9  -19.74   27.25
 -11  -3  -9  -41.75   64.25
  11   3  -9  -22.76   66.80
  11   3  -9   10.56   45.15
  11   3  -9  -16.51   24.63
 -11  -3   9   39.92   65.34
  11   3   9  -73.68   74.69
 -11  -3   9  -20.70   34.86
 -11  -3   9   12.18   43.61
 -11  -3   9  -29.26   59.51
  11   3   9   18.39   34.90
  11   2  -9  208.85   87.87
 -11  -2  -9  395.56   84.06
  11   2  -9  348.18   99.72
  11   2  -9  309.22   67.02
 -11  -2   9  418.71   73.05
 -11  -2   9  342.41   90.75
  11   2   9  198.95  102.36
  11   2   9  390.49   60.70
 -11  -2   9  295.24   88.12
 -11  -2   9  329.42  111.11
  11  -2  -9  359.58   80.78
 -11   2  -9  413.57   91.63
  11  -2  -9  359.64   75.60
 -11   2  -9  551.71  105.50
  11  -2   9  536.58  111.12
  11  -2   9  258.69   64.34
 -11   3  -9    5.65   54.68
 -11   3  -9   52.43   95.37
  11  -3   9   26.04   37.77
  11  -3   9   36.82   86.65
 -11   4  -9  -12.24   60.01
 -11   4  -9  123.54  100.18
  11  -4   9   12.57   88.08
  11  -4   9  -55.03   40.20
 -11   5  -9   -6.46  107.52
 -11   5  -9  171.56   64.80
  11  -5   9  117.56   79.93
  11  -5   9  119.52   43.80
 -11   6  -9   35.00   65.75
  11  -6   9  127.11   41.69
  11  -6   9   -6.33   79.64
  11  -7   9   26.66   45.78
  12   9  -9   95.85   68.00
  12   6  -9  -10.38   32.61
  12   6  -9    4.25   55.08
  12   5  -9   34.92   50.98
  12   5  -9   54.29   32.07
 -12  -5   9    6.86   38.86
 -12  -5   9   18.20   46.14
 -12  -5   9    4.14   70.73
  12   4  -9   33.41   29.71
  12   4  -9  -10.94   27.67
  12   4  -9    7.32   47.48
  12   4  -9  -25.70   78.49
 -12  -4   9   25.91   38.83
 -12  -4   9  -48.94   50.78
 -12  -4   9  -27.54   63.60
 -12  -4   9   -4.36   65.59
  12   3  -9  113.09   74.55
  12   3  -9   29.44   31.52
 -12  -3   9  -36.17   69.16
 -12  -3   9    3.08   35.10
 -12  -3   9   42.44   50.84
 -12  -3   9   71.12   70.26
  12   2  -9  -42.47   72.81
 -12  -2  -9  -32.21   73.19
  12   2  -9   15.54   30.79
 -12  -2   9   13.82   73.85
  12   2   9   14.36   34.46
 -12  -2   9   44.71   50.15
 -12  -2   9   33.44   75.56
 -12  -2   9  -14.86   35.49
  12   1  -9  535.43  148.10
 -12  -1  -9  587.39  131.36
  12   1  -9  731.33  108.66
 -12  -1   9  568.54  157.95
  12   1   9  474.49  100.56
  12   1   9 1050.20  154.82
 -12  -1   9  824.70  143.95
  12   0  -9  -14.50   40.02
 -12   0  -9  -44.83   80.51
  12   0  -9  -72.32   73.44
  12   0   9  -30.90   36.59
  12   0   9  136.91   98.07
 -12   0   9   -5.83   54.41
 -12   1  -9  494.40  144.11
  12  -1  -9  944.37  126.42
 -12   1  -9  703.85  151.78
  12  -1  -9  665.92  149.68
  12  -1   9  689.40  105.41
  12  -1   9  801.55  165.32
 -12   1   9  421.85  158.08
 -12   2  -9  -11.63   60.10
 -12   2  -9   24.21   92.75
  12  -2  -9   64.29   49.29
  12  -2   9  256.33  104.74
  12  -2   9    4.64   39.54
 -12   3  -9   51.41  102.12
 -12   3  -9  132.68   57.06
  12  -3   9  -24.14   41.83
  12  -3   9  548.76  107.46
 -12   4  -9   20.53  106.86
 -12   4  -9   -6.83   50.79
  12  -4   9   -5.05   45.05
  12  -5   9   -5.25   49.07
  13   3  -9   20.34   33.87
  13   3  -9  104.07   84.27
 -13  -3  -9   87.61   85.71
 -13  -3   9  -19.64   78.90
  13   3   9  -70.91  107.21
  13   3   9   32.83   40.83
 -13  -3   9   -5.32   58.21
  13   2  -9   95.07   41.51
 -13  -2  -9  352.27   86.56
  13   2  -9  188.54   88.02
  13   2   9  160.56  106.49
 -13  -2   9   62.24   66.20
 -13  -2   9   52.60   91.37
  13   2   9  207.52   46.57
  13   1  -9    5.89   80.91
  13   1  -9   18.96   41.15
  13   1   9   42.75  103.88
 -13  -1   9   -5.99   57.74
 -13  -1   9   17.96   97.18
  13   0  -9  249.06   61.80
  13   0  -9  231.71   91.72
 -13   0   9  313.60   83.51
  13   0   9   64.99  113.43
 -13   0   9  240.56  124.72
  13  -1  -9  -25.67   79.02
  13  -1  -9  -67.32   53.73
 -13   1  -9   50.77   69.91
 -13   1   9  -74.55   64.34
  13  -1   9   72.75  106.95
  13  -2  -9   82.87   61.38
 -13   2  -9  232.39   78.51
  13  -2   9  -14.99  117.64
 -13   3  -9  -14.07   70.52
  13  -3   9  -91.18  113.70
 -13   6  -9   93.46   81.08
 -13   6  -9  -48.55  133.24
  13  -6   9  -61.86   95.75
  13  -6   9    5.95   54.04
 -13   7  -9  177.18   85.46
  13  -7   9  -37.72   56.75
 -14  -4  -9   28.85   94.82
  14   4   9    7.80  104.09
  14   4   9    6.22   46.23
  14   3  -9    4.55   37.76
 -14  -3  -9  103.61   94.37
 -14  -3   9  173.50   91.65
  14   3   9  -12.06   47.03
  14   3   9  -84.51  107.18
 -14   3  -9   55.97   78.26
 -14   3  -9  -93.27  129.43
  14  -3   9  -16.91  125.89
  14  -3   9  -88.64   48.06
 -14   4  -9 -123.23  129.12
 -14   4  -9   42.22   80.62
  14  -4   9  -60.65   52.86
  14  -4   9 -101.51  114.41
 -14   5  -9   -8.93   91.84
 -14   5  -9    8.57  145.45
  14  -5   9  109.35  114.33
  14  -5   9 -100.67   53.67
 -14   6  -9   26.56  143.07
 -14   6  -9   28.06   83.87
  14  -6   9   64.90   56.76
  14  -6   9   51.20  115.24
 -14   7  -9   19.42   98.54
  14  -7   9   87.34   58.45
 -15  -4  -9   -7.93  101.65
  15   4   9 -109.34   54.90
 -15  -3  -9    7.63  106.07
  15   3  -9  -50.61   97.92
  15   3  -9   -5.02   39.90
 -15  -3   9   68.52   70.92
  15   3   9   66.60   47.06
 -15  -3   9  298.47   94.35
  15   3   9    8.44  116.67
 -15  -2  -9   80.66  109.39
  15   2  -9 -227.65   98.36
  15   2  -9    5.27   41.83
  15   2   9   85.99  128.20
 -15  -2   9 -134.46  101.15
 -15  -2   9   -7.09   69.02
  15   2   9 -108.46   51.15
 -15  -1  -9  112.91  110.13
  15   1  -9  -21.29   92.50
  15   1  -9  -74.70   53.42
  15   1   9 -216.82  130.57
  15   1   9  -81.88   50.62
 -15  -1   9  -74.20   75.22
 -15  -1   9    7.21  116.42
 -15   0  -9  -85.29  118.84
  15   0  -9  -65.64   87.19
 -15   0  -9    7.88   82.11
  15   0  -9   -6.41   51.10
  15   0   9 -122.23  133.89
 -15   0   9   -7.72   74.32
  15   0   9   74.43   53.87
 -15   0   9 -182.94  138.59
  15  -1  -9  -14.34   59.30
 -15   1  -9   48.32  121.19
 -15   1  -9   -7.95   97.00
  15  -1  -9   37.93   92.53
  15  -1   9  304.93  144.61
 -15   1   9  -56.85  152.00
  15  -1   9    6.25   59.21
 -15   1   9  -24.15   75.49
 -15   2  -9  -57.98  133.02
 -15   2  -9  -41.71   86.11
  15  -2  -9    8.08   65.59
  15  -2   9   50.58   54.09
  15  -2   9  -54.53  133.65
 -15   3  -9  102.32  141.81
 -15   3  -9   -8.88   94.30
  15  -3   9  -45.65   53.36
  15  -3   9 -112.61  135.08
 -15   4  -9   28.15   93.33
 -15   4  -9   17.87  142.16
  15  -4   9 -148.54  131.24
  15  -4   9  -26.63   56.97
 -15   5  -9   -9.32  143.67
 -15   5  -9    9.85   98.78
  15  -5   9   46.39  119.17
  15  -5   9 -102.29   55.36
 -15   7  -9  -59.84  163.36
 -15   7  -9  -42.64  100.84
  15  -7   9  -36.56   60.54
 -16  -4  -9 -174.74  114.56
  16   4   9    7.53   62.27
 -16   4  -9  199.87  107.04
 -16   4  -9  -29.29  155.31
  16  -4   9   14.62   62.12
  16  -4   9   10.17  147.32
 -16   5  -9  -43.47  104.58
 -16   5  -9  294.81  171.89
  16  -5   9 -183.49  149.83
  16  -5   9 -163.95   69.88
 -16   6  -9   11.38  100.31
 -16   6  -9   52.78  173.24
  16  -6   9   15.38   66.01
  16  -6   9  103.63  137.43
 -16   7  -9  -87.07  174.14
 -16   7  -9 -199.05  126.72
  16  -7   9  -47.88   68.09
 -17  -4  -9   38.62  131.26
  17   4   9    8.31   63.72
 -17  -3  -9   56.24  126.95
  17   3   9    8.16   63.66
  17   3   9  -10.29  153.82
  17   2  -9   34.36  125.47
  17   2  -9    6.38   54.51
 -17  -2  -9   27.23  124.00
  17   2   9   10.39  154.25
 -17  -2   9   70.01  129.64
 -17  -2   9   53.54   90.95
  17   2   9   -8.03   66.82
  17   1  -9    7.01   58.92
 -17  -1  -9  148.06  139.04
 -17  -1  -9   -9.82  107.48
  17   1  -9    8.56  113.49
  17   1   9   62.61  147.93
  17   1   9  -31.09   63.12
 -17  -1   9  197.85  150.57
 -17  -1   9  -90.59   81.11
 -17   0  -9 -133.52  143.86
  17   0  -9   38.25   70.98
  17   0  -9   34.78  111.37
 -17   0  -9  -49.11  105.46
  17   0   9  -30.57   64.49
 -17   0   9   74.85   85.63
  17   0   9   10.66  170.86
 -17   0   9  -69.24  162.18
  17  -1  -9    8.51   73.69
  17  -1  -9  260.76  121.28
 -17   1  -9 -323.30  156.87
 -17   1  -9   81.38  115.72
  17  -1   9  122.41   62.39
 -17   1   9   22.63  194.67
 -17   1   9 -182.31   88.45
  17  -1   9 -140.36  173.34
 -17   2  -9   10.08  160.05
 -17   2  -9  -21.01  112.22
  17  -2  -9   -9.33   87.29
  17  -2   9 -132.56  157.66
  17  -2   9  -15.47   67.88
 -17   2   9 -114.27  218.09
 -17   3  -9  178.40  125.03
 -17   3  -9  -10.33  165.32
  17  -3   9  -39.17   69.21
  17  -3   9  304.33  165.10
 -17   4  -9  -52.97  172.70
 -17   4  -9   46.49  103.47
  17  -4   9  -24.15   67.66
  17  -4   9  -11.17  146.71
 -17   5  -9   95.84  106.72
 -17   5  -9  -66.04  173.98
  17  -5   9  -48.86   69.85
  17  -5   9 -123.30  147.16
 -17   6  -9   22.87  181.20
 -18  -1  -9 -123.05  149.31
  18   1  -9   38.20   67.01
  18   0  -9   -8.41   71.43
  18   0  -9  -66.65  121.30
 -18   0  -9  -10.56  160.11
 -18   0   9  -96.80  183.34
  18   0   9   -8.46   73.18
 -18   1  -9   86.49  161.33
  18  -1  -9    9.21   75.48
 -18   5  -9  191.97  191.36
 -18   5  -9   66.82  125.73
  18  -5   9  -24.69  166.61
  18  -5   9   -8.92   80.25
 -18   6  -9 -112.05  202.07
 -18   6  -9 -137.61  138.21
  18  -6   9 -226.28  176.46
  18  -6   9   45.43   82.96
 -18   7  -9  142.49  213.64
 -18   7  -9  170.15  131.59
  18  -7   9  -37.51   80.94
 -19  -4  -9  -47.46  164.63
  19   4   9  -10.20   78.12
 -19  -3  -9  -92.77  165.56
  19   3   9   10.05   74.18
 -19  -2  -9   12.29  139.03
 -19  -2  -9 -167.95  166.97
  19   2   9   -9.90   80.29
  19   2   9  274.97  182.68
 -19  -1  -9  -61.36  121.06
  19   1  -9    8.40   60.67
 -19  -1  -9   56.75  177.29
  19   1  -9  -10.35  142.27
  19   1   9    9.75   74.16
 -19  -1   9  257.96  111.67
  19   1   9   89.20  200.83
 -19  -1   9 -385.61  173.07
  19   0  -9   31.33  133.69
 -19   0  -9  104.89  171.56
 -19   0  -9   62.99  121.01
  19   0  -9    9.21   77.59
 -19   0   9   11.41  106.34
  19   0   9    9.57   76.78
 -19   0   9  163.37  198.80
  19   0   9 -231.68  200.49
  19  -1  -9   30.23   83.70
 -19   1  -9 -103.40  144.98
 -19   1  -9  -83.50  180.11
  19  -1   9  -18.90   78.15
 -19   1   9   81.16  115.26
  19  -1   9 -157.17  190.45
 -19   1   9  173.83  230.21
 -19   2  -9  122.17  191.07
 -19   2  -9   13.32  127.49
  19  -2  -9  -11.05   93.19
  19  -2   9  -85.56   77.62
  19  -2   9   40.31  192.93
 -19   2   9  -15.08  248.90
 -19   3  -9   13.83  140.21
 -19   3  -9  149.73  197.38
  19  -3   9  106.51  180.30
  19  -3   9    9.50   78.64
 -19   4  -9  -86.11  131.22
 -19   4  -9  204.01  204.48
  19  -4   9  -93.43  178.85
  19  -4   9   -9.60   78.44
 -19   5  -9  -14.78  149.17
 -19   5  -9 -143.25  216.29
  19  -5   9   -9.82   85.77
  20   0  -9 -172.35  160.00
  20   0  -9  -10.09   87.45
 -20   0   9 -409.48  208.37
 -20   0   9 -301.68  124.79
  20  -1  -9   22.09   86.82
 -20   1   9  101.48  238.97
 -20   1   9  -25.59  113.71
 -20   2   9  424.39  265.74
  -1   0 -10   10.49   17.49
   0   1 -10   17.51   22.93
   0  -1  10   -9.54   32.67
  -1   1 -10  588.25  103.33
  -1   1 -10  566.20  105.59
   1  -1  10  479.36  127.49
   1  -1  10  546.16  109.60
  -1   2 -10  112.33   24.74
   2   1 -10   -2.48   26.01
   2   1 -10  110.30   20.53
   1  -2  10   95.13   21.61
   1  -2  10   60.63   31.00
   1   2 -10  100.84   20.89
  -2   1 -10  100.11   21.19
  -2   1 -10  115.89   25.99
   2  -1  10   81.57   25.32
   2  -1  10   85.81   36.95
   2   2 -10 1180.89  181.86
   2   2 -10  889.98  189.16
  -2   2 -10  910.74  186.62
  -2   2 -10 1022.50  184.19
   2  -2  10 1219.29  185.34
  -2  -2  10 1000.34  219.37
   2  -2  10  998.57  193.71
   3   2 -10  409.09   73.54
  -2   3 -10  664.51   96.94
  -2   3 -10  442.60   89.00
  -2   3 -10  486.38   85.63
   3   2 -10  514.60   91.01
  -3  -2  10  481.63  105.40
   2  -3  10  425.24  104.48
   2  -3  10  753.66   91.29
   2  -3  10  501.35   75.66
  -1   3 -10  157.44   43.86
   3   1 -10  150.33   38.28
   3   1 -10  130.14   49.41
  -1   3 -10  211.52   37.31
  -3  -1  10  188.01   60.86
   1  -3  10  147.99   32.42
   1  -3  10  310.27   41.00
   3   0 -10    2.94   28.08
   3   0 -10    4.74   20.08
  -3   0 -10   20.47   17.87
   0   3 -10  -18.92   13.00
   3   0  10   15.01   23.06
  -3   0  10  -24.68   46.08
   1   3 -10  240.84   36.16
   1   3 -10  265.92   41.86
  -3   1 -10  204.21   40.10
  -3   1 -10  177.98   40.85
  -3   1 -10  243.14   41.46
   3  -1  10  230.68   37.76
   3  -1  10  211.42   46.79
   3  -1  10  238.70   55.96
  -1  -3  10  182.32   49.17
   2   3 -10  395.06   89.24
  -3   2 -10  464.03   93.39
  -3   2 -10  605.88   84.87
   3  -2  10  593.16  106.91
   3  -2  10  640.35   93.56
   3  -2  10  577.74   76.33
  -2  -3  10  558.46  105.29
  -3   3 -10   21.54   25.39
   3   3 -10   -4.45   26.11
  -3   3 -10   10.65   10.96
  -3   3 -10   28.66   16.90
   3   3 -10   17.42   12.62
  -3   3 -10   10.05   18.30
   3   3 -10   19.96    6.27
   3  -3  10    5.32   22.45
   3  -3  10   53.97   27.50
   3  -3  10   38.61   14.86
  -3  -3  10   12.26   10.08
   3  -3  10   52.65   12.45
  -3  -3  10   31.27   30.43
  -3  -3  10    0.64   12.27
   4   3 -10    3.64    8.24
   4   3 -10   25.59   20.75
  -3   4 -10    6.10   18.62
   4   3 -10  -12.98   18.02
   4   3 -10   33.37   25.51
  -3   4 -10    4.37   18.86
  -4  -3  10    4.47   32.29
  -4  -3  10   14.08   13.18
   3  -4  10   12.74   13.55
   3  -4  10   10.19   28.00
  -4  -3  10   11.01   21.79
   4   2 -10  191.56   43.38
   4   2 -10  157.41   35.94
   4   2 -10  193.15   29.52
   2  -4  10  141.69   32.98
  -4  -2  10  202.26   53.00
   4   1 -10  305.88   51.63
   4   1 -10  326.92   64.43
  -1   4 -10  380.30   49.68
   4   1 -10  185.57   49.87
   1  -4  10  241.60   48.19
   1  -4  10  220.77   54.03
  -4  -1  10  343.35   80.02
   4   0 -10    4.89   20.25
   0   4 -10    9.37   21.35
   0   4 -10   -5.90   13.40
  -4   0 -10    3.40   16.18
   4   0 -10    6.32   33.37
  -4   0  10  -45.27   50.30
   0  -4  10    5.15   17.85
   1   4 -10  256.75   49.18
  -4   1 -10  312.44   54.38
   1   4 -10  386.49   57.37
  -4   1 -10  277.13   58.54
  -1  -4  10  376.09   53.51
   4  -1  10  269.16   48.23
   4  -1  10  332.29   70.05
   2   4 -10  254.83   34.00
   2   4 -10  175.31   42.30
  -4   2 -10  181.55   41.80
  -4   2 -10  164.48   41.33
  -4   2 -10  122.79   33.45
   4  -2  10  234.80   49.44
   4  -2  10  198.22   30.59
   4  -2  10  263.34   47.91
  -2  -4  10  146.67   37.96
  -4   3 -10    1.33   18.32
  -4   3 -10   13.81   18.73
  -4   3 -10   16.20   10.60
  -4   3 -10  -11.95   30.74
   3   4 -10   -3.64   12.61
   3   4 -10   25.05   25.55
   4  -3  10   81.74   32.12
   4  -3  10   16.52   13.68
   4  -3  10   -3.66   21.07
  -3  -4  10   13.27   31.84
   4  -3  10   -5.69   14.51
   5   2 -10  556.16  156.01
   5   2 -10  908.52  125.53
  -2   5 -10  771.51  160.31
   5   2 -10  785.31  172.29
   2  -5  10  878.08  158.94
  -5  -2  10  778.16  140.36
  -5  -2  10  808.84  179.82
   2  -5  10  786.35  149.14
  -1   5 -10    3.49   18.24
   5   1 -10    6.10   34.44
   5   1 -10   66.10   21.45
  -1   5 -10   26.90   22.99
   5   1 -10   47.10   15.96
   5   1  10   57.84   32.39
  -5  -1  10   39.29   47.11
   1  -5  10   28.29   19.17
   5   0 -10  -37.47   33.60
  -5   0 -10   18.73   27.74
   0   5 -10   -3.45   15.09
  -5   0 -10   -5.98   16.89
   0   5 -10   24.38   23.47
   5   0 -10  -22.45   20.71
  -5   0  10   -8.10   57.49
   5   0  10  -29.60   33.57
   5   0  10   -2.26   17.64
   0  -5  10   -1.94   20.01
  -5   1 -10   62.01   13.88
   1   5 -10    1.79   14.96
   1   5 -10   47.56   23.59
   5  -1  10    8.33   38.28
  -1  -5  10   57.18   21.40
   2   5 -10  838.30  136.78
   2   5 -10  708.57  156.27
  -5   2 -10  754.00  164.59
  -5   2 -10  817.89  146.74
   5  -2  10  720.26  163.32
   5  -2  10  937.67  194.60
  -2  -5  10  931.51  149.35
   5  -2  10  798.84  147.33
   5   5 -10  -23.47   28.56
   5   5 -10    2.80   32.05
  -5   5 -10   10.30   29.15
   5   5 -10  -19.78   20.45
  -5   5 -10    1.51   20.03
  -5  -5  10   -5.28   27.62
   5  -5  10  -29.08   20.76
   5  -5  10   -6.27   39.29
   6   5 -10  212.78   54.74
   6   5 -10  176.53   42.07
   6   5 -10  149.79   52.73
   5  -6  10  199.06   44.52
  -6  -5  10  306.21   72.45
  -6  -5  10  290.43   49.06
   6   4 -10  120.93   38.21
   6   4 -10   57.93   22.08
   6   4 -10   98.22   38.81
  -4   6 -10   82.83   30.34
   6   4 -10  102.86   26.65
  -6  -4  10   76.88   31.41
  -6  -4  10  111.61   29.22
  -6  -4  10  129.66   48.43
  -6  -4  10   60.03   37.29
   6   3 -10 3146.45  514.91
   6   3 -10 3625.91  553.01
  -3   6 -10 3375.37  625.53
   6   3 -10 3195.86  684.31
   6   3 -10 3408.04  593.68
  -6  -3  10 2960.20  558.89
  -6  -3  10 3549.80  704.59
  -6  -3  10 3477.93  725.42
  -6   3 -10 3549.57  649.27
   3   6 -10 3253.84  595.73
  -6   3 -10 2846.48  628.01
  -6   3 -10 3273.70  594.88
   6  -3  10 3675.93  614.38
   6  -3  10 3555.46  704.01
   6  -3  10 3475.66  518.12
   6  -3  10 3196.71  716.81
  -6   4 -10  134.83   25.13
  -6   4 -10  209.79   55.25
   4   6 -10  142.04   39.16
  -6   4 -10   79.14   40.41
   4   6 -10   59.08   26.67
   6  -4  10   81.06   30.78
   6  -4  10  147.60   28.24
   6  -4  10   66.72   45.84
  -4  -6  10  112.11   33.19
  -6   5 -10  233.48   47.98
  -6   5 -10  213.34   57.08
   5   6 -10   76.56   39.90
   5   6 -10  212.13   54.61
   6  -5  10  261.92   44.78
  -5  -6  10  311.58   48.88
   6  -5  10  202.21   58.52
   6   6 -10   -5.19   23.55
   6   6 -10   -6.46   35.57
  -6  -6  10  -14.64   29.40
   6  -6  10    3.02   27.37
   7   6 -10  -38.16   25.50
   7   6 -10   -3.45   43.00
   6  -7  10   16.13   26.57
  -7  -6  10   55.39   34.33
   7   5 -10  103.09   42.39
   7   5 -10   86.81   46.58
   7   5 -10   98.03   29.64
  -7  -5  10   61.55   35.88
  -7  -5  10  111.80   57.47
   5  -7  10   66.70   30.32
   7   4 -10 1296.55  202.24
   7   4 -10 1150.56  227.53
  -3   7 -10   -2.09   24.47
   7   3 -10   -2.19   21.03
   7   3 -10   52.14   35.17
  -7  -3  10   49.80   43.97
   7   2 -10 2596.68  426.28
   7   2 -10 2202.41  471.45
   7   2 -10 2389.16  377.88
  -7  -2 -10 1830.55  373.51
  -7  -2  10 2002.28  488.66
   7   1 -10  593.11  102.53
  -7  -1 -10  732.22  105.51
   7   1 -10  679.53   97.50
   7   1 -10  360.07  130.26
  -1   7 -10  644.66  107.77
   7   1 -10  551.69  129.37
   7   1  10  495.94  121.35
  -7  -1  10  704.73  156.80
   7   1  10  604.67   95.55
  -7  -1  10  585.79  142.80
   0   7 -10  -35.38   28.02
  -7   0 -10   -9.08   41.51
   7   0 -10    2.61   26.63
   7   0 -10   75.40   43.90
   7   0 -10   -2.99   22.90
   7   0  10  -52.71   49.93
   7   0  10    2.63   20.85
   0  -7  10   35.81   26.06
  -7   0  10    9.40   62.37
   1   7 -10  579.07  108.07
   7  -1 -10  485.54  104.07
  -7   1 -10  487.63  108.69
   1   7 -10  716.20  115.67
   7  -1  10  558.60  126.18
  -1  -7  10  463.03  115.62
  -7   2 -10 2086.52  382.59
   2   7 -10 2208.11  388.36
   7  -2  10 1873.46  337.27
   7  -2  10 2170.84  439.41
  -7   3 -10   24.29   53.73
   3   7 -10  -13.71   30.50
  -7   3 -10   -6.51   31.40
   7  -3  10    7.79   23.10
   7  -3  10   37.54   52.83
  -3  -7  10   -2.91   29.81
  -7   4 -10  878.93  247.43
  -7   4 -10 1220.78  237.48
   7  -4  10 1497.22  231.29
   7  -4  10  988.84  200.82
  -4  -7  10 1321.19  216.69
   5   7 -10   87.55   39.55
  -7   5 -10  147.87   43.21
   5   7 -10  125.40   32.87
   7  -5  10   93.58   51.79
  -5  -7  10   59.02   36.41
   7  -5  10  133.82   33.60
   6   7 -10    3.03   24.92
   6   7 -10  -43.78   39.44
  -7   6 -10   37.97   41.37
  -6  -7  10   25.95   34.57
   7  -6  10   17.14   29.87
   7   7 -10   95.07   33.41
   7   7 -10   10.89   46.67
   7  -7  10   76.06   34.78
  -7  -7  10  108.57   41.05
   8   6 -10  -31.51   29.68
   8   6 -10  -33.14   46.78
  -8  -6  10   -3.23   34.87
   8   5 -10  -10.18   40.71
   8   5 -10   92.84   27.71
  -8  -5  10   49.19   35.19
  -8  -5  10   35.54   45.87
  -8  -5  10   20.55   55.62
   8   4 -10  261.98   47.82
   8   4 -10  263.97   69.77
   8   4 -10  176.52   65.66
   8   4 -10  201.54   52.46
  -8  -4  10  306.29   79.01
  -8  -4  10  159.33   66.01
  -8  -4  10  211.55   58.47
  -8  -4  10  325.87   63.56
   8   3 -10  215.86   54.41
   8   3 -10  172.88   62.18
   8   3 -10  204.20   36.78
   8   3 -10  159.39   42.75
  -8  -3  10  212.63   69.59
  -8  -3  10  175.85   55.35
  -8  -3  10  200.39   49.49
  -8  -3  10  213.70   55.93
   8   2 -10  157.84   49.29
   8   2 -10  179.89   63.89
   8   2 -10  300.88   70.35
   8   2 -10  298.72   42.76
  -8  -2 -10  279.38   61.45
  -8  -2  10  144.77   64.19
   8   2  10  237.80   70.43
   8   2  10  194.79   48.36
  -8  -2  10  211.77   66.26
  -8  -2  10  279.74   79.57
   8   1 -10  166.36   58.43
   8   1 -10  258.35   37.92
   8   1 -10   61.48   54.34
  -8  -1 -10  149.97   53.18
   8   1 -10  223.30   40.83
   8   1  10  120.73   66.26
   8   1  10  211.88   37.83
  -8  -1  10   92.70   52.73
  -8  -1  10  192.58   77.96
   8   0 -10  197.43   43.44
  -8   0 -10  193.38   53.33
   8   0 -10  116.86   40.20
   8   0 -10   98.61   60.12
   8   0  10  230.11   35.91
   8   0  10  270.87   69.67
  -8   0  10  147.28   84.90
   8  -1 -10  183.76   47.84
  -8   1 -10  221.47   57.58
   8  -1 -10  192.68   43.88
   8  -1  10  150.22   35.59
   8  -1  10  203.73   69.43
  -8   2 -10  322.00   68.71
  -8   2 -10  275.35   64.30
   8  -2  10  295.96   78.56
   8  -2  10  313.66   46.48
  -8   3 -10  196.21   72.19
  -8   3 -10  171.98   55.82
   3   8 -10  258.37   48.46
   8  -3  10  188.87   43.70
  -3  -8  10  264.14   53.32
   8  -3  10  355.45   74.79
  -8   4 -10  374.08   88.41
   4   8 -10  385.20   58.64
  -8   4 -10  305.25   71.79
   8  -4  10  468.81   53.99
   8  -4  10  355.46   80.84
  -8   5 -10   14.22   45.48
   5   8 -10   10.16   32.57
   5   8 -10   13.12   35.81
   8  -5  10  -26.39   55.04
  -5  -8  10   17.65   36.11
   8  -5  10    7.09   29.81
  -8   6 -10   15.51   43.43
   6   8 -10  -31.40   40.89
   6   8 -10   41.95   31.94
   8  -6  10   37.86   30.78
   8  -6  10   -9.35   58.16
  -6  -8  10   -7.34   35.03
   8   8 -10  628.11   98.45
   8   8 -10  464.46  111.98
  -8  -8  10  370.55  102.54
   9   8 -10  -35.06   38.14
   9   8 -10   -4.42   58.14
  -9  -8  10    8.30   43.13
   9   7 -10  176.14   59.18
   9   7 -10  114.31   40.38
  -9  -7  10  115.14   41.97
   9   4 -10   44.04   43.43
   9   4 -10   31.52   22.73
   9   4 -10  -23.18   26.66
   9   4 -10  -20.23   50.64
  -9  -4  10   78.54   58.68
  -9  -4  10  -17.01   32.79
  -9  -4  10   87.35   33.17
  -9  -4  10   62.26   50.94
   9   3 -10  270.16   52.95
   9   3 -10  399.93   74.71
   9   3 -10  225.03   46.00
   9   3 -10  218.88   65.88
   9   3  10  160.76   74.22
  -9  -3  10  270.94   80.29
  -9  -3  10  227.90   58.50
  -9  -3  10  273.14   67.81
  -9  -3  10  195.88   65.57
   9   2 -10  146.87   29.07
   9   2 -10   86.62   50.63
  -9  -2 -10  130.26   55.95
   9   2 -10   74.69   55.45
   9   2 -10  113.64   33.70
   9   2  10   32.38   60.12
   9   2  10  147.57   35.01
  -9  -2  10   87.42   66.70
  -9  -2  10   68.49   44.19
  -9  -2  10  103.62   57.14
  -9  -1 -10   58.15   50.20
   9   1 -10    7.76   27.17
   9   1 -10   48.85   47.98
   9   1 -10   27.09   49.87
   9   1 -10   33.94   24.86
  -9  -1  10   44.07   37.32
  -9  -1  10  -45.44   73.83
   9   1  10   28.77   69.80
   9   1  10   30.96   26.51
  -9   0 -10   82.32   55.23
   9   0 -10   14.91   28.09
   9   0 -10  -11.15   28.35
   9   0 -10    9.25   53.98
  -9   0  10   13.13   38.89
   9   0  10    4.77   66.36
  -9   0  10  -22.09   86.63
   9   0  10   41.59   25.31
   9  -1 -10  -13.31   33.53
  -9   1 -10  -44.40   57.32
   9  -1 -10   22.27   32.01
   9  -1  10   86.80   73.73
   9  -1  10   -3.17   25.41
  -9   2 -10   98.61   46.60
  -9   2 -10  209.84   64.30
   9  -2  10  227.62   75.30
   9  -2  10  119.74   33.19
  -9   3 -10  345.73   71.69
  -9   3 -10  264.62   86.50
   9  -3  10  252.20   89.58
   9  -3  10  249.57   52.23
  -9   4 -10   58.90   77.25
  -9   4 -10   86.52   46.08
   9  -4  10   66.67   32.62
   9  -4  10   85.84   67.65
   7   9 -10    3.93   52.28
   9  -7  10  133.42   44.28
   8   9 -10   29.61   52.77
   9   9 -10    4.55   56.25
  10   8 -10  -52.18   64.36
  10   8 -10    4.09   39.77
  10   7 -10   89.15   60.23
  10   7 -10   76.00   39.72
 -10  -7  10   33.26   79.69
 -10  -7  10   47.01   45.20
  10   6 -10    4.12   51.71
  10   6 -10   34.73   32.72
 -10  -6  10  -82.06   72.03
 -10  -6  10   -3.56   38.64
  10   5 -10  190.01   49.96
  10   5 -10  215.05   66.63
 -10  -5  10  229.52   58.91
 -10  -5  10  365.85   92.69
  10   1 -10   40.23   29.83
  10   1 -10   65.22   52.49
  10   1 -10   17.06   28.48
  10   1 -10   13.08   51.61
 -10  -1 -10  -21.76   56.40
  10   1  10   -3.81   30.14
 -10  -1  10  -43.13   67.49
  10   1  10  -32.30   77.25
 -10  -1  10   39.70   79.53
 -10  -1  10   76.45   44.63
 -10   0 -10  203.86   67.48
  10   0 -10  178.43   41.17
  10   0 -10   94.32   42.79
  10   0 -10  154.69   69.07
  10   0 -10  231.47   68.42
 -10   0  10  190.78   61.69
 -10   0  10   23.82  101.06
  10   0  10  218.69   81.01
  10   0  10  186.76   38.63
 -10   1 -10   27.51   67.49
  10  -1 -10    4.85   39.09
  10  -1 -10   -3.22   34.04
  10  -1  10  114.55   81.31
  10  -1  10   14.34   28.44
 -10   5 -10  117.63   74.96
 -10   5 -10  266.70  102.47
  10  -5  10  315.38   56.34
  10  -5  10  206.07   87.05
 -10   6 -10   75.86   59.82
  10  -6  10    4.61   40.89
  10  -6  10   34.12   75.13
  10  -7  10  164.59   46.10
  10  -8  10   25.62   44.85
  11   9 -10  105.28   69.75
  11   7 -10   67.86   41.64
  11   7 -10  -18.84   60.59
 -11  -7  10    5.03   85.51
 -11  -7  10   12.25   45.28
  11   6 -10   26.09   57.22
  11   6 -10    3.38   36.48
 -11  -6  10  -22.58   78.47
 -11  -6  10   25.81   43.73
  11   5 -10   28.01   54.50
  11   5 -10   32.77   27.70
 -11  -5  10   51.79   41.17
 -11  -5  10  -25.21   75.73
  11   4 -10  -37.42   48.05
  11   4 -10    8.49   28.28
 -11  -4  10   15.47   60.71
 -11  -4  10  -26.84   41.83
 -11  -4  10   62.70   39.61
 -11  -4  10   19.94   66.75
  11   3 -10   45.69   49.56
  11   3 -10    2.66   27.15
  11   3 -10   12.97   26.97
  11   3 -10   67.80   65.74
 -11  -3 -10   74.99   68.95
  11   3  10   28.73   82.83
  11   3  10   -4.71   38.32
 -11  -3  10   12.41   42.80
 -11  -3  10    3.17   40.69
 -11  -3  10  -62.33   62.60
 -11  -3  10  -24.15   65.70
  11   2 -10  -14.04   61.28
  11   2 -10   20.83   48.47
  11   2 -10   13.14   29.40
 -11  -2 -10   59.25   66.89
  11   2 -10    6.82   30.16
 -11  -2  10  -63.63   71.65
 -11  -2  10   27.43   43.60
  11   2  10    8.80   32.63
  11   2  10  -53.69   82.63
 -11  -2  10   36.51   76.22
  11   1 -10  421.50   79.93
  11   1 -10  371.58  105.58
 -11  -1 -10  360.55   97.29
  11   1 -10  491.38  109.88
  11   1 -10  393.80   70.98
 -11  -1  10  555.73  109.64
 -11  -1  10  344.83  106.50
  11   1  10  461.52   68.65
  11   1  10  447.23  121.96
 -11  -1  10  387.17  142.27
  11   0 -10  -10.22   60.87
  11   0 -10   53.04   32.52
 -11   0 -10  -19.96   73.17
  11   0 -10  -22.49   35.13
 -11   0  10  -81.52   51.66
  11   0  10  -41.80   88.57
  11   0  10   36.21   32.10
 -11   0  10  -19.17   95.77
  11  -1 -10  338.18   82.73
 -11   1 -10  347.09  104.78
  11  -1 -10  307.20   87.09
  11  -1  10  537.48   72.51
  11  -1  10  637.76  129.84
 -11   2 -10  -31.43   57.97
 -11   2 -10  -53.87   84.36
  11  -2 -10  -36.25   49.67
  11  -2  10   -8.29   33.51
  11  -2  10  -85.95   97.13
 -11   3 -10   -5.72   90.67
 -11   3 -10   78.64   57.65
  11  -3  10    8.67   39.96
  11  -3  10   31.14   89.72
 -11   4 -10  -61.39   96.58
 -11   4 -10  146.02   65.05
  11  -4  10   59.18   41.34
  11  -4  10  255.13   94.56
 -11   5 -10   77.04  101.65
 -11   5 -10  -32.80   60.49
  11  -5  10  142.97   45.02
  11  -5  10   62.36   85.61
 -11   6 -10 -125.72   62.94
  11  -6  10  -60.59   43.05
  11  -6  10   44.13   84.93
 -11   7 -10   36.72   58.45
  11  -7  10   53.20   46.64
  12   9 -10  -22.14   71.67
 -12  -8  10  -37.38   50.97
  12   5 -10   41.24   54.04
  12   5 -10  -21.62   32.10
 -12  -5  10  -27.12   79.12
 -12  -5  10  -35.76   43.37
  12   4 -10   -3.95   48.54
  12   4 -10   17.49   29.44
 -12  -4  10   -6.99   43.07
 -12  -4  10   46.83   69.59
  12   3 -10   36.88   54.57
  12   3 -10  -24.83   31.94
  12   3 -10  -39.75   31.53
  12   3 -10   71.38   73.31
 -12  -3  10    4.77   48.66
 -12  -3  10  -43.37   72.30
 -12  -3  10   -3.30   38.31
 -12  -3  10   -4.45   74.62
  12   2 -10   97.69   36.94
  12   2 -10   53.21   58.59
  12   2 -10   98.75   74.09
  12   2 -10   45.87   34.42
 -12  -2  10   56.20   58.77
 -12  -2  10  145.61   84.39
 -12  -2  10   84.95   88.26
 -12  -2  10   89.61   43.22
  12   1 -10  -37.28   72.54
 -12  -1 -10  -32.65   79.02
  12   1 -10   25.82   35.75
 -12  -1  10   58.41   91.75
 -12  -1  10    5.38   89.95
  12   1  10   73.91   41.26
 -12  -1  10  -11.05   53.14
 -12   0 -10  201.43   89.67
  12   0 -10  123.39   49.44
  12   0 -10  324.97   78.68
 -12   0  10  233.06   73.10
  12   0  10   -6.64   82.34
  12   0  10  216.14   47.20
  12  -1 -10    5.73   46.51
 -12   1 -10   -5.82   88.19
 -12   1 -10  204.01   63.26
  12  -1  10  509.40   99.20
 -12   2 -10  224.74   62.33
 -12   2 -10    6.04   94.80
  12  -2 -10  117.82   55.02
  12  -2  10  129.63   45.64
 -12   3 -10  -25.44  101.79
  12  -3  10  -62.70   44.55
 -12   4 -10 -155.22  115.57
  12  -4  10   70.01   41.08
  12  -8  10  -12.04   52.85
 -13  -8  10   48.19   55.01
  13   2 -10  -21.30   34.21
  13   2 -10  -80.32   79.10
 -13  -2 -10   -6.03   79.52
  13   2  10   16.07   40.59
  13   2  10  -78.44  105.92
 -13  -1 -10  279.36   87.70
  13   1 -10  169.77   79.17
  13   1 -10   47.06   43.30
 -13  -1  10   97.47   69.41
  13   1  10  159.17   44.04
 -13  -1  10  119.31  101.99
  13   1  10  101.05  105.81
  13   0 -10   91.86   79.36
  13   0 -10    5.33   42.26
 -13   0  10   -6.52   57.53
  13   0  10   -5.03   31.49
 -13   0  10 -137.49  109.32
  13   0  10  132.05  107.99
 -13   1 -10   32.43   70.83
  13  -1 -10  194.37   58.18
  13  -1  10   74.20  112.77
 -13   1  10   62.28   67.29
  13  -2 -10  141.13   59.36
 -13   2 -10  232.38   73.97
 -13   6 -10  128.66  130.67
 -13   6 -10  -42.62   76.82
  13  -6  10  171.90   56.11
  13  -6  10   23.25  103.51
 -13   7 -10  -88.30   80.76
  13  -7  10    6.14   54.83
  13  -8  10  -32.43   52.09
 -14  -4 -10   58.93   91.38
  14   4  10  111.00  114.33
 -14  -3 -10 -105.43   95.01
  14   3  10  -79.53   48.68
  14   3  10 -132.62  106.76
  14   2 -10   -4.75   41.96
 -14  -2 -10   -6.68   96.11
 -14  -2  10 -125.29   91.60
  14   2  10  -59.31   46.12
  14   2  10    7.85  108.32
 -14  -1 -10  -33.82   99.81
  14   1 -10   -5.16   44.08
  14   1  10    5.71   46.29
  14   1  10    7.99  112.35
 -14  -1  10   32.65  109.20
 -14   0 -10  -50.82   76.99
  14   0  10 -146.14  116.38
  14   0  10  -39.23   49.05
 -14   1 -10   14.40   77.43
 -14   1 -10  158.52  117.95
  14  -1  10  -62.35   54.23
  14  -1  10  180.89  119.55
 -14   1  10   -7.52   67.07
 -14   2 -10  -37.85   77.90
  14  -2 -10    7.64   64.21
 -14   2 -10    7.47  125.98
  14  -2  10 -126.68  140.15
  14  -2  10  -28.44   54.08
 -14   3 -10  -63.67   81.39
 -14   3 -10  -23.12  122.17
  14  -3  10 -111.31  127.45
  14  -3  10   35.45   51.68
 -14   4 -10  -42.76   84.81
 -14   4 -10  -40.48  125.50
  14  -4  10   30.34   55.35
  14  -4  10    8.68  122.74
 -14   5 -10  -98.40   86.04
 -14   5 -10  -16.93  136.09
  14  -5  10   25.55  114.64
  14  -5  10   80.97   55.68
 -14   6 -10   79.22  148.44
 -14   6 -10   37.65   91.39
  14  -6  10   42.89  107.67
  14  -6  10  111.07   60.38
 -14   7 -10  -48.56   90.48
 -14   7 -10  -27.20  146.88
  14  -7  10   53.38   56.69
 -15  -4 -10    8.08  104.76
  15   4  10  111.32  120.66
 -15  -3 -10    7.76   99.60
  15   3  10    8.53  120.23
  15   3  10  -13.48   50.87
  15   2 -10 -159.61   99.73
  15   2 -10   83.18   45.84
 -15  -2 -10   51.89  105.51
 -15  -2  10  294.89   94.17
  15   2  10   32.88   54.64
 -15  -2  10  -99.66   68.33
  15   2  10   95.53  122.20
 -15  -1 -10   82.68  106.46
  15   1 -10    5.69   49.14
  15   1 -10  147.31   91.04
 -15  -1  10   14.75   75.18
  15   1  10  -17.72  128.06
 -15  -1  10   71.26  120.17
  15   1  10   44.40   51.72
 -15   0 -10  139.57  118.55
 -15   0 -10  -87.96   79.88
  15   0 -10   -6.41   50.89
  15   0 -10  -58.14   88.45
 -15   0  10   -7.81   73.92
  15   0  10  -31.16   51.79
 -15   0  10   99.36  137.50
  15   0  10  -88.80  131.28
 -15   1 -10  -72.71   91.48
  15  -1 -10  -21.60   61.56
 -15   1 -10  -39.98  123.92
  15  -1  10  -18.79   55.37
 -15   1  10  -57.13  159.06
  15  -1  10 -200.07  142.44
 -15   1  10   16.33   73.23
  15  -2 -10   -8.20   73.23
 -15   2 -10  118.66   90.31
 -15   2 -10   24.75  127.10
  15  -2  10  388.14  134.67
  15  -2  10   19.08   55.43
 -15   3 -10   17.00  135.46
 -15   3 -10  -54.19   97.04
  15  -3  10  -25.85   53.72
  15  -3  10    9.51  132.79
 -15   4 -10   95.10   92.49
 -15   4 -10 -132.84  143.48
  15  -4  10   93.27   58.26
  15  -4  10 -113.77  133.05
 -15   7 -10  -32.06  100.99
 -15   7 -10   98.86  153.50
  15  -7  10  203.13   66.94
 -15   8 -10   10.19  165.10
  15  -8  10  -29.84   60.07
 -16  -4 -10   -8.90  113.80
  16   4  10 -251.16  128.10
  16   4  10   -7.61   60.08
 -16  -3 -10   34.32  118.35
  16   3  10 -262.84  146.95
  16   3  10  -14.89   55.06
 -16   3 -10  121.74  144.48
 -16   3 -10   20.04  100.36
  16  -3  10   10.52  147.86
  16  -3  10  -64.12   62.68
 -16   4 -10 -182.77  157.53
 -16   4 -10 -147.64  110.15
  16  -4  10   -7.34   63.49
  16  -4  10 -114.06  146.52
 -16   5 -10  -55.16  113.10
 -16   5 -10 -119.98  161.69
  16  -5  10  -96.64   68.61
  16  -5  10   41.41  149.52
 -16   6 -10 -114.69  110.94
 -16   6 -10 -155.99  161.67
  16  -6  10   68.41   71.08
  16  -6  10  -20.91  145.42
 -16   7 -10   10.75  178.57
 -16   7 -10  -94.17  106.30
  16  -7  10  -31.49   66.09
 -17  -4 -10  205.96  131.68
  17   4  10   -8.39   66.19
  17   4  10   51.12  152.12
 -17  -3 -10 -218.85  134.43
  17   3  10  -10.38  148.25
  17   3  10    8.24   64.70
 -17  -2 -10  137.19  135.84
  17   2  10   56.52   66.39
  17   2  10  188.91  164.80
  17   1 -10   48.54   65.73
 -17  -1 -10  -36.99  135.74
  17   1 -10  -50.54  117.00
 -17  -1 -10   49.59  113.22
  17   1  10  -39.80   64.25
  17   1  10   95.16  158.37
 -17  -1  10   -8.49  145.82
 -17  -1  10 -135.26   90.43
  17   0 -10    7.61   67.46
  17   0 -10   34.52  118.82
 -17   0 -10  -19.02  138.66
 -17   0 -10 -119.42  102.29
  17   0  10  -15.64   69.44
  17   0  10   10.80  159.32
 -17   0  10  187.09  164.38
 -17   1 -10   19.50  142.72
 -17   1 -10  -20.56  103.69
  17  -1 -10   51.23   75.03
 -17   1  10  294.37  185.32
  17  -1  10   22.08  157.59
  17  -1  10    7.64   62.77
 -17   1  10  -19.31   82.96
 -17   2 -10  267.21  107.91
 -17   2 -10   20.15  149.30
  17  -2 -10   -9.46   81.77
  17  -2  10  134.39  155.63
  17  -2  10    7.78   66.91
 -17   2  10  128.04  208.48
 -17   3 -10   66.91  120.40
 -17   3 -10  -72.08  155.88
  17  -3  10   62.36   65.20
  17  -3  10   80.44  158.74
 -17   4 -10   23.66  120.27
 -17   4 -10  -10.51  165.35
  17  -4  10 -102.27  162.43
  17  -4  10   15.93   69.27
 -17   5 -10 -207.04  177.30
 -17   5 -10   73.05  119.89
  17  -5  10  -45.47  167.70
  17  -5  10 -105.75   72.90
  17  -7  10  -93.89   73.48
  18   4  10   -9.28   71.32
 -18   4 -10  274.30  136.05
  18  -4  10 -161.30  186.52
  18  -4  10   96.01   71.87
 -18   5 -10  -94.42  204.50
 -18   5 -10  -26.85  138.32
  18  -5  10 -134.14   77.57
  18  -5  10  150.11  180.38
 -18   6 -10   83.95  132.12
 -18   6 -10  -48.93  209.50
  18  -6  10  -12.71  172.41
  18  -6  10   36.16   75.26
 -18   7 -10 -243.43  132.66
 -18   7 -10  -25.37  211.83
  18  -7  10   18.46   74.59
 -19  -4 -10  120.75  169.57
 -19  -3 -10   11.76  171.13
  19   3  10 -223.63   79.77
  19   3  10   12.59  155.09
 -19  -2 -10  -11.33  160.99
 -19  -2 -10  -99.22  121.13
  19   2  10    9.95   83.01
  19   2  10  289.96  206.78
 -19  -1 -10  170.48  164.09
 -19  -1 -10   12.38  143.23
  19   1  10  257.33  191.20
  19   1  10   -9.76   82.25
 -19   0 -10  325.21  180.93
 -19   0 -10   12.70  131.72
  19   0  10   -9.66   87.18
 -19   0  10  -11.16  101.45
 -19   0  10  -34.72  194.80
  19   0  10  -13.12  191.32
 -19   1 -10   35.75  185.12
  19  -1 -10   10.05   80.95
 -19   1 -10 -379.96  132.21
  19  -1  10  279.77  210.32
 -19   1  10  240.32  218.74
  19  -1  10  -18.96   78.85
 -19   2 -10 -109.49  191.25
 -19   2 -10  215.83  144.14
  19  -2  10   94.51   82.89
  19  -2  10  136.97  207.55
 -19   3 -10   37.35  195.22
 -19   3 -10   14.03  148.89
  19  -3  10   -9.52   77.97
  19  -3  10 -108.70  203.37
 -19   4 -10 -259.84  146.01
 -19   4 -10   88.75  204.07
  19  -4  10  -28.65   80.56
 -19   5 -10  129.04  207.77
  19  -5  10  -87.32   88.42
  20  -1 -10  -11.00   88.42
 -20   1  10  101.16  250.18
   1   0 -11 4236.01  762.22
   1   1 -11    4.06   17.32
   1   1 -11   55.01   26.48
  -1  -1  11   80.01   41.06
   2   1 -11  736.31  143.93
   2   1 -11  801.00  124.07
  -2  -1  11  624.05  171.48
   1  -2  11  740.02  141.92
   2   0 -11  -18.00   20.74
  -2   0 -11   22.14   19.71
   2   0 -11   30.30   30.65
   0   2 -11  -18.78   16.11
  -2   0  11   -7.33   47.50
   1   2 -11  700.82  136.51
   1   2 -11  689.86  129.15
  -2   1 -11  680.40  137.11
   2  -1  11  818.10  169.74
   2  -1  11  705.95  148.17
  -1  -2  11  559.30  156.04
  -2   2 -11    5.83   21.25
  -2   2 -11    3.69   17.93
   2   2 -11    7.25   25.24
   2   2 -11    7.78   17.76
   2  -2  11   29.82   23.21
  -2  -2  11   -7.22   34.45
   2  -2  11    6.41   11.41
   2  -2  11  -19.59   29.08
  -2   3 -11  146.98   30.39
  -2   3 -11  131.73   30.87
   3   2 -11  216.45   39.18
   3   2 -11  135.11   22.30
   2  -3  11  180.18   33.44
   2  -3  11  153.44   24.24
  -3  -2  11  212.71   47.16
  -1   3 -11   11.83   11.12
   3   1 -11   11.81   31.52
  -1   3 -11    4.14   14.01
  -1   3 -11   10.48   13.75
   1  -3  11    2.93    7.87
  -3  -1  11  -15.96   46.19
   1  -3  11   29.52   16.21
   3   0 -11   80.84   43.53
   0   3 -11  125.31   36.94
   0   3 -11  155.82   31.22
  -3   0 -11  205.44   37.16
  -3   0  11  237.25   67.50
   0  -3  11  126.82   43.32
   3   0  11  159.11   39.36
  -3   1 -11   32.68   16.13
  -3   1 -11   10.53   23.01
  -3   1 -11   14.04   22.06
   1   3 -11    2.15   22.94
   1   3 -11   46.55   16.47
   3  -1  11   22.76   27.95
   3  -1  11   40.05   35.07
   3  -1  11    5.43   14.78
  -1  -3  11   21.93   27.54
   2   3 -11  114.71   36.68
  -3   2 -11  129.36   36.87
   2   3 -11  141.36   29.33
  -3   2 -11   40.25   27.67
  -3   2 -11  188.88   33.51
   3  -2  11  238.28   43.93
   3  -2  11  116.98   26.87
   3  -2  11  159.35   38.91
  -2  -3  11   61.57   41.83
  -3   3 -11   10.43   24.84
   3   3 -11  -29.40   27.96
  -3   3 -11   13.25   20.62
  -3   3 -11    7.71   16.25
   3   3 -11    3.74    4.43
  -3  -3  11   16.46   11.60
   3  -3  11  -11.81   11.46
  -3  -3  11  -18.78   35.01
   3  -3  11  -19.25   28.60
   3  -3  11   -4.69   26.23
  -3   4 -11   41.48   31.03
   4   3 -11   61.41   19.86
  -2   4 -11  773.86  125.08
  -2   4 -11  966.42  135.92
   4   2 -11  713.34  110.99
  -2   4 -11  869.07  165.61
   4   2 -11  682.55  139.16
   2  -4  11  890.51  118.07
  -4  -2  11  833.84  159.06
   2  -4  11  674.93  132.49
  -1   4 -11   52.74   17.84
   4   1 -11  -18.87   32.82
   4   1 -11   45.92   21.92
  -1   4 -11   31.28   14.92
  -1   4 -11   47.81   24.24
  -4  -1  11   40.72   49.29
   1  -4  11   30.99   19.18
   1  -4  11    3.65   27.24
   1  -4  11   24.06    8.49
  -4   0 -11   11.47   19.40
   0   4 -11   12.47   14.63
   4   0 -11   69.13   25.43
   4   0 -11    3.46   35.50
   0   4 -11    8.14   23.48
   0  -4  11   11.69   27.22
   0  -4  11   11.12   18.89
  -4   0  11   28.96   54.27
  -4   1 -11   35.43   16.08
   1   4 -11   18.43   15.26
   1   4 -11   37.32   23.35
  -4   1 -11   21.69   24.83
  -1  -4  11    6.01   21.42
  -1  -4  11    2.08   29.86
   4  -1  11    1.95   16.91
   4  -1  11   19.92   36.29
  -4   2 -11  737.19  130.44
   2   4 -11  919.14  134.09
  -4   2 -11  733.38  126.90
  -2  -4  11  704.86  130.94
   4  -2  11  774.67  169.76
  -2  -4  11  876.30  164.91
   4  -2  11  738.94  114.13
   3   4 -11   33.44   14.27
  -4   5 -11    1.97   18.85
   5   4 -11    8.02   11.85
   5   4 -11  -18.57   25.42
   5   4 -11   -2.14   19.71
   5   4 -11   68.21   32.74
  -5  -4  11  -34.97   39.83
  -5  -4  11  -18.09   24.56
  -5  -4  11   -1.30   16.54
   4  -5  11  -28.04   20.36
  -5  -4  11    2.89   25.74
   4   5 -11   33.16   19.63
  -5   4 -11  -15.42   15.74
  -5   4 -11  131.96   40.97
  -5   4 -11   16.90   26.38
  -5   4 -11  -17.07   21.04
   4   5 -11  -50.48   33.60
  -4  -5  11  -10.33   27.08
   5  -4  11   23.91   22.72
   5  -4  11   -8.49   38.20
   5  -4  11    8.70   16.65
   5  -4  11   99.86   18.65
   5   5 -11   -5.96   35.32
   5   5 -11   37.52   22.67
  -5   5 -11   -6.70   27.10
   5  -5  11   39.52   38.23
   5  -5  11   -2.36   21.51
  -5  -5  11   -5.47   27.48
  -5  -5  11    8.85   41.60
   6   5 -11  147.17   54.85
   6   5 -11  158.73   40.16
  -5   6 -11  204.95   46.96
   5  -6  11  227.86   42.77
  -6  -5  11  191.44   72.66
  -6  -5  11  248.75   49.54
  -4   6 -11 2338.66  441.99
   6   4 -11 2306.17  459.55
   6   4 -11 2133.55  385.36
  -6  -4  11 2395.92  413.02
  -6  -4  11 2252.27  395.96
  -3   6 -11   -2.03   25.55
   6   3 -11   -3.01   12.81
   6   3 -11   28.47   31.39
   6   3 -11   -5.90   35.24
   6   3 -11   29.58   21.74
  -6  -3  11   29.33   32.62
  -6  -3  11   -6.27   21.69
   3  -6  11   43.82   16.82
  -6  -3  11   14.78   46.51
   3  -6  11   -2.31   23.31
  -2   6 -11 4350.39  745.00
   6   2 -11 3581.66  696.59
   6   2 -11 3632.41  766.08
  -2   6 -11 3991.53  696.05
   6   2 -11 3920.06  547.98
   6   2 -11 3872.09  617.06
  -6  -2  11 4371.63  794.39
  -6  -2  11 3368.54  869.74
  -6  -2  11 3917.91  598.82
   2  -6  11 3431.46  714.58
  -1   6 -11  274.65   64.14
   6   1 -11  383.51   75.87
   6   1 -11  404.70   57.02
   6   1 -11  316.13   53.95
  -6  -1 -11  388.01   65.73
  -1   6 -11  327.65   63.13
   1  -6  11  337.68   63.62
  -6  -1  11  330.49   94.65
   6   1  11  356.51   73.48
  -6   0 -11   -2.96   15.84
   6   0  11  -49.54   46.38
   6   0  11   -5.22   19.96
  -6   1 -11  265.67   62.49
   1   6 -11  286.54   56.82
   1   6 -11  334.92   63.77
  -6   1 -11  282.94   63.46
  -1  -6  11  332.19   61.84
   6  -1  11  337.80   78.35
   6  -1  11  294.77   51.74
  -6   2 -11 3531.25  620.40
   6  -2  11 4439.10  720.02
   6  -2  11 3063.81  888.68
  -6   3 -11    2.82   21.19
  -6   3 -11    4.39   13.12
  -6   3 -11  -42.90   43.42
  -6   3 -11   19.65   23.84
   3   6 -11    2.78   30.92
   3   6 -11    6.86   21.32
  -3  -6  11   23.63   27.09
   6  -3  11   42.06   15.04
   6  -3  11   16.20   45.67
   6  -3  11   26.69   27.60
   6  -3  11   -6.58   20.48
   4   6 -11 2602.25  416.64
   4   6 -11 2239.62  360.78
  -6   4 -11 2143.77  448.33
  -6   4 -11 2506.40  425.67
  -6   4 -11 1737.94  420.55
  -4  -6  11 2539.88  390.95
   6  -4  11 2732.48  411.96
   5   6 -11  218.81   41.45
  -6   5 -11  175.30   45.07
  -6   5 -11  211.07   53.94
   5   6 -11  273.89   53.14
   6  -5  11  252.01   60.73
  -5  -6  11  160.05   46.02
   6  -5  11  149.21   42.86
   6   6 -11   -2.65   25.86
   6   6 -11   -3.40   40.80
  -6  -6  11    6.13   34.10
   6  -6  11   -3.01   27.57
   7   6 -11   10.92   43.35
   7   6 -11   47.32   28.83
  -7  -6  11    9.67   35.00
   6  -7  11   35.33   27.60
  -7  -6  11  -18.50   59.62
   7   5 -11  -20.89   25.08
  -5   7 -11   41.64   27.60
   7   5 -11  -37.34   38.78
  -7  -5  11   37.08   31.37
   5  -7  11  -31.09   25.20
  -7  -5  11  -20.25   55.16
   7   4 -11  185.42   40.19
  -4   7 -11  211.47   44.66
   7   4 -11  243.23   51.07
  -7  -4  11  133.15   45.50
  -7  -4  11  193.35   63.99
   4  -7  11  122.75   39.64
  -3   7 -11  440.07  114.84
   7   3 -11  637.10  116.97
   7   3 -11  583.81  104.79
  -7  -3  11  620.57  138.52
   7   2 -11  190.08   56.45
   7   2 -11  207.62   40.86
  -2   7 -11  115.73   43.47
   7   2 -11   -2.75   54.82
  -7  -2  11  176.70   54.43
  -7  -2  11  282.82   69.42
   7   2  11  217.07   57.24
   7   1 -11  325.60   53.62
   7   1 -11  227.30   55.77
  -7  -1 -11  405.26   66.50
  -1   7 -11  314.81   61.83
   7   1 -11  255.58   76.74
   7   1  11  329.84   55.14
   1  -7  11  305.93   64.89
   7   1  11  423.14   74.60
  -7  -1  11  223.54   96.51
   0   7 -11 1358.49  239.60
   7   0 -11 1446.61  287.85
  -7   0 -11 1058.40  220.67
   7   0 -11 1542.92  239.82
  -7   0  11  938.66  358.29
   0  -7  11 1543.23  253.16
   7   0  11 1243.49  205.69
   7   0  11 1256.89  271.37
   7  -1 -11   84.41   57.38
   1   7 -11  298.77   61.70
   1   7 -11  288.23   61.23
  -7   1 -11  359.23   66.20
   7  -1  11  284.59   49.30
  -1  -7  11  344.14   63.17
   7  -1  11  327.70   83.51
  -7   2 -11  258.22   56.16
   2   7 -11  225.93   46.78
   2   7 -11  181.43   40.35
   7  -2  11  248.49   35.66
  -2  -7  11  198.09   46.03
   7  -2  11  160.19   68.51
   3   7 -11  599.00  105.67
  -7   3 -11  604.90  125.19
  -7   3 -11  605.93  118.02
   3   7 -11  657.69  111.11
   7  -3  11  506.87   97.74
   7  -3  11  562.11  127.26
  -3  -7  11  584.08  110.09
  -7   4 -11  193.27   51.44
   4   7 -11   98.60   48.39
  -7   4 -11  171.49   69.90
   7  -4  11  218.51   38.94
   7  -4  11  232.96   62.31
   5   7 -11    6.61   38.35
  -7   5 -11  -16.73   39.64
   5   7 -11   32.39   26.86
   7  -5  11   23.15   48.70
   7  -5  11  -21.70   26.19
  -5  -7  11   16.02   34.34
   6   7 -11    3.07   23.67
   6   7 -11   35.76   44.34
  -7   6 -11   23.16   38.08
  -6  -7  11  -53.73   38.21
   7  -6  11   30.29   31.65
   8   7 -11    6.73   36.85
   8   7 -11   12.35   56.38
   7  -8  11  144.48   38.09
  -8  -7  11  117.72   48.06
   8   5 -11  629.56  135.75
   8   5 -11  762.23  112.94
  -8  -5  11  796.04  127.22
  -8  -5  11  733.41  172.66
   8   4 -11   35.96   29.35
   8   4 -11   44.66   45.03
  -8  -4  11   10.70   45.75
  -8  -4  11   24.52   28.73
  -8  -4  11   12.24   34.68
  -8  -4  11   71.78   56.12
   8   3 -11  713.65  134.51
   8   3 -11  667.62   91.18
   8   3 -11  344.09  115.31
  -8  -3  11  606.80  137.02
  -8  -3  11  556.07  140.40
  -8  -3  11  399.45  104.89
   8   2 -11  427.46   69.79
   8   2 -11  537.07   80.06
  -8  -2 -11  483.38   89.39
   8   2 -11  413.30   99.35
   8   2 -11  511.95  103.47
  -8  -2  11  427.64   86.80
   8   2  11  464.39   95.90
  -8  -2  11  492.40  110.81
  -8  -2  11  317.19  118.37
   8   1 -11  367.85   61.68
   8   1 -11  294.11   83.95
   8   1 -11  344.25   81.53
  -8  -1 -11  293.23   70.99
   8   1 -11  278.20   56.86
   8   1  11  328.04   57.14
  -8  -1  11  410.23   85.28
   8   1  11  576.54   84.67
  -8  -1  11  309.17  105.58
   8   0 -11  -20.52   26.68
   0   8 -11  -13.37   31.37
  -8   0 -11    3.49   46.04
   8   0 -11   29.22   28.06
   8   0 -11   36.75   50.98
   8   0  11   31.06   60.71
  -8   0  11  -38.43   82.23
   8   0  11    3.02   20.70
   8  -1 -11  443.35   72.82
   1   8 -11  222.76   64.04
  -8   1 -11  324.15   71.94
   8  -1 -11  322.39   64.92
   8  -1  11  153.07   89.04
  -1  -8  11  205.27   69.29
   8  -1  11  306.53   53.13
   2   8 -11  285.64   82.47
  -8   2 -11  411.95   93.38
   8  -2  11  408.83   71.55
  -2  -8  11  334.06   86.41
   8  -2  11  540.22  108.76
  -8   3 -11  600.14  126.54
   3   8 -11  547.08  106.90
   3   8 -11  425.22  107.79
  -8   3 -11  643.24  121.03
   8  -3  11  755.36   97.70
  -3  -8  11  575.56  111.95
   8  -3  11  550.14  128.71
  -8   4 -11   68.14   42.13
  -8   4 -11   81.39   69.80
   4   8 -11   89.73   39.72
   8  -4  11   19.22   25.24
   8  -4  11   31.18   62.46
  -8   5 -11  582.87  146.93
   5   8 -11  576.84  118.19
   5   8 -11  566.29  122.26
  -8   5 -11  518.61  143.21
   8  -5  11  681.34  116.68
  -5  -8  11  530.90  122.83
   8  -5  11  407.83  132.62
   7   8 -11  154.63   51.64
   7   8 -11   94.56   41.59
  -7  -8  11  101.27   46.11
   8  -7  11   84.23   37.98
   8   8 -11    4.31   50.19
   8   8 -11  -11.37   38.84
   8  -8  11    8.42   36.20
  -8  -8  11   32.50   45.82
   9   8 -11   -4.64   64.91
   9   8 -11   55.32   40.56
  -9  -8  11  114.35   47.12
   9   7 -11  137.35   40.55
   9   7 -11    4.41   64.03
  -9  -7  11  124.55   85.39
  -9  -7  11  172.95   50.54
   9   6 -11   61.87   52.24
   9   6 -11  -12.27   32.26
  -9  -6  11   -3.54   41.44
  -9  -6  11   12.60   66.51
   9   3 -11   -3.61   44.86
   9   3 -11   -7.47   21.69
   9   3 -11   28.68   49.35
   9   3 -11  -23.55   28.15
  -9  -3  11  -39.71   36.14
  -9  -3  11   -3.70   60.97
  -9  -3  11   15.26   36.50
  -9  -3  11  -20.87   50.79
   9   2 -11  250.79   78.38
   9   2 -11  346.04   50.79
   9   2 -11  203.04   79.36
  -9  -2 -11  280.61   75.66
   9   2 -11  207.63   59.17
  -9  -2  11  182.28   95.47
   9   2  11  449.70   55.61
  -9  -2  11  183.99   74.96
   9   2  11  450.34   83.33
  -9  -2  11  330.39   81.16
   9   1 -11    8.35   30.15
   9   1 -11   61.80   27.58
   9   1 -11   50.90   50.04
  -9  -1 -11  -11.94   52.88
   9   1 -11   61.30   50.62
   9   1  11   93.27   65.12
   9   1  11   79.67   28.93
  -9  -1  11   75.09   42.30
  -9  -1  11   88.97   77.96
   9   0 -11   48.08   31.74
   9   0 -11    4.94   55.56
  -9   0 -11   39.38   54.09
   9   0 -11  -26.56   30.46
   9   0  11   40.22   29.10
  -9   0  11   88.52   94.73
   9   0  11   98.16   65.68
   9  -1 -11   67.88   36.81
  -9   1 -11   56.27   56.23
   9  -1 -11   61.49   36.58
   9  -1  11   44.66   25.26
   9  -1  11   69.50   73.32
  -9   2 -11  211.61   75.79
  -9   2 -11  338.46   81.62
   9  -2  11  319.03   54.13
   9  -2  11  421.36   89.77
  -9   3 -11   21.78   42.03
  -9   3 -11  -53.46   68.34
   9  -3  11   23.80   29.48
   9  -3  11   10.05   68.38
  -9   6 -11   22.68   50.67
   6   9 -11    3.81   38.71
   9  -6  11   -5.07   65.45
  -6  -9  11  -71.27   43.35
   9  -6  11    8.31   36.44
   7   9 -11   12.31   57.88
   9  -7  11  263.38   45.54
  -7  -9  11  160.80   54.15
   8   9 -11   26.52   54.75
   9  -8  11  106.80   42.33
  10   8 -11   -4.93   63.64
  10   7 -11   75.48   58.46
  10   7 -11   77.21   37.53
 -10  -7  11   59.98   42.40
 -10  -7  11  -73.89   83.02
  10   6 -11   19.66   30.57
  10   6 -11   26.34   54.51
 -10  -6  11   44.45   40.69
 -10  -6  11   31.40   77.98
  10   5 -11   20.39   54.17
  10   5 -11  102.16   31.57
 -10  -5  11  114.47   45.95
 -10  -5  11  -21.09   76.16
  10   4 -11   31.81   30.85
  10   4 -11   22.81   50.43
 -10  -4  11   83.95   42.93
 -10  -4  11   72.39   69.00
 -10   4 -11   49.23   56.39
 -10   4 -11   86.74   87.51
  10  -4  11   74.84   83.64
  10  -4  11   60.60   37.58
 -10   5 -11   76.89   60.17
 -10   5 -11  109.46   89.78
  10  -5  11   34.61   38.59
  10  -5  11   44.93   74.40
 -10   6 -11  100.46   59.94
  10  -6  11   18.05   37.45
  10  -6  11   67.70   75.48
  10  -7  11   82.39   44.67
  10  -8  11  -45.41   41.06
  11  10 -11   -5.71   75.46
  11   9 -11    5.50   72.19
  11   6 -11   37.65   33.37
  11   6 -11  -50.99   60.71
 -11  -6  11 -139.72   83.79
 -11  -6  11   11.65   43.61
  11   5 -11   62.55   37.52
  11   5 -11   50.84   59.90
 -11  -5  11   77.26   43.90
 -11  -5  11   68.57   82.46
  11   4 -11  185.60   60.95
  11   4 -11  101.86   38.54
 -11  -4  11  143.62   49.52
 -11  -4  11  152.50   79.83
  11   3 -11   22.53   28.56
  11   3 -11   16.55   52.34
 -11  -3 -11  -11.06   66.95
 -11  -3  11  -94.90   65.85
 -11  -3  11  -13.04   72.65
 -11  -3  11   21.31   44.40
  11   3  11  252.05   79.91
 -11  -3  11   37.16   40.64
  11   2 -11   42.90   30.58
 -11  -2 -11   51.84   68.67
  11   2 -11  -16.80   30.75
  11   2 -11   40.25   51.84
  11   2 -11   64.80   62.57
  11   2  11  -13.72   37.17
  11   2  11   84.50   83.55
 -11  -2  11    4.92   79.92
 -11  -2  11   14.16   47.44
 -11  -2  11  -12.51   72.01
  11   1 -11   -9.01   28.08
  11   1 -11  -43.92   64.27
 -11  -1 -11    4.89   67.84
  11   1 -11   38.19   33.53
  11   1 -11  -64.83   59.25
  11   1  11   48.19   82.97
 -11  -1  11  -46.40   49.19
  11   1  11    4.28   34.32
 -11  -1  11   -5.78   92.68
 -11  -1  11    9.59   80.42
  11   0 -11  356.92   69.71
 -11   0 -11  443.99   91.64
  11   0 -11  202.76   67.87
 -11   0  11  554.78  144.68
  11   0  11  535.20  115.00
  11   0  11  476.63   62.77
 -11   0  11  237.49   94.10
  11  -1 -11   10.58   39.50
 -11   1 -11   20.56   77.93
  11  -1 -11  -21.61   45.29
  11  -1  11    4.06   35.67
  11  -1  11    6.21   90.79
 -11   2 -11   26.79   56.20
 -11   2 -11  -37.54   81.30
  11  -2  11   90.29   37.78
  11  -2  11    6.26   95.07
 -11   3 -11  -45.58   56.57
 -11   3 -11  -39.33   93.37
  11  -3  11  -73.84   38.38
  11  -3  11  108.45   92.65
 -11   4 -11   84.47   96.81
 -11   4 -11   98.26   71.59
  11  -4  11  460.93   94.81
  11  -4  11  139.56   46.23
 -11   5 -11  -19.13  107.13
 -11   5 -11   66.15   64.48
  11  -5  11  195.25   91.27
  11  -5  11   71.32   42.29
 -11   6 -11  139.13   65.36
 -11   6 -11  -53.19  117.01
  11  -6  11  -62.97   83.57
  11  -6  11   24.76   44.35
  12   9 -11    5.84   76.29
 -12  -9  11  108.30  109.87
  12   8 -11   77.67   71.72
  12   8 -11   53.46   49.70
 -12  -8  11   28.55   51.12
 -12  -8  11  270.32  101.44
  12   4 -11   40.82   34.45
  12   4 -11   72.53   54.96
 -12  -4  11   10.94   44.74
 -12  -4  11  -27.20   80.33
  12   3 -11   20.82   27.52
  12   3 -11   17.65   57.17
 -12  -3  11  -19.20   78.36
 -12  -3  11   38.91   42.25
  12   3  11   -6.61   83.90
  12   2 -11  -25.62   65.42
  12   2 -11  -14.72   31.16
  12   2 -11   14.22   58.15
  12   2 -11  -30.08   31.06
 -12  -2  11  -36.92   81.06
 -12  -2  11   57.60   50.87
 -12  -2  11  -32.16   85.14
  12   1 -11   46.93   37.33
  12   1 -11  128.79   69.20
  12   1 -11    5.31   63.15
  12   1 -11   61.17   34.14
 -12  -1  11   45.31   53.80
 -12  -1  11  154.66   92.17
 -12  -1  11   24.85  100.39
  12   0 -11   -9.83   36.33
  12   0 -11    5.70   66.74
  12   0 -11  -24.82   44.31
 -12   0 -11 -117.40   83.19
  12   0  11   40.80   38.35
 -12   0  11  -54.35   59.00
 -12   1 -11   23.10   86.90
  12  -1 -11  121.83   48.64
  12  -1  11   72.73   37.20
 -12   2 -11  -23.99  100.19
  12  -2  11   -9.18   38.18
 -12   3 -11   56.28   98.52
  12  -3  11   -4.82   41.68
 -12   4 -11  126.25  108.90
  12  -4  11  -34.97   45.72
 -12   7 -11   16.00   69.93
  12  -8  11   48.00   55.82
  13  10 -11   51.13   92.85
 -13 -10  11 -126.29  115.14
  13   8 -11   18.60   42.19
  13   8 -11  -17.41   77.55
 -13  -8  11   14.68   49.41
 -13  -8  11 -146.10  110.41
 -13  -7  11   76.73   52.00
 -13   5 -11  -32.75   79.75
 -13   5 -11  -23.06  129.44
  13  -5  11  -11.38   53.41
  13  -5  11  140.51  115.41
 -13   6 -11   -8.01  128.11
 -13   6 -11    8.54   84.66
  13  -6  11  -23.93   52.06
  13  -6  11   54.56  104.74
 -13   7 -11   -8.25  137.76
 -13   7 -11   17.59   81.49
  13  -7  11   48.90   53.87
  13  -8  11  -38.58   55.85
 -14  -3 -11   21.61   94.44
  14   3  11   31.15   47.92
  14   3  11  -39.70  114.60
 -14  -2 -11  -13.58   96.50
  14   2  11   31.83  117.48
  14   2  11  155.45   50.09
  14   1 -11    5.11   42.15
 -14  -1 -11   67.69   92.93
 -14  -1  11  187.21  117.76
  14   1  11 -178.40  113.58
  14   1  11   52.52   43.49
 -14   0 -11   20.90  104.38
  14   0  11   -8.27  119.49
  14   0  11   80.38   49.22
 -14   1 -11  122.14  112.44
 -14   1 -11   36.78   74.93
  14  -1  11   50.76   52.17
  14  -1  11  -41.83  119.63
  14  -2 -11   92.93   59.17
 -14   2 -11   53.87   85.03
 -14   2 -11   29.80  133.80
  14  -2  11  -68.86  139.97
  14  -2  11   17.28   50.57
 -14   3 -11  -61.59  119.31
 -14   3 -11 -137.95   84.95
  14  -3  11   -8.70  128.62
  14  -3  11   17.69   53.48
 -14   4 -11   48.19  126.07
 -14   4 -11    8.67   87.68
  14  -4  11  168.39  122.62
  14  -4  11   78.95   57.95
 -14   5 -11 -108.84   88.94
 -14   5 -11   50.42  135.28
  14  -5  11   37.35   57.07
  14  -5  11 -147.03  120.83
 -14   6 -11   87.46  143.64
 -14   6 -11   66.20   89.85
  14  -6  11  116.07   57.59
  14  -6  11 -129.80  117.11
 -14   8 -11 -185.38  150.93
  14  -8  11   61.53   61.13
 -15  -4 -11   -8.22  103.59
 -15  -3 -11  -31.76  103.19
  15   3  11   51.83  131.62
  15   3  11   82.21   48.42
 -15  -2 -11  127.81  105.31
  15   2  11 -263.38  137.34
  15   2  11  -33.05   50.54
 -15  -1 -11  -75.26  111.31
 -15  -1  11    7.46   68.06
  15   1  11 -179.44  127.75
 -15  -1  11    7.08  116.44
  15   1  11  123.07   56.98
  15   0 -11  153.40   97.88
 -15   0 -11  -57.14   87.61
  15   0 -11   12.78   55.61
 -15   0 -11  -61.89  115.66
 -15   0  11  230.43  139.67
  15   0  11   -6.38   53.18
  15   0  11   45.16  129.13
 -15   0  11  171.53   82.69
 -15   1 -11  -41.12   82.69
 -15   1 -11  -23.94  122.87
  15  -1 -11    7.23   65.48
  15  -1  11   37.04  137.31
 -15   1  11 -105.11  164.85
  15  -1  11  131.39   58.24
 -15   2 -11 -247.76  132.81
  15  -2 -11 -193.13   72.01
 -15   2 -11 -103.36   91.49
  15  -2  11  104.28  135.32
  15  -2  11  -51.15   59.30
 -15   3 -11  -93.37  139.12
 -15   3 -11   90.01   96.29
  15  -3  11 -106.17  148.10
  15  -3  11  -64.80   55.41
 -15   6 -11 -142.17  154.03
 -15   6 -11  -41.92  100.86
  15  -6  11  153.31  136.70
  15  -6  11  146.28   64.21
 -15   7 -11   39.18  162.19
 -15   7 -11   32.13   95.09
  15  -7  11   57.74   64.30
 -15   8 -11  151.32  166.01
  15  -8  11  -96.14   64.41
 -16  -4 -11  -36.18  114.06
  16   4  11   -9.42  138.69
 -16  -3 -11   78.92  121.43
  16   3  11   30.21   54.46
  16   3  11 -218.28  138.90
 -16  -2 -11 -133.40  118.45
  16   2  11  164.51  137.47
  16   2  11  -87.84   59.37
  16   1  11  -14.36   58.20
  16   1  11   98.22  152.48
 -16   0 -11  -54.22   90.22
 -16   0  11  144.23  148.23
  16   0  11   69.38  149.64
 -16   1 -11   18.32   98.09
  16  -1  11  154.60   60.64
 -16   1  11   93.59  172.75
  16  -1  11  -20.44  152.26
 -16   2 -11 -220.94  102.65
  16  -2 -11    8.95   78.27
 -16   2 -11  -18.19  136.65
  16  -2  11  -10.37  151.74
  16  -2  11  -63.57   56.41
 -16   3 -11  -37.41  151.76
 -16   3 -11  173.38  104.86
  16  -3  11  -35.44   54.61
  16  -3  11  -42.77  155.48
 -16   4 -11   19.12  149.56
 -16   4 -11  -74.91  101.34
  16  -4  11   79.98   62.57
  16  -4  11  137.77  148.32
 -16   5 -11  138.93  164.68
 -16   5 -11  -33.64  119.35
  16  -5  11   29.79   66.61
  16  -5  11  -10.51  143.91
 -16   6 -11  196.99  111.02
 -16   6 -11 -175.05  172.11
  16  -6  11   22.74   65.25
  16  -6  11   10.57  135.49
 -16   7 -11   35.45  108.52
 -16   7 -11   85.41  173.22
  16  -7  11  109.39   68.00
 -17  -4 -11  -69.89  124.07
  17   4  11  -31.20  146.34
 -17  -3 -11  -38.85  132.91
  17   3  11   10.55  156.91
  17   3  11    8.35   63.62
 -17  -2 -11  -18.52  128.56
  17   2  11 -106.06  148.27
  17   2  11   24.31   62.63
 -17  -1 -11    9.25  130.31
 -17  -1 -11   90.61  110.87
  17   1  11  -10.72  152.51
  17   1  11  119.44   52.84
 -17   0 -11   20.04  110.94
 -17   0 -11   56.94  139.76
 -17   0  11  -58.62  169.47
  17   0  11 -126.43   63.85
 -17   0  11  -46.18   85.11
  17   0  11  219.06  171.37
  17  -1 -11  -17.10   71.39
 -17   1 -11  229.37  113.61
 -17   1 -11    9.76  148.26
 -17   1  11   45.23  186.91
  17  -1  11   38.90   66.23
  17  -1  11   89.86  171.20
 -17   2 -11   21.76  117.40
 -17   2 -11  -70.09  159.70
  17  -2  11  263.11  178.87
  17  -2  11  -23.48   62.99
 -17   3 -11 -164.16  156.04
 -17   3 -11  113.35  111.46
  17  -3  11  164.33  171.01
  17  -3  11  -94.52   66.02
 -17   4 -11  -31.48  168.49
 -17   4 -11   60.11  110.45
  17  -4  11  -55.82   63.08
  17  -4  11   92.72  158.11
 -17   7 -11  253.85  190.93
 -17   7 -11  -13.08  105.65
  17  -7  11 -160.16   73.04
 -17   8 -11   23.88  197.76
  17  -8  11   -8.72   71.49
 -18  -4 -11  254.10  145.25
  18   4  11   11.48  164.54
  18   3  11   18.52   71.12
  18   3  11 -115.81  176.72
 -18   3 -11  -12.79  125.36
  18  -3  11  -52.02   78.43
  18  -3  11  -64.08  178.76
 -18   4 -11 -159.61  129.34
 -18   4 -11  126.58  181.60
  18  -4  11   25.40  176.77
  18  -4  11   -8.71   70.39
 -18   5 -11   23.41  187.23
 -18   5 -11  218.51  133.94
  18  -5  11   79.63   80.14
  18  -5  11 -127.05  186.29
 -18   6 -11 -155.67  145.84
 -18   6 -11  254.08  195.91
  18  -6  11 -128.62  180.27
  18  -6  11  -18.05   79.55
 -18   7 -11  -50.13  206.01
 -18   7 -11  -43.35  132.12
  18  -7  11 -174.52   81.52
 -19  -3 -11  419.75  167.36
  19   3  11  -10.28   82.71
 -19  -2 -11  -35.19  166.35
  19   2  11   50.83   74.66
 -19  -1 -11   11.41  167.68
 -19  -1 -11 -137.57  137.31
  19   1  11  -20.06   84.79
 -19   0 -11   11.61  180.81
 -19   0 -11  -12.83  123.61
  19   0  11  -79.79  197.85
  19   0  11    9.72   82.52
 -19   1 -11 -237.72  174.16
 -19   1 -11   13.29  148.28
  19  -1  11    9.50   83.69
  19  -1  11   40.47  202.44
 -19   2 -11  169.58  185.55
 -19   2 -11  178.01  135.51
  19  -2  11  -37.75   76.50
  19  -2  11 -125.19  197.86
 -19   3 -11   74.33  191.42
 -19   3 -11   28.48  138.84
  19  -3  11  -47.73   74.67
 -19   4 -11   12.60  199.71
 -19   4 -11  -44.05  130.41
  19  -4  11  237.12   86.67
 -19   5 -11 -141.24  204.43
  19  -5  11  -38.73   83.37
   0   0  12 4682.26 1050.80
   0   1 -12  -30.19   20.37
   1   0 -12    8.16   24.68
   1   0 -12  -40.96   31.58
   0   1 -12  -27.55   28.02
  -1   0 -12  -20.53   22.01
   0  -1  12  -55.88   42.95
  -1   0  12   38.68   47.30
   1  -1  12 1191.36  232.44
   2   1 -12   46.19   30.40
  -1   2 -12  -33.68   17.21
  -1   2 -12   -2.34   25.00
   2   1 -12   -2.32   20.64
  -2  -1  12    3.40   46.72
   1  -2  12   11.51   19.52
   2   0 -12  316.29   58.75
   0   2 -12  224.46   49.23
   0   2 -12  349.58   54.54
   2   0 -12  212.95   49.67
   0  -2  12  160.02   65.06
  -2   0  12  248.18   78.19
   0  -2  12  244.12   51.47
   1   2 -12  -14.14   19.41
   1   2 -12   23.17   28.57
  -1  -2  12   12.70   38.45
   2  -1  12    9.79   23.71
   2   2 -12  374.76   54.72
  -2   2 -12  209.93   56.08
   2   2 -12  301.64   62.64
  -2  -2  12  292.23   73.63
   2  -2  12  275.45   62.95
   3   2 -12   -6.39    7.35
   3   2 -12   37.40   30.81
  -2   3 -12  -12.64   11.81
  -2   3 -12    5.81   13.50
  -2   3 -12   -5.87   20.30
   2  -3  12    2.15   11.32
  -3  -2  12    2.84   39.53
   2  -3  12   47.20   24.02
   3   1 -12   71.63   36.19
  -1   3 -12   80.34   16.01
  -1   3 -12   32.87   18.50
  -1   3 -12   61.48   27.30
  -1   3 -12   63.35   17.31
   1  -3  12   32.84   19.76
   1  -3  12   70.51   32.89
  -3  -1  12   21.27   56.30
   1  -3  12   54.05   15.20
   0   3 -12   -1.71   16.97
   0   3 -12    4.49   24.54
   3   0 -12   28.34   34.05
   3   0  12   12.63   23.65
  -3   0  12   -4.30   55.76
   0  -3  12   19.13   32.85
  -3   1 -12  110.67   27.39
   1   3 -12  123.89   29.52
   1   3 -12   50.53   19.89
  -1  -3  12   45.18   34.73
   3  -1  12  115.63   43.52
   3  -1  12   53.51   30.71
   2   3 -12   -4.00   18.49
   2   3 -12   10.10   27.24
  -3   2 -12   24.19   23.62
  -3   2 -12    6.50   27.54
   3  -2  12   25.00   33.06
   3  -2  12  -13.22   32.27
   3  -2  12    8.12   15.07
  -2  -3  12  -39.83   37.29
  -1   4 -12    3.15   15.48
   4   1 -12  -24.15   38.57
  -1   4 -12   10.67   14.77
  -4  -1  12    7.51   53.46
   1  -4  12  -13.90   30.80
   0   4 -12   10.19   16.80
   4   0 -12   11.51   25.75
   4   0 -12   26.41   38.05
   0   4 -12   -4.51   25.95
  -4   0 -12   51.41   21.74
   0  -4  12   27.50   32.85
  -4   0  12   63.21   58.18
   0  -4  12   34.23   21.44
   4   0  12   -2.53   34.14
   4   4 -12  412.84   71.83
  -4   4 -12  239.08   82.64
   4   4 -12  432.58   82.26
   4  -4  12  351.00   67.80
  -4  -4  12  501.77   98.94
  -4  -4  12  440.58   77.37
  -4   5 -12  426.32   81.86
   5   4 -12  383.59   78.72
  -4   5 -12  483.13   77.97
   5   4 -12  288.32   67.43
  -5  -4  12  471.51   73.36
   4  -5  12  418.49   76.75
  -5  -4  12  390.00   96.93
   5   3 -12   40.32   27.28
  -3   5 -12   14.05   27.86
   5   3 -12   56.87   24.98
  -3   5 -12   66.05   21.98
   5   3 -12   96.49   39.70
   5   3 -12   81.24   15.90
  -5  -3  12   37.51   24.52
   3  -5  12   52.49   22.70
  -5  -3  12   86.63   31.54
  -5  -3  12   74.83   47.05
   3  -5  12   77.49   19.32
   5   2 -12 2112.11  365.65
  -2   5 -12 1994.55  335.94
   5   2 -12 2104.98  287.44
  -2   5 -12 2035.20  369.33
   2  -5  12 1907.55  346.16
   2  -5  12 1658.25  334.04
  -5  -2  12 1876.36  413.85
  -5   2 -12 2157.88  326.37
  -5   2 -12 2053.16  381.06
  -5   2 -12 1805.77  346.69
   5  -2  12 1759.49  458.91
   5  -2  12 1788.58  377.49
  -2  -5  12 2123.39  337.98
  -5   3 -12   66.47   29.40
  -5   3 -12   60.76   17.80
  -5   3 -12  207.17   37.98
  -5   3 -12   67.90   28.32
   3   5 -12   59.57   23.32
   3   5 -12   11.26   33.63
  -3  -5  12  110.03   47.97
  -3  -5  12   41.38   28.54
   5  -3  12  115.21   44.19
   5  -3  12  122.58   20.11
   5  -3  12   44.18   34.32
   5  -3  12   75.59   19.76
  -5   4 -12  387.78   82.00
  -5   4 -12  323.21   75.03
   4   5 -12  338.18   77.97
  -5   4 -12  463.02   80.94
   5  -4  12  356.55   86.95
   5  -4  12  381.09   80.46
   5  -4  12  507.11   64.52
  -4  -5  12  352.97   97.77
   5   5 -12  325.96   67.32
  -5   5 -12  271.16   71.27
   5   5 -12  352.52   54.52
  -5   5 -12  355.26   68.25
  -5  -5  12  325.18   82.17
   5  -5  12  254.91   65.46
   5  -5  12  302.05   54.12
   5  -5  12  273.09   63.52
  -5  -5  12  348.61   60.59
  -5   6 -12  110.63   30.31
   6   5 -12   95.91   45.26
   6   5 -12   34.09   27.79
  -6  -5  12   39.93   57.77
   5  -6  12   71.57   27.38
  -6  -5  12  156.27   38.83
   6   4 -12  418.77   85.43
   6   4 -12  417.28   99.77
  -4   6 -12  549.84  101.67
  -6  -4  12  247.97  120.14
   4  -6  12  545.61  103.68
  -6  -4  12  476.55   92.90
   6   3 -12 1316.08  246.16
  -3   6 -12 1720.99  326.85
   6   3 -12 1361.42  334.97
  -3   6 -12 1328.09  306.14
   6   3 -12 1834.49  263.49
   3  -6  12 1665.47  307.22
  -6  -3  12 1623.55  262.81
  -2   6 -12  294.00   83.01
   6   2 -12  539.48   89.56
   6   2 -12  394.33   62.42
  -2   6 -12  446.72   82.06
   6   2 -12  248.08   72.23
   2  -6  12  418.18   77.49
   2  -6  12  318.43   79.97
  -6  -2  12  386.88  103.38
  -1   6 -12  305.05   56.59
  -1   6 -12  235.10   50.76
   6   1 -12  277.73   46.89
   6   1 -12  321.43   49.12
   6   1 -12  120.07   68.26
   6   1  12  308.79   67.06
   1  -6  12  324.89   53.24
   1  -6  12  240.49   50.30
  -6  -1  12  368.96   89.53
   6   0 -12 3469.33  579.94
  -6   0 -12 2687.71  481.36
  -6   0 -12 3150.77  653.51
   6   0  12 3367.55  561.43
   6   0  12 3419.00  469.45
   1   6 -12  308.19   48.07
  -6   1 -12  438.29   57.22
  -6   1 -12  249.32   53.82
   1   6 -12  287.74   58.03
   6  -1  12  231.56   45.37
   6  -1  12  231.43   73.13
  -1  -6  12  164.11   52.19
   2   6 -12  416.48   82.65
   2   6 -12  498.50   70.42
  -6   2 -12  417.03   86.07
  -6   2 -12  394.75   74.02
  -6   2 -12  443.08   79.27
   6  -2  12  540.21   96.46
  -2  -6  12  485.64   77.21
   6  -2  12  353.44   73.70
   6  -2  12  460.48   64.95
  -6   3 -12 1545.24  320.57
  -6   3 -12 1772.05  313.18
  -6   3 -12 1680.38  272.33
  -3  -6  12 1897.81  274.51
   6  -3  12 1705.24  240.85
   6  -3  12 1413.61  300.02
  -6   4 -12  513.90  103.79
  -6   4 -12  547.39  103.94
   4   6 -12  367.56   99.22
  -6   4 -12  483.83   96.11
   6  -4  12  482.21  101.88
   6  -4  12  563.36   82.91
   5   6 -12  114.05   44.08
  -6   5 -12   51.58   57.03
   5   6 -12   63.12   28.49
  -6   5 -12   73.05   39.61
  -5  -6  12   52.41   37.62
   6  -5  12  100.43   47.90
   6  -5  12  111.74   28.57
   6   6 -12  160.63   41.83
  -6   6 -12  171.16   55.07
   6   6 -12  194.30   57.62
  -6  -6  12   65.06   72.48
  -6  -6  12  214.30   50.30
   6  -6  12  217.95   43.08
   7   6 -12   77.44   48.65
   7   6 -12   61.19   32.04
   6  -7  12   54.25   31.94
  -7  -6  12  158.14   68.21
  -7  -6  12   85.24   40.91
   7   5 -12  457.14   90.66
  -5   7 -12  282.22   84.79
   7   5 -12  402.99   71.57
  -7  -5  12  339.26  112.24
  -7  -5  12  441.99   80.64
   5  -7  12  472.55   78.08
   7   4 -12   36.02   28.36
  -4   7 -12  122.91   33.39
   7   4 -12   66.03   46.64
  -7  -4  12  105.93   54.96
  -7  -4  12   18.43   35.86
   4  -7  12  102.05   26.78
   7   3 -12  230.47  104.42
   7   3 -12  575.94   91.94
  -3   7 -12  607.33  103.25
  -7  -3  12  505.81  124.57
  -2   7 -12  499.20   76.47
   7   2 -12  312.50   86.81
   7   2 -12  364.46   69.32
  -7  -2  12  472.52  104.10
   2  -7  12  427.77   79.41
   7   1 -12  418.58   86.77
  -7  -1 -12  696.57   97.54
   7   1 -12  520.03   84.89
   7   1 -12  573.52  114.52
  -1   7 -12  459.33   97.14
  -1   7 -12  568.88  101.88
   7   1  12  591.39  108.06
   7   1  12  695.79   88.64
  -7  -1  12  320.96  141.48
   1  -7  12  501.35  100.14
  -7   0 -12   -9.60   40.69
   7   0 -12   64.29   50.72
   7   0 -12   -9.57   26.90
   0   7 -12   31.71   33.06
   7   0 -12   12.18   29.90
   0   7 -12    5.35   26.67
  -7   0  12  -10.99   78.09
   7   0  12   23.85   23.48
   0  -7  12  -25.02   28.73
   7   0  12   55.98   52.35
  -7   1 -12  504.20   95.60
   1   7 -12  562.42   92.57
   1   7 -12  265.27   95.84
   7  -1  12  414.38   79.59
   7  -1  12  641.89  118.56
  -1  -7  12  337.18   95.40
   2   7 -12  306.67   69.96
  -7   2 -12  470.23   79.40
   2   7 -12  476.29   75.75
   7  -2  12  559.03   95.99
  -2  -7  12  491.27   73.34
   7  -2  12  380.52   60.99
   3   7 -12  548.22   90.76
   3   7 -12  419.02  100.14
  -7   3 -12  484.25  110.53
  -7   3 -12  589.14  103.97
   7  -3  12  560.32   83.75
   7  -3  12  351.35  114.67
  -3  -7  12  351.90   95.19
   4   7 -12   42.63   40.77
  -7   4 -12   79.74   58.75
  -7   4 -12   54.72   38.43
   7  -4  12   38.62   56.31
   7  -4  12   89.80   27.27
   5   7 -12  286.40   70.75
  -7   5 -12  274.13  101.10
   5   7 -12  398.67   85.74
  -7   5 -12  381.88   90.83
   7  -5  12  370.75   87.35
  -5  -7  12  561.87   79.38
   7  -5  12  465.88   74.42
  -7   6 -12    4.55   43.15
   6   7 -12   56.83   47.00
   6   7 -12   77.19   33.19
  -6  -7  12   38.18   36.90
   7  -6  12   69.34   53.80
   7  -6  12  125.93   32.37
   8   7 -12   13.58   35.13
   8   7 -12   39.05   55.96
  -8  -7  12  110.39   44.96
   7  -8  12   22.72   35.91
  -8  -7  12   80.43   74.53
   8   5 -12   74.21   49.36
  -4   8 -12  938.90  180.05
   8   4 -12  884.35  181.80
  -8  -4  12  845.82  221.09
  -8  -4  12 1063.36  172.32
   8   3 -12   75.72   34.69
   8   3 -12   62.49   49.89
  -3   8 -12  115.02   38.71
  -8  -3  12  171.43   64.15
   8   2 -12  580.14   71.48
   8   2 -12  514.92  107.97
   8   2 -12  366.88   83.93
  -2   8 -12  492.42   89.45
   8   2 -12  425.05  104.17
  -8  -2  12  277.05   88.98
  -8  -2  12  323.41  117.70
  -8  -2  12  541.73  125.94
   8   2  12  459.29  101.97
  -8  -1 -12  143.63   58.90
   8   1 -12  158.41   65.34
  -1   8 -12  165.70   45.96
   8   1 -12  176.54   40.14
   8   1 -12  205.55   45.20
   8   1  12  268.21   68.89
  -8  -1  12  245.86   91.20
   8   1  12  113.65   41.96
   8   0 -12  542.07  108.60
   0   8 -12  615.04  115.32
   8   0 -12  344.18  149.36
  -8   0 -12  650.94  113.93
   8   0 -12  661.71  116.88
  -8   0  12  587.60  194.69
   0  -8  12  731.65  125.13
   8   0  12  563.75  141.61
   8   0  12  729.45  100.89
   1   8 -12  220.79   47.13
   8  -1 -12   72.88   46.76
   1   8 -12  177.10   47.44
  -8   1 -12  258.91   62.35
  -1  -8  12  198.35   51.74
   8  -1  12  283.34   80.13
   8  -1  12  244.71   39.00
   2   8 -12  562.34   86.86
  -8   2 -12  541.74   95.61
   2   8 -12  321.55   87.26
   8  -2  12  396.83  114.79
   8  -2  12  403.42   74.11
  -2  -8  12  579.61   91.03
  -8   3 -12  216.14   49.28
   3   8 -12  134.23   45.14
   3   8 -12  126.05   37.25
  -8   3 -12  148.03   58.73
  -3  -8  12   54.63   43.28
   8  -3  12  129.46   68.19
   8  -3  12  156.51   33.66
   4   8 -12 1123.06  167.10
  -8   4 -12  592.43  188.65
  -8   4 -12  633.55  198.21
   8  -4  12 1059.11  188.21
   8  -4  12  950.22  157.34
  -8   5 -12  -45.31   73.28
   7   8 -12   55.50   37.08
   7   8 -12    4.20   55.48
  -7  -8  12   12.01   48.57
   8  -7  12   55.52   36.24
   8   8 -12   -3.86   42.21
   8   8 -12    4.53   57.06
  -8  -8  12    4.18   44.55
   8  -8  12  -29.43   39.62
   9   8 -12    4.83   59.47
   9   7 -12   21.86   35.95
   9   7 -12   60.75   61.08
  -9  -7  12    3.97   41.20
  -9  -7  12    4.79   79.60
   9   6 -12   96.86   34.61
   9   6 -12    4.39   56.18
  -9  -6  12   75.08   75.30
  -9  -6  12   22.38   43.18
   9   5 -12  354.82   87.44
   9   5 -12  310.64   66.69
  -9  -5  12  417.49   76.05
  -9  -5  12  474.81  114.89
   9   2 -12   31.58   22.80
   9   2 -12   70.55   48.70
   9   2 -12   14.30   31.47
  -9  -2 -12  114.32   56.51
   9   2 -12   63.44   52.14
  -9  -2  12   50.00   73.32
  -9  -2  12   90.18   58.35
   9   2  12   58.24   70.21
  -9  -2  12   86.24   40.62
   9   1 -12  167.99   77.12
   9   1 -12  266.57   52.22
  -9  -1 -12  400.61   69.02
   9   1 -12  281.62   48.30
  -9  -1  12  302.58  104.83
   9   1  12  332.28   89.69
   9   1  12  265.92   48.67
  -9  -1  12  215.63   73.01
   9   0 -12   -3.83   31.26
   9   0 -12  -12.86   34.34
  -9   0 -12   -3.97   52.77
   9   0 -12  -78.97   57.89
  -9   0  12   12.57   88.17
   9   0  12  -27.99   27.69
   9   0  12  -15.19   68.67
   9  -1 -12  213.95   60.74
  -9   1 -12  249.56   71.50
   9  -1 -12  223.19   54.76
   9  -1  12  130.84   45.03
   9  -1  12  452.72   90.12
  -9   2 -12  -17.44   44.97
  -9   2 -12    8.32   60.83
   9  -2  12   25.62   77.13
   9  -2  12   39.07   29.30
  -9   5 -12  326.39  108.99
   5   9 -12  165.09   76.20
  -9   5 -12  290.31   88.79
   9  -5  12  378.73   95.80
   9  -5  12  278.72   69.87
  -5  -9  12  374.81   75.16
  -9   6 -12   78.54   53.27
   6   9 -12    4.00   46.54
   6   9 -12    4.04   37.98
  -6  -9  12   59.20   44.66
   9  -6  12   32.50   37.51
   9  -6  12   50.09   68.33
   7   9 -12   68.76   55.90
   9  -7  12  -44.02   40.77
   9  -8  12   22.95   41.00
  10   9 -12    4.70   47.94
 -10  -9  12   54.43   57.85
  10   7 -12   34.57   66.19
 -10  -7  12  -87.89   89.61
 -10  -7  12   -4.14   39.77
  10   6 -12   26.96   35.63
  10   6 -12   14.03   59.92
 -10  -6  12  -15.56   46.45
 -10  -6  12  -23.91   79.37
  10   5 -12  103.58   61.57
  10   5 -12  163.11   39.19
 -10  -5  12  110.52   78.58
 -10  -5  12  174.42   52.06
  10   4 -12  325.77   65.34
  10   4 -12  164.13   81.28
 -10  -4  12  321.71   73.12
 -10  -4  12  226.32  102.29
  10   3 -12   -2.94   30.71
  10   3 -12   25.14   54.38
 -10  -3  12   13.66   41.68
 -10  -3  12  -34.83   74.28
  10   2 -12   23.91   32.81
  10   2 -12   72.09   53.27
 -10  -2  12    3.67   65.02
 -10  -2  12   47.94   45.86
  10   2  12   92.04   34.53
  10   2  12  -21.81   76.04
 -10  -2  12   -9.82   76.66
 -10   2 -12   53.80   48.97
  10  -2  12   33.19   34.62
  10  -2  12   22.91   85.10
 -10   3 -12   39.52   74.21
 -10   3 -12   80.48   51.39
  10  -3  12   -7.62   34.83
  10  -3  12  104.25   82.73
 -10   4 -12  519.88  106.18
 -10   4 -12  321.22   92.90
  10  -4  12  373.52   64.05
  10  -4  12  417.18  108.91
 -10   5 -12  130.77   63.44
 -10   5 -12  108.47   96.71
  10  -5  12   38.41   44.52
  10  -5  12  146.52   85.54
 -10   6 -12    6.00   93.81
 -10   6 -12  -12.46   61.15
  10  -6  12   49.52   39.35
  10  -6  12   67.36   74.30
 -10   7 -12   58.98   58.78
  10  -7  12   47.77   44.50
   9  10 -12    5.14   63.89
  10  10 -12   11.14   72.83
  11  10 -12   -5.97   74.05
  11   9 -12    5.78   76.35
 -11  -9  12   43.25  108.44
 -11  -9  12   -5.18   55.36
  11   8 -12  300.01   75.19
 -11  -8  12    4.72   55.62
 -11  -8  12  346.91   96.91
  11   6 -12  -14.67   65.19
  11   6 -12  -24.57   36.80
 -11  -6  12   76.93   38.78
 -11  -6  12  -31.18   87.32
  11   5 -12   94.39   60.24
  11   5 -12   49.98   35.63
 -11  -5  12   35.71   48.83
 -11  -5  12   77.01   81.27
  11   4 -12   -4.35   52.32
  11   4 -12   25.80   35.04
 -11  -4  12  109.89   75.08
 -11  -4  12    7.46   43.61
  11   3 -12   49.25   59.63
  11   3 -12   12.17   36.76
 -11  -3  12   57.60   79.28
 -11  -3  12  110.87   44.85
  11   2 -12   71.44   59.93
  11   2 -12  -18.48   27.86
 -11  -2 -12    5.36   66.93
  11   2  12   98.73   82.37
  11   2  12   -4.72   38.65
 -11  -2  12   31.98   82.84
  11   1 -12   37.83   34.30
  11   1 -12   22.60   35.02
  11   1 -12    9.86   63.87
  11   1 -12  126.81   63.71
 -11  -1 -12  109.37   72.66
 -11  -1  12   66.49   84.60
 -11  -1  12   15.81   50.51
  11   1  12   98.98   84.16
  11   1  12  111.52   37.28
 -11  -1  12   55.34   94.71
  11   0 -12  -64.28   38.26
 -11   0 -12   34.92   72.05
  11   0 -12    3.40   39.14
  11   0  12    4.23   33.70
  11   0  12   49.71   92.10
 -11   0  12  -71.51  105.70
 -11   1 -12   35.87   75.77
  11  -1 -12   26.64   41.33
  11  -1 -12  103.98   44.17
  11  -1  12   -4.12   32.06
  11  -1  12   70.46   94.63
 -11   2 -12   -5.49   61.96
 -11   2 -12   -5.34   78.02
  11  -2  12   33.25   37.67
  11  -2  12  108.68   93.90
 -11   3 -12   16.69   88.07
 -11   3 -12  -28.89   58.24
  11  -3  12  149.79   92.77
  11  -3  12   47.02   39.22
 -11   4 -12   29.60   96.73
 -11   4 -12   62.29   66.06
  11  -4  12   78.57   98.50
  11  -4  12   22.49   38.39
 -11   5 -12   95.13  103.88
 -11   5 -12  -20.00   66.33
  11  -5  12  104.03   47.21
  11  -5  12  158.73   91.92
 -11   6 -12   90.32   70.66
 -11   6 -12   33.11  108.33
  11  -6  12  -19.81   40.29
  11  -6  12    6.28   80.13
  12   9 -12  -55.63   81.24
 -12  -9  12    5.35   54.43
 -12  -9  12 -145.86  111.84
  12   8 -12  -88.19   75.14
  12   8 -12   50.16   47.72
 -12  -8  12    4.89   56.62
 -12  -8  12  -31.56  109.99
  12   7 -12  -16.50   42.08
 -12  -7  12   26.90   50.65
  12   3 -12   43.92   35.15
  12   3 -12  -37.78   61.46
 -12  -3  12   83.02   47.24
 -12  -3  12  134.46   89.52
  12   3  12   33.74   92.12
  12   2 -12   -6.38   32.58
  12   2 -12  -20.22   62.01
 -12  -2  12   45.87   86.72
  12   1 -12  -78.78   65.78
  12   1 -12  -10.81   69.15
  12   1 -12  -12.60   37.32
  12   1 -12   16.70   31.33
 -12  -1  12   -6.59   97.21
 -12  -1  12  216.11   90.30
 -12  -1  12  -11.62   55.78
  12   0 -12   74.27   40.67
  12   0 -12   59.70   43.01
  12  -1 -12   77.31   44.44
 -12   1 -12  -45.99   87.52
  12  -1 -12  -58.84   47.02
  12  -1  12  -32.29   37.13
 -12   2 -12 -101.86   94.76
  12  -2  12  -37.33   41.15
 -12   3 -12  -99.69  101.82
  12  -3  12   28.77   43.65
 -12   7 -12   23.83   74.02
  12  -7  12   -5.61   38.39
  12  -7  12  134.62   92.35
  12  -8  12  -58.98   53.68
  13  10 -12   20.35   92.98
 -13 -10  12 -102.52  123.35
 -13  -9  12   35.56  116.11
 -13  -9  12   -5.53   59.77
  13   7 -12   34.55   45.42
  13   7 -12   22.79   76.21
 -13  -7  12   75.73  103.07
 -13  -7  12   64.83   51.96
 -13  -6  12   47.95   49.68
 -13  -5  12  102.31   92.79
 -13   4 -12  151.32  118.42
 -13   4 -12  -46.68   78.50
  13  -4  12 -220.85  115.27
  13  -4  12  -27.80   49.81
 -13   5 -12    8.30   82.20
 -13   5 -12   22.87  123.70
  13  -5  12  -11.38   51.20
  13  -5  12  142.58  117.67
 -13   6 -12  111.85   85.14
 -13   6 -12  143.48  128.26
  13  -6  12  140.66  104.90
  13  -6  12    5.91   51.70
 -13   7 -12  164.38  131.60
 -13   7 -12   35.18   82.36
  13  -7  12   -7.86  105.12
  13  -7  12  -30.56   53.48
 -14  -3 -12   22.04   94.50
  14   3  12  -88.48   46.74
  14   3  12  -32.43  115.19
 -14  -2 -12   42.40  100.71
  14   2  12 -121.37  114.47
  14   2  12  122.93   50.88
 -14  -1 -12  -47.65   96.04
  14   1  12  190.64  136.37
  14   1  12  -47.09   49.55
 -14   0 -12   34.70   99.95
  14   0  12 -160.22  131.22
  14   0  12   11.63   50.46
 -14   1 -12   35.81  112.50
 -14   1 -12   37.58   85.52
  14  -1  12  -22.93   46.57
  14  -1  12  213.24  134.28
 -14   2 -12  -23.10   87.23
 -14   2 -12    7.42  123.78
  14  -2  12   98.44   53.75
  14  -2  12   61.48  139.54
 -14   3 -12   61.42  127.28
 -14   3 -12  173.98   87.10
  14  -3  12  135.17   55.14
  14  -3  12 -115.70  137.64
 -14   4 -12  -17.37   84.36
 -14   4 -12  -47.48  127.99
  14  -4  12  -36.18  134.96
  14  -4  12  109.43   56.26
 -14   5 -12  -24.88  138.32
 -14   5 -12  165.80  100.72
  14  -5  12  -35.06  125.61
  14  -5  12  262.11   64.56
 -14   6 -12  -57.24  100.48
 -14   6 -12    8.64  142.57
 -14   8 -12  -27.60  149.77
  14  -8  12   88.27   58.53
 -15  -2 -12  -62.50  107.11
  15   2  12  -53.39  128.78
  15   2  12  -27.14   54.16
 -15  -1 -12  120.96  109.84
  15   1  12  -19.58   51.09
  15   1  12 -172.95  138.01
 -15   0 -12  -46.28  111.62
 -15   0 -12  -50.04   89.47
  15   0  12  176.35  145.64
 -15   0  12  197.85   72.32
  15   0  12  -25.84   51.91
 -15   0  12  204.84  137.69
 -15   1 -12 -124.83   92.48
 -15   1 -12    7.96  121.40
  15  -1 -12   -7.28   60.88
  15  -1  12   12.75   55.29
  15  -1  12   -9.43  150.25
 -15   2 -12 -114.94  127.13
 -15   2 -12    8.75   91.84
  15  -2  12  -48.40  147.73
  15  -2  12    6.44   55.24
 -15   5 -12  -30.57  100.84
  15  -5  12   34.15   60.77
  15  -5  12    9.70  132.77
 -15   6 -12   -9.40  153.97
 -15   6 -12  190.14  105.91
  15  -6  12   34.83   64.58
  15  -6  12  115.95  123.37
 -15   7 -12   53.86  103.20
 -15   7 -12  116.99  157.14
  15  -7  12  -29.07  121.85
  15  -7  12   35.89   62.37
 -15   8 -12  150.22  163.43
  15  -8  12  -52.09   63.20
 -16  -3 -12  160.32  117.27
  16   3  12  -77.51  132.76
  16   3  12   30.57   57.76
 -16  -2 -12  103.86  121.70
  16   2  12   15.01   60.70
  16   2  12  157.08  140.84
 -16  -1 -12  -16.77  112.54
  16   1  12    7.39   56.27
  16   1  12   69.90  152.37
 -16   0 -12  111.34  126.11
 -16   0 -12  110.43   97.96
  16   0  12   10.09  151.57
  16   0  12    7.17   60.04
 -16   1 -12  -70.55  136.22
  16  -1 -12  -94.13   68.88
 -16   1 -12  -27.95  106.57
  16  -1  12 -249.01  154.62
 -16   1  12  -72.77  180.57
  16  -1  12   56.52   54.78
 -16   2 -12  117.84  139.70
 -16   2 -12   39.12  103.94
  16  -2  12    7.09   57.83
  16  -2  12  -95.08  166.08
 -16   3 -12 -149.22  143.55
 -16   3 -12  -10.39  101.05
  16  -3  12   14.37   62.72
  16  -3  12   76.07  149.46
 -16   4 -12  210.29  154.68
 -16   4 -12  108.79  103.50
  16  -4  12 -140.80  156.38
  16  -4  12  102.11   67.39
 -16   5 -12 -127.34  164.94
 -16   5 -12  -78.84  112.23
  16  -5  12   53.40  150.82
  16  -5  12  -37.51   64.37
 -16   6 -12   81.27  165.96
 -16   6 -12   11.71  111.01
  16  -6  12   45.53   65.21
  16  -6  12   96.30  140.37
 -17  -3 -12   88.74  128.50
  17   3  12   25.32   69.81
  17   3  12  138.90  155.29
 -17  -2 -12   -9.60  133.33
  17   2  12  -49.86   61.76
  17   2  12  141.01  155.26
 -17  -1 -12  158.03  131.65
 -17  -1 -12  409.56  109.28
  17   1  12   76.13  162.82
  17   1  12  -24.62   65.37
 -17   0 -12  -71.22  110.23
 -17   0 -12    9.48  138.32
  17   0  12   15.91   63.64
  17   0  12   88.89  159.65
 -17   1 -12 -155.97  151.21
 -17   1 -12   52.90  108.33
  17  -1  12  -70.34   63.87
  17  -1  12  -11.43  161.44
 -17   2 -12  -44.34  109.66
 -17   2 -12  -69.96  154.03
  17  -2  12   23.25  181.32
  17  -2  12 -101.47   65.36
 -17   3 -12   30.82  159.66
 -17   3 -12  138.12  115.70
  17  -3  12  119.93  168.13
  17  -3  12  103.04   69.54
 -17   6 -12  142.61  120.92
  17  -6  12 -132.41   68.48
  17  -6  12  -59.02  145.56
 -17   7 -12  182.51  184.74
 -17   7 -12 -316.00  115.24
  17  -7  12   33.64   76.31
 -17   8 -12  -59.10  195.31
  17  -8  12 -112.48   77.72
 -18  -3 -12  -54.69  147.43
  18   3  12    9.35   75.35
  18   3  12  140.71  178.91
 -18  -2 -12  -10.68  153.14
 -18  -2 -12  -11.50  126.23
  18   2  12  118.46  174.86
  18   2  12   -9.21   74.44
 -18  -1 -12 -147.20  123.18
  18   1  12   95.42  172.58
  18   1  12  -91.20   72.30
 -18   0 -12   11.39  117.93
  18   0  12  208.00  186.85
 -18   1 -12 -106.43  125.47
  18  -1  12 -186.65  188.28
  18  -1  12    8.81   71.29
 -18   2 -12  -61.35  119.39
 -18   2 -12   10.99  169.60
  18  -2  12  140.18  186.09
  18  -2  12 -235.14   78.43
 -18   3 -12  -12.80  116.83
 -18   3 -12  -11.25  175.90
  18  -3  12  222.41  183.23
  18  -3  12 -157.84   74.19
 -18   4 -12  -54.17  125.42
 -18   4 -12   57.29  177.18
  18  -4  12  168.26  187.39
  18  -4  12 -140.42   75.66
 -18   5 -12   58.40  193.33
 -18   5 -12 -319.55  144.45
  18  -5  12 -129.41  186.76
  18  -5  12 -106.28   77.98
 -18   6 -12  -23.80  210.99
 -18   6 -12  -57.40  145.26
  18  -6  12  -65.15  190.09
  18  -6  12  -54.33   81.63
 -18   7 -12   14.61  134.63
 -18   7 -12   36.93  207.29
  18  -7  12  -18.32   81.36
 -18   8 -12 -165.49  208.28
  18  -8  12  -46.63   79.25
 -19  -2 -12  142.73  165.94
  19   2  12  -10.24   80.26
 -19  -1 -12   11.49  165.11
  19   1  12  -60.50   80.24
 -19   0 -12 -337.42  134.95
 -19   0 -12  197.22  172.81
  19   0  12    9.92   83.43
  19   0  12   13.49  141.23
 -19   1 -12  -47.43  178.30
  19  -1  12  177.96  192.88
  19  -1  12  175.96   82.23
 -19   2 -12  423.91  191.93
  19  -2  12   14.11  156.26
  19  -2  12 -211.45   83.39
 -19   3 -12  -14.46  117.43
 -19   3 -12   24.69  202.09
  19  -3  12  -95.81   83.34
 -19   4 -12  188.81  198.61
  19  -4  12    9.63   82.15
   0   0 -13    2.87   26.05
   0   0  13   44.76   53.95
   0   1 -13  952.96  173.84
   0   1 -13 1107.68  160.07
   1   0 -13  779.78  165.29
   1   0 -13  742.64  153.93
  -1   0 -13  659.48  164.90
   0  -1  13 1107.71  212.34
  -1   0  13  862.59  211.60
   1   1 -13    2.46   22.21
  -1   1 -13   -8.73   31.83
  -1   1 -13    4.52   20.44
   1   1 -13   -6.42   34.61
  -1  -1  13  -25.26   47.42
   1  -1  13  -24.07   20.04
   1  -1  13  -30.39   49.63
   2   1 -13  105.81   30.76
   2   1 -13   97.74   40.64
  -1   2 -13  159.89   38.29
  -1   2 -13   96.75   28.42
   1  -2  13  126.44   31.69
   1  -2  13  124.03   49.88
  -2  -1  13   37.67   57.38
   2   0 -13  -36.49   38.85
   0   2 -13   -4.20   19.32
   2   0 -13  -20.80   26.57
   0   2 -13    2.77   31.48
  -2   0 -13   13.42   24.31
   0  -2  13  -16.72   36.97
  -2   0  13  -57.88   61.36
   0  -2  13    9.26   13.93
   1   2 -13  182.49   39.90
  -2   1 -13  141.49   31.14
   1   2 -13   90.84   27.70
   2  -1  13   -3.31   46.88
   2  -1  13  100.25   34.80
  -1  -2  13   95.94   51.10
   2   2 -13   -2.32   19.96
   2   2 -13  -33.43   34.42
  -2   2 -13    9.15   18.89
  -2   2 -13   40.86   30.26
   2  -2  13    1.58   28.28
   2  -2  13   83.15   42.72
  -2  -2  13   39.67   44.61
  -3   0  13   28.09   65.69
  -3   4 -13  114.56   37.26
  -3   4 -13  182.77   31.57
   4   3 -13  130.83   46.26
  -3   4 -13   92.69   39.73
   4   3 -13  177.73   35.77
  -3   4 -13  111.62   37.53
  -4  -3  13  154.82   56.34
   3  -4  13  151.89   28.16
   3  -4  13  126.87   39.78
   3  -4  13  154.63   33.90
   3  -4  13  139.40   46.51
   3   4 -13  136.79   45.77
  -4   3 -13  123.86   40.48
   3   4 -13  133.30   33.55
  -3  -4  13  150.19   55.36
   4  -3  13  175.52   29.06
  -3  -4  13  129.38   39.56
  -4   4 -13   -1.44   16.12
   4   4 -13   28.35   38.34
  -4   4 -13   -2.00   35.33
  -4  -4  13  -79.17   48.12
   4  -4  13    3.26   19.65
   4  -4  13   10.92   15.91
  -4   5 -13  608.55  143.65
  -4   5 -13  813.61  142.26
   5   4 -13  423.19  140.40
   5   4 -13  587.66  125.36
   4  -5  13  805.15  138.22
   4  -5  13  750.23  171.87
  -5  -4  13  807.09  130.89
  -5  -4  13  387.42  166.46
   5   3 -13 1706.40  300.57
   5   3 -13 2040.34  328.41
  -3   5 -13 1755.21  320.56
  -3   5 -13 1396.30  339.69
   3  -5  13 1708.10  324.83
  -5  -3  13 1645.20  380.34
   3  -5  13 1641.32  300.32
   5   2 -13  475.06   75.54
   5   2 -13  524.16   95.25
  -2   5 -13  418.43   88.65
  -2   5 -13  533.41   76.65
   5   2 -13  264.62   65.61
   2  -5  13  512.31   81.35
  -5  -2  13  538.24  112.31
   2  -5  13  465.18  107.52
   2  -5  13  343.70   73.16
  -1   5 -13  415.38   87.20
   5   1 -13  470.99   73.47
   5   1 -13  468.42   76.72
  -1   5 -13  456.55   74.36
   5   1 -13  427.55   97.21
   1  -5  13  426.24   81.22
  -5  -1  13  510.29  121.48
   1  -5  13  112.11  104.25
   5   0 -13 1655.20  238.14
  -5   0 -13 1578.56  332.45
   5   0 -13 1315.51  303.96
   0   5 -13 1593.15  251.40
   5   0  13 1357.57  299.59
   0  -5  13 1583.19  268.77
  -5   0  13 1254.10  381.83
   1   5 -13  352.68   86.39
  -5   1 -13  499.28   82.91
   1   5 -13  511.80   74.59
  -5   1 -13  486.30   92.73
   5  -1  13  511.17   77.79
  -1  -5  13  341.09  105.42
  -1  -5  13  396.14   81.07
   5  -1  13  411.75  100.86
   2   5 -13  403.34   75.97
  -5   2 -13  422.33   92.39
  -5   2 -13  508.46   81.69
   2   5 -13  437.13   88.09
  -5   2 -13  455.87   82.93
   5  -2  13  447.66   72.62
  -2  -5  13  439.52  107.31
   5  -2  13  396.09   98.00
  -2  -5  13  318.54   81.43
   5  -2  13  522.06  114.28
   3   5 -13 1939.53  330.70
  -5   3 -13 1932.05  308.63
  -5   3 -13 2083.63  356.73
   5  -3  13 1980.96  336.89
   5  -3  13 1832.78  403.09
   5  -3  13 1698.32  274.91
  -5   4 -13  820.00  145.89
  -5   4 -13  735.96  135.30
   4   5 -13  926.19  140.71
   5  -4  13  816.67  136.80
  -4  -5  13  786.64  172.17
   5   5 -13   55.13   41.12
  -5   5 -13  -18.94   29.91
  -5   5 -13    8.43   48.02
  -5   5 -13   11.40   26.27
   5   5 -13  -69.60   27.58
  -5   5 -13   -5.94   21.00
  -5  -5  13   55.71   34.89
   5  -5  13   25.91   40.08
   5  -5  13    5.62   20.67
  -5  -5  13   16.48   55.74
   5  -5  13    2.15   19.42
   5  -5  13  -19.46   32.96
   6   5 -13  319.62   71.91
  -5   6 -13  203.88   62.34
   6   5 -13  284.96   54.09
  -6  -5  13  332.35   61.04
  -6  -5  13  154.05   87.90
   5  -6  13  281.18   56.05
  -4   6 -13   55.79   26.79
   6   4 -13   28.14   39.52
  -4   6 -13   65.37   31.35
   6   4 -13   58.33   27.14
  -6  -4  13   81.57   57.08
  -6  -4  13   33.93   35.55
   4  -6  13   69.14   27.44
  -3   6 -13  560.53   95.76
   6   3 -13  465.54   80.79
   6   3 -13  292.24   95.24
  -3   6 -13  461.61   93.32
  -6  -3  13  549.43  113.36
   3  -6  13  413.61   89.75
   6   2 -13  287.51   49.82
   6   2 -13  190.84   65.59
  -2   6 -13  304.31   51.00
  -2   6 -13  151.89   56.66
  -6  -2  13  189.79   79.70
   2  -6  13  199.56   51.50
   6   1 -13 1364.57  162.60
   6   1 -13  515.55  210.21
  -1   6 -13 1034.27  197.88
   6   1  13 1116.11  201.21
  -6  -1  13  802.60  254.27
  -6   0 -13  -30.05   20.36
   0   6 -13   -6.57   20.80
  -6   0 -13  -12.80   39.98
   0   6 -13  -49.04   31.10
   6   0 -13  -31.83   29.25
   6   0 -13   41.56   47.65
   6   0  13   14.15   48.68
   0  -6  13   44.50   26.43
   6   0  13    3.04   23.56
  -6   0  13 -110.84   84.99
  -6   1 -13 1112.31  174.21
  -6   1 -13  931.52  213.04
   1   6 -13 1317.91  193.87
   6  -1  13 1240.51  217.20
   6  -1  13 1246.01  166.50
  -1  -6  13  882.16  180.44
  -6   2 -13  218.73   57.16
   2   6 -13  275.67   47.79
   2   6 -13  276.52   58.97
   6  -2  13  164.08   43.31
   6  -2  13  209.55   71.02
  -2  -6  13  309.96   52.67
  -6   3 -13  378.52   97.12
   3   6 -13  430.39   77.88
   3   6 -13  489.97   92.87
  -6   3 -13  312.01   89.28
   6  -3  13  432.02   71.75
  -3  -6  13  550.29   86.89
   6  -3  13  233.43   98.60
  -6   4 -13   47.51   49.45
   4   6 -13   47.20   43.99
  -6   4 -13   59.81   32.63
  -4  -6  13  -20.06   52.28
   6  -4  13   75.43   23.17
   6  -4  13   23.08   47.59
  -6   5 -13  369.37   77.77
  -6   5 -13  245.50   66.47
   5   6 -13  285.88   68.54
   5   6 -13  376.05   52.97
   6  -5  13  267.83   53.12
  -5  -6  13  209.64   85.12
   6  -5  13  260.32   65.80
  -5  -6  13  251.48   62.08
  -6   6 -13   12.19   35.31
   6   6 -13    3.84   47.24
   6   6 -13   41.08   30.20
  -6  -6  13   60.43   61.66
  -6  -6  13  -20.90   38.48
   6  -6  13   42.78   27.02
   7   5 -13  -27.50   49.56
   7   5 -13   17.79   32.78
  -5   7 -13   37.38   34.67
  -7  -5  13   51.40   37.38
  -7  -5  13   76.12   63.01
  -4   7 -13 1127.44  245.91
   7   4 -13 1279.00  208.11
   7   4 -13 1267.79  233.27
  -7  -4  13 1363.29  216.88
  -7  -4  13  960.65  278.66
  -3   7 -13  519.70  105.36
   7   3 -13  494.97  106.36
   7   3 -13  574.84   91.23
   3  -7  13  546.83  105.54
  -7  -3  13  496.88  124.80
   7   2 -13  428.80  101.20
   7   2 -13  380.47   78.52
  -2   7 -13  295.69   91.65
  -2   7 -13  473.20   89.93
  -7  -2  13  604.60  121.30
   2  -7  13  529.97   90.07
   7   1 -13  241.93   32.24
   7   1 -13   75.62   56.93
  -1   7 -13  141.59   41.74
   7   1 -13  189.30   37.87
  -1   7 -13  118.33   36.03
   1  -7  13  124.43   38.25
  -7  -1  13   34.75   74.45
   7   1  13   78.53   61.78
   7   0 -13  812.17  240.21
  -7   0 -13 1111.66  193.50
   7   0 -13 1015.36  177.88
   0   7 -13 1140.86  207.49
   7   0  13 1169.87  183.07
  -7   0  13 1325.42  303.67
   0  -7  13 1100.62  201.72
   7   0  13  997.89  233.80
   1   7 -13  129.70   33.15
   1   7 -13  124.27   45.10
  -7   1 -13  186.28   49.27
   7  -1  13   65.17   32.96
  -1  -7  13  118.59   40.74
   7  -1  13  110.90   62.26
  -7   2 -13  380.54   87.64
   2   7 -13  488.24   88.31
   2   7 -13  460.87   79.12
   7  -2  13  421.29  107.38
   7  -2  13  475.32   70.53
  -2  -7  13  322.97   83.76
  -7   3 -13  456.52  110.58
  -7   3 -13  477.15  101.53
   3   7 -13  493.90   89.05
   3   7 -13  571.83  102.77
   7  -3  13  317.79  115.67
   7  -3  13  392.01   81.96
  -3  -7  13  484.19   95.46
  -7   4 -13 1233.26  231.99
  -7   4 -13 1318.33  252.31
   4   7 -13 1203.97  229.51
   7  -4  13 1107.66  200.99
   7  -4  13 1165.12  232.92
   5   7 -13   33.63   48.12
  -7   5 -13  -20.42   42.07
   5   7 -13   45.87   32.14
  -7   5 -13  -34.89   65.53
   7  -5  13   34.32   53.78
  -5  -7  13   58.45   39.94
   7  -5  13   49.83   28.85
   7   7 -13   60.52   34.20
   7   7 -13  -12.81   54.16
   7  -7  13  -28.32   34.10
  -7  -7  13   34.72   69.22
  -7  -7  13   68.20   43.56
   8   7 -13   -7.05   35.55
   8   7 -13    9.21   60.33
  -8  -7  13   75.36   43.38
  -8  -7  13  102.33   76.54
   8   6 -13  135.90   40.31
   8   6 -13  162.17   67.15
  -8  -6  13  242.60   83.55
  -8  -6  13   53.24   48.60
   8   4 -13  -39.22   47.75
  -8  -4  13   17.10   38.64
   8   3 -13  662.14  184.71
  -3   8 -13 1027.02  178.58
   8   3 -13  800.12  160.47
  -8  -3  13  867.52  215.02
   8   2 -13   59.46   31.58
  -2   8 -13   49.56   30.44
   8   2 -13    4.28   51.19
  -8  -2  13   32.10   69.53
   8   2  13   62.98   59.92
   8   1 -13  697.82   92.71
   8   1 -13  446.56   96.88
  -1   8 -13  646.46  107.44
   8   1 -13  479.08  131.42
  -8  -1 -13  642.23  109.80
  -8  -1  13  548.58  162.14
   8   1  13  451.55  127.13
   8   1  13  400.56   95.53
   1  -8  13  648.76  113.18
   0   8 -13  -32.26   33.10
   0   8 -13   35.25   30.35
  -8   0 -13   10.99   49.06
   8   0 -13   23.41   34.22
   8   0 -13   17.78   28.08
   8   0 -13    5.25   55.59
   8   0  13   16.85   26.08
   8   0  13    4.73   61.96
   0  -8  13    6.47   30.79
  -8   0  13  -31.36   92.96
  -8   1 -13  706.61  106.96
   1   8 -13  635.62  106.86
   1   8 -13  496.83  105.53
  -1  -8  13  502.26  108.11
   8  -1  13  596.99  133.37
   8  -1  13  350.14   89.85
   2   8 -13   32.06   37.84
   2   8 -13   86.02   33.17
  -8   2 -13   68.74   55.64
  -2  -8  13    6.76   33.33
   8  -2  13  115.70   26.24
   8  -2  13   13.99   67.05
  -8   3 -13  628.20  173.26
  -8   3 -13  843.93  200.20
   3   8 -13  973.56  161.40
   3   8 -13 1093.22  167.60
  -3  -8  13 1156.12  168.21
   8  -3  13  771.92  147.01
   8  -3  13  818.78  197.62
  -8   4 -13   28.30   63.41
   4   8 -13  -10.75   43.68
  -8   4 -13   12.71   41.19
   6   8 -13  190.98   46.28
  -8   6 -13  154.47   57.05
  -8   6 -13  171.63   84.05
   6   8 -13  140.20   61.07
   8  -6  13  147.92   44.01
  -6  -8  13  175.95   53.63
   8  -6  13  150.21   64.00
   7   8 -13   -4.43   56.50
   7   8 -13   11.29   38.43
   8  -7  13  -19.59   34.95
  -7  -8  13   -4.09   46.40
   8   8 -13  -66.15   62.86
   9   7 -13   -4.90   66.14
  -9  -7  13   10.07   81.40
  -9  -7  13   -4.18   43.77
   9   6 -13  -20.32   35.99
   9   6 -13   -4.69   57.65
  -9  -6  13   -4.71   80.29
  -9  -6  13   31.73   45.05
   9   5 -13   21.83   55.35
   9   5 -13   38.90   35.00
  -9  -5  13  -52.88   75.83
  -9  -5  13   60.26   47.53
   9   4 -13  666.88  129.91
   9   4 -13  837.94  112.34
  -9  -4  13  649.50  122.31
  -9  -4  13  716.30  158.51
  -9   4 -13  600.33  141.90
  -9   4 -13  854.09  138.89
   4   9 -13  717.90  114.90
   9  -4  13  537.96  109.30
   9  -4  13  522.77  141.66
  -9   5 -13   70.50   81.29
   5   9 -13    3.93   37.59
   5   9 -13    3.94   47.79
  -9   5 -13  151.12   55.05
   9  -5  13  -19.99   69.03
   9  -5  13   -3.78   34.00
  -5  -9  13   25.07   44.06
  -9   6 -13   77.66   56.66
  -9   6 -13   42.75   85.08
   6   9 -13    4.20   52.37
   9  -6  13   24.17   34.63
   9  -6  13  -29.77   64.59
  -9   7 -13   76.49   52.39
   9  -7  13   51.98   43.33
   8   9 -13    4.39   46.25
   9  -8  13   59.49   43.98
  -8  -9  13  -37.77   47.38
  10   9 -13    4.77   45.25
  10   9 -13    5.67   73.05
 -10  -9  13    5.11   59.40
 -10  -9  13  107.17  104.11
  10   6 -13  189.15   46.54
  10   6 -13  227.42   74.20
 -10  -6  13   90.59   53.85
 -10  -6  13  103.18   93.09
  10   5 -13  187.57   74.02
  10   5 -13  287.87   51.48
 -10  -5  13  256.06   62.06
 -10  -5  13  164.07   98.80
  10   4 -13   26.50   59.96
  10   4 -13   29.03   35.76
 -10  -4  13   78.39   77.23
 -10  -4  13   94.75   46.25
  10   3 -13  348.89  100.85
  10   3 -13  462.20   80.93
 -10  -3  13  289.05  125.04
 -10  -2 -13   15.36   63.14
  10   2 -13    9.57   34.00
  10   2 -13   -9.66   56.00
  10   2  13   33.55   76.51
 -10  -2  13   42.65   88.49
  10   1 -13  -26.57   35.51
  10   1 -13    5.30   60.96
 -10  -1 -13  -28.59   61.99
  10   1  13   63.68   34.91
 -10  -1  13   -6.12   97.17
  10   1  13  -17.49   86.54
 -10   0 -13  -31.34   60.18
  10   0 -13    4.24   32.17
  10   0 -13   -3.52   37.88
  10   0  13   -7.88   32.86
 -10   0  13  -78.11  115.06
  10   0  13   -5.78   78.10
 -10   1 -13  -27.31   68.55
  10  -1 -13   92.82   40.55
  10  -1 -13  -11.95   43.65
  10  -1  13   40.88   32.45
  10  -1  13   53.03   84.87
 -10   2 -13  110.81   52.58
 -10   2 -13  -18.77   71.64
  10  -2  13   47.38   92.43
  10  -2  13   22.34   34.96
 -10   3 -13  363.19  105.78
 -10   3 -13  499.94  107.18
  10  -3  13  413.70  124.16
  10  -3  13  462.39   74.95
 -10   4 -13   71.39   57.36
 -10   4 -13  151.11   86.88
  10  -4  13   70.01   90.01
  10  -4  13  123.83   37.98
 -10   5 -13  129.45   76.25
 -10   5 -13  207.28  102.43
  10  -5  13  155.60   52.19
  10  -5  13  164.66   88.74
 -10   6 -13  256.01  105.53
 -10   6 -13  130.53   66.65
  10  -6  13  108.39   50.07
  10  -6  13  133.62   77.59
   7  10 -13  -41.89   54.51
 -10   7 -13   51.70   58.29
  10  -7  13   42.11   37.17
  -7 -10  13  -64.93   54.35
   9  10 -13   10.83   70.57
  -9 -10  13   21.57   59.97
  10  10 -13   -5.82   72.18
  11  10 -13    6.26   82.31
  11   9 -13   42.91   82.46
  11   9 -13  -29.74   48.28
 -11  -9  13   95.37   61.03
 -11  -9  13   83.65  113.54
  11   8 -13  -63.29   41.15
  11   8 -13    5.87   74.91
 -11  -8  13 -105.05   99.28
 -11  -8  13  -29.34   55.78
  11   5 -13    3.55   35.35
  11   5 -13   23.99   60.21
 -11  -5  13    5.14   86.14
 -11  -5  13   -4.18   49.39
  11   4 -13    6.72   38.98
  11   4 -13   65.45   60.49
 -11  -4  13   -9.76   81.80
 -11  -4  13   55.54   46.95
  11   3 -13   62.17   34.51
  11   3 -13    4.80   56.14
 -11  -3  13   -3.80   46.17
 -11  -3  13  -10.36   84.45
  11   2 -13   -5.09   61.91
 -11  -2 -13   60.78   69.25
  11   2 -13   43.36   36.47
 -11  -2  13   -5.72   98.25
  11   2  13  -24.30   37.46
  11   2  13  284.30   85.12
  11   1 -13   39.25   64.60
 -11  -1 -13  -15.64   71.39
  11   1 -13   24.25   37.71
 -11  -1  13  -26.17   99.17
  11   1  13 -108.20   89.39
  11   1  13    9.07   37.15
  11   0 -13   58.67   39.99
  11   0 -13  -27.62   37.54
 -11   0 -13   30.04   70.39
  11   0  13  -26.17   36.60
  11   0  13  -76.76   90.56
 -11   1 -13  -66.64   78.59
  11  -1 -13  -16.60   43.64
  11  -1 -13  -32.50   44.20
  11  -1  13 -130.86   96.59
  11  -1  13  -20.78   37.51
 -11   2 -13   -5.64   61.81
 -11   2 -13   26.48   88.14
  11  -2  13    6.56   96.13
  11  -2  13   -4.19   40.19
 -11   3 -13   69.47   61.67
 -11   3 -13   16.59   85.83
  11  -3  13  -46.90   37.26
  11  -3  13   -6.64   93.26
 -11   4 -13  -74.22   68.03
 -11   4 -13  127.61   98.24
  11  -4  13  -13.21   98.55
  11  -4  13   72.10   42.08
 -11   5 -13   18.69   98.99
 -11   5 -13  -19.88   66.07
  11  -5  13  -32.00   93.47
  11  -5  13   -9.36   44.58
  12  10 -13  106.52   98.66
 -12 -10  13    7.14  122.25
  12   9 -13    6.47   83.31
  12   8 -13   18.65   82.69
  12   8 -13   51.56   47.24
 -12  -8  13  154.62  107.64
 -12  -8  13 -111.66   56.82
  12   7 -13   60.23   46.84
  12   7 -13   52.58   73.83
 -12  -7  13  139.40  102.91
 -12  -7  13  -41.96   54.09
 -12  -6  13  -44.21   54.40
  12   2 -13  123.19   65.46
  12   2 -13  -13.71   31.77
 -12  -2  13  -67.76   98.55
  12   2  13 -154.36   95.07
  12   1 -13   28.63   41.21
  12   1 -13    5.94   74.00
 -12  -1  13   98.50  112.48
  12   0 -13   22.64   40.15
  12  -1 -13  -33.00   46.89
  12  -1 -13    5.97   43.59
  12  -6  13 -168.01  102.14
 -12   7 -13  464.73  125.05
 -12   7 -13  -55.46   73.61
  12  -7  13  105.23   92.16
  12  -7  13  123.86   49.17
  12  -8  13    5.78   51.22
  13  10 -13   -7.09   89.65
 -13 -10  13  137.55  124.30
  13   9 -13  -89.22   86.70
 -13  -9  13   37.04  124.12
 -13  -9  13   17.07   59.65
  13   7 -13  101.92   76.18
  13   7 -13  -44.54   45.68
 -13  -7  13  -20.46  118.04
 -13  -7  13   -9.70   56.46
  13   6 -13   -5.52   70.99
  13   6 -13   20.27   41.13
 -13  -6  13 -129.75  106.18
 -13  -6  13   41.12   50.50
 -13  -5  13   -4.45   51.89
  13   4 -13   -5.20   56.56
 -13  -4  13   -5.76   92.73
 -13  -3 -13   -6.88   84.67
 -13  -3  13   48.43  102.64
  13   3  13 -122.82  109.74
 -13  -3  13  117.46   53.21
  13   2  13  204.76  110.03
  13   2  13    5.72   40.96
 -13   2 -13   42.27   73.95
  13  -2  13   26.13   44.13
  13  -2  13    8.11  126.35
 -13   3 -13    6.89  121.30
 -13   3 -13    7.44   74.35
  13  -3  13  179.98  130.04
  13  -3  13  -16.04   46.49
 -13   4 -13   55.38   80.24
 -13   4 -13  157.29  117.11
  13  -4  13  150.07  125.44
  13  -4  13    5.50   46.21
 -13   5 -13   50.40   81.06
 -13   5 -13  127.74  123.04
  13  -5  13  -88.25  107.96
  13  -5  13   91.33   53.55
 -13   6 -13   15.76  129.10
 -13   6 -13    8.56   80.39
  13  -6  13  -23.49  111.12
  13  -6  13  111.49   55.11
 -13   7 -13  -35.22   86.18
 -13   7 -13  147.15  137.05
  13  -7  13   15.62   99.94
  13  -7  13   18.31   52.25
  13  -9  13   12.93   58.54
 -14  -3 -13   30.07   99.73
  14   3  13  -24.89  118.00
 -14  -2 -13  -64.75   93.99
  14   2  13  -43.80   50.91
  14   2  13   -8.25  114.86
 -14  -1 -13  -48.02   98.41
  14   1  13  115.36   48.31
  14   1  13  151.92  127.31
 -14   0 -13   48.53   99.12
  14   0  13  125.42   51.40
  14   0  13   68.74  131.51
 -14   1 -13    7.69   73.53
 -14   1 -13   78.66  107.94
  14  -1  13   97.98   51.90
  14  -1  13  130.91  125.00
 -14   2 -13   36.92  116.49
 -14   2 -13  -47.09   80.28
  14  -2  13    5.80   52.47
  14  -2  13   17.96  138.68
 -14   3 -13   22.94  126.60
 -14   3 -13   33.82   86.81
  14  -3  13  -59.26   53.17
  14  -3  13   27.21  129.90
 -14   4 -13   17.63   92.82
 -14   4 -13 -165.90  128.04
  14  -4  13  -92.18  131.50
  14  -4  13   30.38   51.09
 -14   5 -13   28.05   96.64
 -14   5 -13    8.22  136.39
  14  -5  13  187.43  125.37
  14  -5  13  -25.02   59.64
 -14   7 -13   29.34   91.27
 -14   7 -13  -35.67  142.60
  14  -7  13  -13.22   56.83
  14  -7  13  -43.50  121.71
 -14   8 -13  -91.59  143.19
  14  -8  13   20.57   61.57
 -15   0 -13   -7.70  120.72
 -15   4 -13   -9.95  110.67
  15  -4  13 -172.57  150.93
  15  -4  13   33.31   52.12
 -15   5 -13   62.44  144.48
 -15   5 -13  -31.09  101.50
  15  -5  13  206.79  141.26
  15  -5  13  -89.33   62.49
 -15   6 -13   65.00  154.82
 -15   6 -13  -10.69  104.30
  15  -6  13 -139.77   64.46
  15  -6  13  -77.89  137.79
 -15   7 -13  -77.04  162.53
 -15   7 -13  -75.96  103.17
  15  -7  13  -29.07  120.95
  15  -7  13   49.91   60.96
 -15   8 -13  188.74  167.45
 -16  -3 -13   18.17  115.98
  16   3  13  123.73   57.72
  16   3  13  236.31  133.53
 -16  -2 -13   -8.79  125.73
  16   2  13   37.97   57.30
  16   2  13 -100.34  146.95
 -16  -1 -13  236.72  127.83
  16   1  13   37.21   62.98
  16   1  13  192.89  159.14
 -16   0 -13   17.09  127.40
 -16   0 -13 -186.83  105.39
  16   0  13    7.34   55.72
  16   0  13  -72.08  161.58
 -16   1 -13  142.21  101.92
 -16   1 -13   -8.80  139.20
  16  -1  13  123.03   63.41
  16  -1  13  126.97  153.04
 -16   2 -13   79.59  101.86
 -16   2 -13 -180.61  137.09
  16  -2  13  -56.78   61.01
  16  -2  13   43.10  160.82
 -16   3 -13  -72.55  109.45
 -16   3 -13  -74.70  145.68
  16  -3  13   21.74   56.25
  16  -3  13  132.54  159.60
 -16   4 -13  -57.29  152.62
 -16   4 -13  -88.47  116.51
  16  -4  13  -55.65  170.71
  16  -4  13  123.49   64.47
 -16   5 -13  171.79  116.88
 -16   5 -13   -9.75  160.64
  16  -5  13   97.78  160.71
  16  -5  13  -52.13   65.10
 -16   6 -13   90.76  170.62
 -16   6 -13 -236.61  119.94
  16  -6  13   -7.62   67.80
  16  -6  13 -162.19  145.96
 -16   8 -13   21.58  184.05
  16  -8  13   63.61   69.34
 -17  -2 -13   -9.74  133.43
  17   2  13 -117.65   65.55
  17   2  13   43.98  157.76
 -17  -1 -13 -104.20  117.22
 -17  -1 -13  187.71  135.38
  17   1  13  -99.01   68.37
  17   1  13  278.91  161.19
 -17   0 -13  -94.65  137.64
 -17   0 -13   51.70  113.14
  17   0  13  203.17  165.03
  17   0  13   -8.12   62.80
 -17   1 -13  -58.36  144.66
 -17   1 -13  -74.02  105.97
  17  -1  13  -32.12   67.53
  17  -1  13  209.47  167.03
 -17   2 -13 -109.67  147.57
 -17   2 -13   45.18  115.12
  17  -2  13  127.07   67.90
  17  -2  13   47.38  172.67
 -17   6 -13   13.11  121.71
 -17   6 -13  -76.09  190.24
  17  -6  13  -99.92   72.80
  17  -6  13   47.88  153.54
 -17   7 -13 -168.56  198.78
 -17   7 -13  106.40  114.35
  17  -7  13 -359.76  165.04
  17  -7  13   33.66   71.33
 -17   8 -13 -266.93  192.52
  17  -8  13  -51.34   73.03
 -18  -3 -13   11.10  149.44
  18   3  13   -9.44   74.11
  18   3  13  309.63  188.23
 -18  -2 -13  108.24  144.64
  18   2  13  -48.16  183.38
  18   2  13    9.33   70.82
 -18  -1 -13  -34.48  127.68
 -18  -1 -13   20.89  139.45
  18   1  13  497.46  184.20
  18   1  13  127.95   69.42
 -18   0 -13   80.86  125.81
 -18   0 -13   62.85  151.07
  18   0  13 -111.98  183.84
  18   0  13  -17.97   73.58
 -18   1 -13   10.73  166.32
 -18   1 -13  107.83  126.26
  18  -1  13  -53.48   79.81
  18  -1  13 -229.72  194.34
 -18   2 -13  112.39  124.27
 -18   2 -13   21.97  164.41
  18  -2  13 -116.69  182.36
  18  -2  13   26.29   70.65
 -18   3 -13   78.04  130.72
 -18   3 -13  -44.85  174.68
  18  -3  13 -307.18  185.70
  18  -3  13   61.26   72.63
 -18   4 -13  220.49  134.61
 -18   4 -13 -137.60  178.46
  18  -4  13 -211.22  177.61
  18  -4  13   61.76   71.24
 -18   5 -13  169.56  137.02
 -18   5 -13  -11.66  187.96
  18  -5  13  -53.17   74.22
  18  -5  13   26.31  191.30
 -18   6 -13 -189.33  187.55
 -18   6 -13 -159.96  142.39
  18  -6  13  -62.87   83.03
  18  -6  13 -184.75  174.72
 -18   7 -13  121.87  196.49
 -18   7 -13  -73.58  142.66
  18  -7  13   27.45   77.93
 -18   8 -13  387.11  208.20
  18  -8  13   27.84   76.94
 -19   0 -13  243.24  164.71
  19   0  13   -9.96   79.66
 -19   1 -13  142.05  177.89
  19  -1  13   -9.86   83.67
 -19   2 -13  254.15  177.81
  19  -2  13 -106.18   82.85
 -19   3 -13   12.32  183.03
  19  -3  13   -9.58   78.91
  -2   3 -14   -5.13   31.59
  -2   3 -14    2.74   21.31
  -2   3 -14  -13.06   15.31
  -2   3 -14  -30.76   20.40
   3   2 -14   21.27   40.72
   3   2 -14   23.45   25.60
   2  -3  14    5.37   24.69
  -3  -2  14   -3.65   56.05
   2  -3  14  -17.56   36.91
   2   3 -14  -12.31   36.61
  -3   2 -14   -3.71   19.69
   2   3 -14    7.28   22.90
  -3   2 -14  -13.82   32.54
   3  -2  14   -6.10   47.92
  -2  -3  14  -21.08   42.14
   3  -2  14   34.12   36.00
  -3   3 -14  257.25   62.73
   3   3 -14  525.49   69.17
   3   3 -14  361.39   58.93
  -3   3 -14  301.27   68.22
  -3   3 -14  329.25   58.70
  -3   3 -14  284.55   62.07
  -3  -3  14  358.63   82.56
   3  -3  14  213.90   78.66
   3  -3  14  297.75   59.53
   3  -3  14  294.31   63.44
  -3   4 -14  469.95   94.23
  -3   4 -14  378.35   83.80
  -3   4 -14  373.69   94.70
   4   3 -14  568.76   97.55
   3  -4  14  445.73   87.07
   3  -4  14  500.06   87.82
   3  -4  14  453.65   77.81
  -4  -3  14  450.21  112.70
   3  -4  14  512.75  109.61
   4   2 -14    3.73   42.16
  -2   4 -14  -12.32   32.05
  -2   4 -14   33.01   17.73
   2  -4  14   12.25   22.14
   2  -4  14    2.15   12.10
   2  -4  14   -9.31   37.97
  -4  -2  14  -19.22   55.15
   4   1 -14  469.70   74.81
  -1   4 -14  492.58   89.01
   4   1 -14  691.98   99.37
  -1   4 -14  534.62   77.88
  -4  -1  14  404.35  122.39
   1  -4  14  446.92  102.80
   1  -4  14  487.33   81.80
   0   4 -14   43.97   31.84
   4   0 -14   -4.42   41.72
   4   0 -14  -13.23   30.18
   0   4 -14    4.04   17.88
  -4   0 -14  -38.62   27.06
   4   0  14    2.80   38.06
  -4   0  14   80.12   76.87
   0  -4  14    7.12   25.23
   0  -4  14  -15.67   41.66
   1   4 -14  586.77   79.45
   1   4 -14  423.15   89.47
  -1  -4  14  236.05   82.23
   4  -1  14  539.28  100.19
  -1  -4  14  593.32  104.08
   2   4 -14   12.21   34.75
  -4   2 -14   -6.60   18.45
   2   4 -14    6.95   20.78
  -2  -4  14   40.80   45.45
   3   4 -14  449.09   84.43
   3   4 -14  565.58   95.90
   4  -3  14  423.92  112.41
   4  -3  14  411.02   79.94
  -3  -4  14  729.33  112.77
  -4   4 -14  528.73   85.65
   4   4 -14  524.84   89.00
  -4   4 -14  326.46   76.24
   4  -4  14  410.70   79.00
   4  -4  14  435.13   99.30
   4  -4  14  351.18   68.25
  -4  -4  14  572.11  106.02
   5   4 -14  146.73   34.99
   5   4 -14  132.28   47.97
  -4   5 -14  171.01   38.60
  -4   5 -14  133.14   30.43
  -5  -4  14  160.58   66.44
   4  -5  14  224.05   47.86
   4  -5  14  131.63   33.50
   5   3 -14  430.09   83.64
  -3   5 -14  417.21   85.51
  -3   5 -14  466.30   96.67
   5   3 -14  344.36   99.71
  -5  -3  14  580.35  115.54
   3  -5  14  469.97   88.84
   3  -5  14  445.27  115.38
   5   2 -14  267.82   70.57
  -2   5 -14  382.00   70.86
  -2   5 -14  388.94   83.24
   5   2 -14  462.74   89.30
  -5  -2  14  317.28  108.20
   2  -5  14  408.26   76.86
   2  -5  14  452.92  101.12
   5   1 -14 1355.14  244.58
   5   1 -14 1196.19  212.19
  -5  -1  14  817.92  292.57
   1  -5  14 1182.83  275.70
   5   0 -14    3.37   31.91
   0   5 -14   42.44   21.49
   0   5 -14  -14.04   34.99
   5   0 -14   -9.36   49.48
  -5   0  14  -28.15   75.92
   5   0  14   28.61   44.24
   0  -5  14    9.85   25.28
   0  -5  14    5.30   41.41
   1   5 -14 1316.57  202.77
  -5   1 -14  970.92  221.92
  -1  -5  14 1212.44  273.38
  -1  -5  14 1346.12  214.91
  -5   2 -14  444.58   76.91
   2   5 -14  274.30   84.55
   2   5 -14  370.33   72.76
  -2  -5  14  533.02  101.57
   5  -2  14  478.21   70.73
  -2  -5  14  170.85   77.26
   5  -2  14  498.52   95.05
   3   5 -14  493.32   83.90
  -5   3 -14  571.35  100.43
  -5   3 -14  327.12   89.28
   3   5 -14  514.78   97.87
   5  -3  14  473.45   76.79
  -3  -5  14  432.03  118.70
   5  -3  14  392.64  100.51
  -3  -5  14  403.92   91.00
  -5   4 -14   93.18   44.58
  -5   4 -14   55.34   28.02
  -5   4 -14  143.74   38.40
  -5   4 -14  233.69   38.95
   4   5 -14  108.50   51.06
  -4  -5  14  174.97   62.06
   5  -4  14  165.86   49.05
   5  -4  14  160.55   44.77
   5  -4  14   83.43   30.51
   5  -4  14  141.61   28.78
   5   5 -14  469.40  112.31
   5   5 -14  466.89   94.02
  -5   5 -14  572.28  108.12
  -5   5 -14  529.89  111.66
  -5   5 -14  488.45  111.71
  -5  -5  14  573.40  136.14
   5  -5  14  504.24   98.52
   5  -5  14  575.37   91.51
   5  -5  14  423.79  125.78
  -5  -5  14  673.39  103.06
   5  -5  14  631.78  104.21
  -5   6 -14   12.60   25.57
   6   5 -14   19.75   48.38
   6   5 -14   44.10   27.38
  -5   6 -14  -42.85   32.01
  -6  -5  14   41.58   58.64
   5  -6  14    6.51   39.75
  -6  -5  14   20.80   39.07
   5  -6  14   18.34   25.73
   6   4 -14  527.69  103.59
   6   4 -14  563.84   88.42
  -4   6 -14  513.00  103.49
  -4   6 -14  426.89  104.66
  -6  -4  14  691.79  125.08
  -6  -4  14  544.36   92.51
   4  -6  14  467.70   97.55
   6   3 -14  303.83  100.44
  -3   6 -14  487.99   92.08
   6   3 -14  585.70   84.15
  -3   6 -14  498.31   98.56
  -6  -3  14  554.17  117.79
   3  -6  14  354.90   90.16
  -2   6 -14  398.01   81.65
  -2   6 -14  266.54   71.68
   6   2 -14  285.22   90.23
   6   2 -14  329.78   69.53
   2  -6  14  370.52   73.84
  -6  -2  14  285.18  107.53
   6   1 -14   31.67   55.37
  -1   6 -14   90.12   30.34
   6   1 -14  146.97   35.70
  -6  -1  14   91.56   77.39
   6   1  14  111.53   54.97
   1  -6  14  100.98   34.67
   6   0 -14  459.39   54.44
   0   6 -14  461.82   62.33
   0   6 -14  380.54   48.97
  -6   0 -14  292.63   61.40
   6   0 -14  148.74   77.07
   6   0  14  337.08   73.13
   0  -6  14  362.47   53.90
  -6   0  14  279.62  106.17
  -6   1 -14   75.77   44.28
   1   6 -14  105.00   27.67
   1   6 -14  156.47   41.54
   6  -1  14   56.99   60.45
  -1  -6  14   66.75   36.96
   6  -1  14  122.91   30.87
   2   6 -14  399.20   82.31
  -6   2 -14  350.01   76.16
   2   6 -14  544.10   68.80
   6  -2  14  266.71   64.74
  -2  -6  14  451.85  102.29
   6  -2  14  398.45   95.60
  -2  -6  14  486.66   75.76
  -6   3 -14  367.20   90.28
  -6   3 -14  423.03  102.09
   3   6 -14  507.07   80.73
   3   6 -14  487.54   98.34
  -3  -6  14  496.12  122.07
   6  -3  14  340.23  104.74
  -3  -6  14  482.13   92.16
   6  -3  14  425.27   74.84
  -6   4 -14  628.80   98.56
   4   6 -14  538.81  103.48
  -6   4 -14  423.61  104.17
   6  -4  14  430.60   80.69
   6  -4  14  529.09  102.04
  -4  -6  14  319.77  128.90
   5   6 -14   29.65   29.99
  -6   5 -14   12.74   53.64
   5   6 -14   26.78   42.89
  -6   5 -14   24.70   33.74
  -5  -6  14  -29.80   60.17
   6  -5  14  -24.19   24.21
   6  -5  14   -6.52   46.08
  -5  -6  14    3.52   37.73
  -4   7 -14   78.65   36.11
   7   4 -14   47.98   52.62
   7   4 -14   95.37   35.61
  -7  -4  14   34.36   37.63
   4  -7  14   38.65   33.26
  -7  -4  14  207.20   66.80
   7   3 -14  831.02  127.64
  -3   7 -14  552.36  128.76
   7   3 -14  687.59  106.16
  -3   7 -14  504.75  126.15
  -7  -3  14  621.51  148.27
   3  -7  14  514.93  120.77
   7   2 -14  262.19   85.44
   7   2 -14  368.46   61.65
  -2   7 -14  375.15   68.63
  -2   7 -14  331.37   72.79
   2  -7  14  272.55   68.29
  -7  -2  14  214.19  103.97
  -1   7 -14  705.73  160.04
   7   1 -14  803.28  176.70
  -1   7 -14  874.06  149.96
   7   1 -14  876.04  131.70
  -7  -1  14  894.37  217.55
   1  -7  14  911.12  149.42
   7   1  14  677.71  166.29
   7   0 -14   10.52   54.43
   7   0 -14   34.81   29.33
  -7   0 -14  -29.24   46.18
   0   7 -14  -48.96   39.61
   7   0 -14  -40.78   28.99
   0   7 -14  -18.92   24.37
   7   0  14  -21.09   59.97
   7   0  14    6.80   26.45
  -7   0  14   31.48   98.34
   0  -7  14  -14.24   31.17
   1   7 -14  837.12  140.09
   1   7 -14  575.11  156.79
  -7   1 -14  991.59  142.99
  -1  -7  14  575.23  146.81
   7  -1  14  623.46  180.53
   7  -1  14  789.10  133.03
   2   7 -14  254.18   73.21
  -7   2 -14  362.19   72.49
   2   7 -14  337.84   60.80
   7  -2  14  163.40   93.56
   7  -2  14  344.40   55.86
  -2  -7  14  257.86   65.55
  -7   3 -14  816.17  132.89
  -7   3 -14  636.34  117.15
   3   7 -14  355.87  118.04
   3   7 -14  678.37  104.03
   7  -3  14  773.93  135.54
  -3  -7  14  542.76  112.49
   7  -3  14  565.31   96.62
  -7   4 -14   29.62   39.69
  -7   4 -14   47.13   55.06
   4   7 -14   25.96   46.64
   7  -4  14   89.41   58.34
   7  -4  14   86.98   27.64
   7   7 -14   40.85   82.04
   7   7 -14  356.01   57.18
  -7  -7  14  185.65  106.34
  -7  -7  14  294.27   68.89
   8   7 -14    4.84   66.50
   8   7 -14   76.08   39.58
  -8  -7  14  278.87   52.13
  -8  -7  14   98.03   81.47
   8   6 -14   46.87   62.06
   8   6 -14  148.12   37.73
  -8  -6  14  176.08   82.99
  -8  -6  14  179.84   52.64
   8   5 -14  -26.40   52.32
  -5   8 -14  -18.74   33.20
   8   5 -14  -13.29   32.87
  -8  -5  14    4.38   73.12
  -8  -5  14   -3.81   45.47
   8   2 -14  499.41  131.22
  -2   8 -14  311.48  116.42
   8   2 -14  619.46  103.24
   2  -8  14  753.54  119.73
  -8  -2  14  612.05  162.83
  -8  -1 -14  -12.90   50.31
   8   1 -14  -15.07   59.60
   8   1 -14   39.37   32.86
  -1   8 -14   16.15   26.14
  -1   8 -14   -6.06   37.66
   1  -8  14   12.87   30.10
   8   1  14  -88.58   63.29
  -8  -1  14  -51.45   84.91
   8   0 -14  592.33  151.00
  -8   0 -14  787.19  119.26
   8   0 -14  766.24  106.47
   8   0 -14  709.60  117.77
   0   8 -14  665.35  119.62
   0   8 -14  632.52  120.91
   8   0  14  736.05  105.55
   8   0  14  528.12  149.26
   0  -8  14  404.33  121.06
  -8   0  14  166.87  191.31
   1   8 -14   45.76   42.54
  -8   1 -14   79.51   46.40
   1   8 -14   25.43   28.37
   8  -1  14  -33.40   71.98
  -1  -8  14   56.99   35.17
   8  -1  14   77.27   27.47
   2   8 -14  613.67  106.65
   2   8 -14  205.08  110.72
  -8   2 -14  627.10  113.77
   8  -2  14  907.85  145.93
  -2  -8  14  728.86  111.93
   8  -2  14  630.65   94.22
   5   8 -14    3.58   35.94
  -8   5 -14    4.30   71.74
  -8   5 -14   32.06   44.40
   5   8 -14   -4.09   50.53
  -5  -8  14   -3.90   42.34
   8  -5  14    6.52   27.13
   8  -5  14   39.33   62.83
  -8   6 -14   51.48   77.97
  -8   6 -14   88.31   51.48
   6   8 -14    4.34   59.03
   6   8 -14   22.44   39.49
   8  -6  14   43.01   36.19
   8  -6  14  104.47   58.19
  -6  -8  14    4.04   46.81
   7   8 -14    4.66   59.75
   9   6 -14  161.67   50.66
   9   6 -14    4.96   73.50
  -9  -6  14  233.10   59.09
  -9  -6  14  152.68   98.89
   9   5 -14  104.00   45.24
   9   5 -14    4.63   61.85
  -9  -5  14  119.70   53.93
  -9  -5  14  235.78   89.12
  -4   9 -14   64.66   35.79
   9   4 -14   51.77   37.08
   9   4 -14   62.88   53.00
  -9  -4  14   60.67   45.78
  -9  -4  14   69.49   74.52
  -3   9 -14  641.82  138.18
   9   3 -14  722.90  126.79
   9   3 -14  479.29  152.83
  -9  -3  14  665.09  183.37
  -9   3 -14  742.80  143.09
   3   9 -14  785.85  130.93
   3   9 -14  577.32  129.88
  -9   3 -14  758.54  163.94
   9  -3  14  695.46  168.69
  -3  -9  14  725.40  134.63
   9  -3  14  787.78  116.15
  -9   4 -14   19.63   50.83
  -9   4 -14  -40.32   70.24
   4   9 -14  119.90   39.97
   4   9 -14    3.90   47.74
   9  -4  14   27.89   31.80
  -4  -9  14   24.64   47.29
   9  -4  14   46.76   77.79
  -9   5 -14  253.96   84.87
  -9   5 -14  182.30   61.26
   5   9 -14    4.14   57.71
   9  -5  14  244.61   44.18
   9  -5  14  145.46   73.95
  -9   6 -14  214.88   67.66
  -9   6 -14  242.15   98.49
   9  -6  14  397.04   77.48
   9  -6  14  203.31   49.83
   7   9 -14   -4.34   41.30
  -7  -9  14    9.30   46.96
   9  -7  14   -8.45   35.23
  -9  -9  14   51.60   95.19
  10   9 -14   -5.93   74.54
  10   9 -14    4.91   45.47
 -10  -9  14   84.15   60.41
 -10  -9  14   31.04  101.12
  10   8 -14  -71.41   45.71
 -10  -8  14  114.04  105.62
 -10  -8  14  -77.51   58.05
  10   5 -14   79.30   35.74
  10   5 -14   33.96   63.34
 -10  -5  14   41.21   92.96
 -10  -5  14   -4.16   49.99
  10   4 -14  191.90   52.28
  10   4 -14  219.10   75.53
 -10  -4  14  187.99   61.53
 -10  -4  14  250.39   91.97
  10   3 -14   60.32   35.13
  10   3 -14  -14.64   61.70
 -10  -3  14   51.96   78.92
  10   2 -14   66.81   68.01
  10   2 -14  176.35   43.16
 -10  -2  14  189.04  101.86
  10   2  14   -5.75   80.29
  10   1 -14   44.90   66.14
 -10  -1 -14  -14.89   62.69
  10   1 -14    7.05   36.25
 -10  -1  14   13.04  104.90
  10   1  14  -29.71   91.64
  10   1  14  -48.57   37.40
 -10   0 -14   31.91   62.97
  10   0 -14  -18.73   39.07
 -10   0  14    7.50  112.52
  10   0  14   41.59   86.77
  10   0  14    4.12   34.66
 -10   1 -14  -13.65   65.60
  10  -1  14  -42.63   32.08
  10  -1  14  -90.65   87.47
 -10   2 -14  202.30   66.16
 -10   2 -14  265.38   75.15
  10  -2  14   36.44   93.44
  10  -2  14   75.30   37.84
 -10   3 -14   41.72   54.04
 -10   3 -14  -48.54   77.28
  10  -3  14   19.01   33.58
  10  -3  14    6.01   86.70
 -10   4 -14  137.38   88.94
 -10   4 -14  273.04   75.97
  10  -4  14  259.36   96.80
  10  -4  14  252.72   51.50
 -10   5 -14   76.81   59.68
 -10   5 -14   65.57   92.61
  10  -5  14   66.77   41.46
  10  -5  14   28.62   83.37
 -10   6 -14    6.13   55.00
   6  10 -14    4.55   54.06
 -10   6 -14   88.28   99.36
  10  -6  14  124.14   43.13
  -6 -10  14    4.91   49.80
  10  -6  14   16.56   78.42
  -8 -10  14  -79.72   60.61
   9  10 -14    5.67   68.53
  -9 -10  14    5.53   60.66
  10  10 -14   -6.10   80.56
 -10 -10  14  120.54   64.68
  11   9 -14  -50.99   52.40
  11   9 -14   44.81   84.41
 -11  -9  14   -6.70  106.81
 -11  -9  14  -70.93   62.43
  11   8 -14   37.11   47.51
  11   8 -14  -43.49   78.33
 -11  -8  14   25.70  101.02
 -11  -8  14    5.03   59.49
  11   7 -14   21.08   40.03
  11   7 -14    5.89   73.65
 -11  -7  14  -42.81   59.59
 -11  -7  14    6.28  113.24
  11   4 -14    7.16   39.10
  11   4 -14  -20.07   67.29
 -11  -4  14   47.89   92.47
 -11  -4  14   80.09   48.27
  11   3 -14   27.95   35.64
  11   3 -14  -41.10   63.97
 -11  -3  14  -50.69   94.95
 -11  -3  14   44.29   46.84
  11   2 -14  -24.83   39.12
 -11  -2 -14   17.15   73.07
  11   2 -14   27.14   65.16
 -11  -2  14  -91.74   92.00
  11   1 -14   17.84   71.27
  11   1 -14   62.62   42.10
 -11  -1 -14  -10.73   70.91
  11   1  14   71.12   34.42
 -11  -1  14   90.28  107.66
  11   0 -14  -27.29   43.57
 -11   0 -14  -50.50   68.78
  11   0  14   78.70   95.64
  11   0  14  -40.72   38.92
 -11   1 -14    5.10   75.45
  11  -1 -14   56.05   45.39
  11  -1 -14  -25.96   47.73
  11  -1  14  -60.40  100.58
  11  -1  14   86.20   37.93
 -11   2 -14   -5.25   78.65
 -11   2 -14  -74.95   60.00
  11  -2  14   33.64  100.20
  11  -2  14  -45.92   37.15
 -11   3 -14   70.76   60.83
 -11   3 -14   76.79   84.11
  11  -3  14 -115.24  104.25
  11  -3  14   12.85   40.45
 -11   4 -14  163.36   66.54
 -11   4 -14  -22.91   90.63
  11  -4  14   39.84   44.17
  11  -4  14   13.35   94.35
 -11   7 -14   -7.09   48.51
 -11   7 -14  102.02  112.63
  11  -7  14   20.70   47.44
  12  11 -14   -7.19   93.31
 -12 -11  14  174.22  131.31
  12  10 -14   28.19   92.23
 -12 -10  14    6.17   67.73
 -12 -10  14   29.74  118.69
  12   8 -14  112.20   50.75
  12   8 -14    6.61   85.81
 -12  -8  14    5.21   60.54
 -12  -8  14   97.95  120.97
  12   7 -14  -49.15   75.21
  12   7 -14  -43.90   43.53
 -12  -7  14   19.65   56.50
 -12  -7  14 -270.61  105.42
  12   6 -14    4.07   42.21
  12   6 -14  -33.87   64.62
 -12  -6  14 -143.70  107.33
 -12  -6  14   28.10   53.03
 -12  -5  14   -4.60   52.92
 -12   6 -14   46.31   71.77
  12  -6  14  175.04   99.12
 -12   7 -14  380.02  131.74
 -12   7 -14    7.91   74.41
  12  -7  14  173.59   49.74
  12  -7  14  -20.86   90.76
  13  10 -14   -7.52   92.30
 -13 -10  14  161.15  135.88
  13   9 -14  -10.96   54.99
  13   9 -14    7.29   92.12
 -13  -9  14   79.06  130.25
 -13  -9  14   11.70   62.64
  13   8 -14   -6.88   94.49
  13   8 -14   40.36   51.07
 -13  -8  14    5.45   61.64
 -13  -8  14  152.10  135.20
  13   6 -14   11.75   72.96
  13   6 -14   50.37   44.55
 -13  -6  14   -6.49  112.67
 -13  -6  14   82.01   63.27
  13   5 -14   60.68   45.36
  13   5 -14  -44.81   72.22
 -13  -5  14  -47.92   57.96
 -13  -5  14  117.57  110.88
 -13  -4  14   -4.56   53.55
  13   3  14  -85.74  108.93
 -13  -2 -14   26.94   88.86
  13   2  14  139.88  115.21
 -13  -2  14   -7.03  117.23
  13   2  14   46.70   44.95
 -13  -1 -14  -58.09   89.90
  13   1  14   46.92  122.65
 -13  -1  14   31.55  120.31
  13   1  14  -56.57   45.97
 -13   0 -14  -68.35   86.95
  13   0  14  -10.81   45.30
  13   0  14 -128.23  124.19
 -13   1 -14  135.55   84.88
 -13   1 -14 -115.00   97.74
  13  -1  14  114.58  131.44
  13  -1  14   96.03   49.34
 -13   2 -14  -50.04   73.57
 -13   2 -14  -26.37  104.44
  13  -2  14  132.69  123.73
  13  -2  14  -10.58   48.68
 -13   3 -14   55.01  107.61
 -13   3 -14   -7.56   78.87
  13  -3  14  -33.40  120.76
  13  -3  14  -42.99   47.48
 -13   4 -14   -8.05   85.27
 -13   4 -14  -71.24  113.52
  13  -4  14   27.48   47.99
  13  -4  14  -59.08  131.46
 -13   5 -14  -41.96   78.66
 -13   5 -14  -81.31  127.30
  13  -5  14   63.16   49.59
  13  -5  14   73.15  116.66
 -13   6 -14  -46.56  124.71
 -13   6 -14   -8.63   76.83
  13  -6  14  -23.52   53.24
  13  -6  14   47.14  109.67
  13  -8  14  -88.69   61.06
  14   3  14  179.64  113.33
 -14  -2 -14 -118.15   94.83
  14   2  14    6.37   48.82
  14   2  14  227.35  126.59
 -14  -1 -14  -64.18   95.02
  14   1  14    6.22   49.55
  14   1  14  137.68  131.78
 -14   0 -14  159.14   98.93
  14   0  14  -70.83  131.08
  14   0  14  -35.93   50.54
 -14   1 -14   54.84   80.57
 -14   1 -14 -120.88  107.48
  14  -1  14 -116.16  127.78
  14  -1  14   83.07   47.53
 -14   2 -14   44.07  115.26
 -14   2 -14   40.05   79.67
  14  -2  14  137.33  131.38
  14  -2  14   -5.89   51.92
 -14   3 -14  101.39   91.80
 -14   3 -14   -7.64  117.48
  14  -3  14  -29.84   48.58
  14  -3  14  -92.52  142.85
 -14   4 -14  -39.38  127.11
 -14   4 -14  -35.86   94.89
  14  -4  14  151.18   55.21
  14  -4  14   84.69  137.97
 -14   6 -14  -48.08   90.21
  14  -6  14   83.70   55.22
  14  -6  14  -17.57  126.34
 -14   7 -14  186.58   94.55
 -14   7 -14  211.46  140.90
  14  -7  14  -98.69   58.85
  14  -7  14   26.06  120.28
  14  -8  14   20.39   57.89
 -15  -3 -14   67.16  103.37
  15   3  14  -82.76  131.16
 -15   3 -14    8.42  135.34
 -15   3 -14  124.33   97.88
  15  -3  14   30.70  144.19
  15  -3  14   19.89   58.02
 -15   4 -14  129.88  143.23
 -15   4 -14   89.82   99.36
  15  -4  14   86.23   61.67
  15  -4  14  341.93  161.18
 -15   5 -14  -52.65  110.58
 -15   5 -14  -62.26  136.12
  15  -5  14  301.07  150.16
  15  -5  14  -54.57   61.21
 -15   6 -14  106.84  106.98
 -15   6 -14    9.22  150.92
  15  -6  14  -56.10   59.24
  15  -6  14    9.80  129.70
 -15   7 -14 -152.97  154.42
 -15   7 -14  -10.93  103.77
  15  -7  14 -145.53  126.87
  15  -7  14  -35.73   69.36
 -16  -3 -14  138.54  117.55
  16   3  14  -40.13  144.16
 -16  -2 -14   17.96  121.55
  16   2  14  138.88   63.65
  16   2  14  -91.92  149.68
 -16  -1 -14   -8.76  115.23
  16   1  14  -22.42   60.47
  16   1  14  175.77  167.79
 -16   0 -14   47.63  100.74
 -16   0 -14    8.52  123.27
  16   0  14  162.03   62.31
  16   0  14   10.51  165.58
 -16   1 -14    9.66  101.49
 -16   1 -14  -78.85  132.63
  16  -1  14   14.65   61.39
  16  -1  14  205.24  157.31
 -16   2 -14 -144.33  135.35
 -16   2 -14  131.49  105.20
  16  -2  14  -57.87   58.01
  16  -2  14  -99.73  163.54
 -16   3 -14   18.55  145.34
 -16   3 -14 -105.72  108.71
  16  -3  14   33.71  156.75
  16  -3  14   -7.28   60.92
 -16   4 -14   56.23  120.45
 -16   4 -14   66.69  150.10
  16  -4  14  -73.74   61.99
  16  -4  14   56.87  163.75
 -16   5 -14   81.56  118.15
 -16   5 -14 -116.97  147.58
  16  -5  14  -99.46  157.56
  16  -5  14  -29.90   65.19
 -16   8 -14  138.12  173.73
  16  -8  14   78.90   70.34
 -17   5 -14 -128.72  127.84
 -17   5 -14  -10.65  169.28
  17  -5  14  133.84  175.44
  17  -5  14  -56.86   67.88
 -17   6 -14  162.43  166.28
 -17   6 -14 -106.16  121.28
  17  -6  14 -115.90   71.55
  17  -6  14   84.82  169.28
 -17   7 -14  -89.21  183.95
 -17   7 -14   80.59  133.57
  17  -7  14  -84.23   69.06
  17  -7  14  108.47  175.06
 -17   8 -14  262.80  191.85
 -18  -3 -14   67.75  146.45
  18   3  14  -60.61  177.18
 -18  -2 -14  -22.09  149.09
  18   2  14   49.01  195.66
  18   2  14    9.44   76.00
 -18  -1 -14  -34.90  121.39
 -18  -1 -14  172.88  154.58
  18   1  14  102.87   75.82
  18   1  14  123.56  193.39
 -18   0 -14  -23.48  124.90
 -18   0 -14 -147.29  155.96
  18   0  14  266.03  181.18
  18   0  14    9.24   76.24
 -18   1 -14  121.79  116.66
 -18   1 -14   21.40  166.90
  18  -1  14  -91.10  188.84
  18  -1  14   26.93   77.89
 -18   2 -14 -152.61  144.50
 -18   2 -14 -175.50  168.97
  18  -2  14   70.42   73.48
  18  -2  14  185.76  198.75
 -18   3 -14  -13.24  130.34
 -18   3 -14  111.84  171.95
  18  -3  14 -177.52  215.80
  18  -3  14   26.30   72.98
 -18   4 -14 -125.69  180.01
 -18   4 -14   83.10  138.06
  18  -4  14  161.84  202.52
  18  -4  14  -35.77   73.14
 -18   5 -14  104.57  182.30
 -18   5 -14   14.37  149.82
  18  -5  14  -71.54   72.51
  18  -5  14  120.33  192.24
 -18   6 -14 -103.10  138.87
 -18   6 -14  -82.71  190.84
  18  -6  14 -241.17  186.10
  18  -6  14  -45.04   79.30
 -18   7 -14  -11.98  196.74
 -18   7 -14  -89.19  143.92
  18  -7  14   82.54   79.46
 -18   8 -14  -12.35  205.37
  18  -8  14   37.11   77.28
  -1   1 -15  -17.74   38.45
   1   1 -15    5.74   28.25
  -1   1 -15   32.24   25.49
   2   1 -15    2.93   29.89
  -1   2 -15    9.57   23.99
   2   1 -15   19.98   42.56
  -1   2 -15  -23.05   37.13
  -2  -1  15   -4.57   67.10
   1  -2  15   38.87   50.36
   1  -2  15    5.31   25.22
   0   2 -15  -15.24   25.96
  -2   0 -15  -40.71   29.74
   2   0 -15    6.89   29.21
   0   2 -15   -6.83   39.06
   0  -2  15   58.15   52.81
  -2   0  15  -26.28   67.39
   1   2 -15   85.13   44.29
  -2   1 -15    6.90   38.61
  -2   1 -15   10.29   25.28
   1   2 -15  -26.41   27.16
  -1  -2  15  -45.09   55.49
   2  -1  15  -61.94   59.69
   2  -1  15    5.90   30.03
   2   2 -15  -24.64   26.80
  -2   2 -15   -2.25   24.77
  -2   2 -15  -28.53   35.78
   2   2 -15   11.09   38.81
   2  -2  15   62.75   54.18
   2  -2  15    7.12   30.84
  -2  -2  15    3.86   55.70
  -2   3 -15    2.01   21.02
  -2   3 -15   17.28   32.69
   3   2 -15  -50.22   41.24
   3   2 -15  -47.55   27.86
  -3  -2  15  -36.31   58.74
   2  -3  15  -65.92   43.19
  -1   3 -15  312.88   74.10
  -1   3 -15  289.38   81.43
   3   1 -15  524.25   69.23
   3   1 -15  296.81   90.08
   1  -3  15  320.67   95.51
  -3  -1  15  637.37  116.75
  -3   0 -15   26.86   29.43
   0   3 -15  -49.80   37.04
   0   3 -15  -18.99   23.69
   3   0 -15   31.64   29.66
   3   0 -15  -27.17   47.60
   0  -3  15   27.36   47.68
  -3   0  15   82.43   74.91
   1   3 -15  366.80   73.73
   1   3 -15  406.09   83.30
  -3   1 -15  531.27   82.69
   3  -1  15  333.64  108.37
  -1  -3  15  356.45   96.57
  -3   2 -15  -52.18   37.42
   2   3 -15    5.27   25.90
   2   3 -15   30.63   40.29
  -3   2 -15   14.61   20.81
  -2  -3  15    3.34   49.90
   3  -2  15   76.61   37.63
   3  -2  15  -38.01   53.68
   3   3 -15  -32.16   43.83
  -3   3 -15   10.81   18.66
  -3   3 -15  -11.21   37.22
   3   3 -15  -13.73   24.90
  -3  -3  15   56.11   51.63
   3  -3  15  -14.82   16.44
   3  -3  15  -33.41   46.85
   3  -3  15   -9.39   32.55
  -3   4 -15  129.27   30.46
  -3   4 -15  117.93   42.07
   4   3 -15   97.57   50.33
  -4  -3  15  243.96   63.92
   3  -4  15   83.33   51.86
   3  -4  15   93.87   34.78
  -2   4 -15  548.31  116.56
  -2   4 -15  691.39  105.26
   4   2 -15  356.24  123.09
  -4  -2  15  638.35  146.74
   2  -4  15  436.80  134.66
   2  -4  15  595.43  110.00
  -1   4 -15   96.61   48.59
   4   1 -15  210.26   60.97
  -1   4 -15  191.02   38.75
  -4  -1  15  159.15   84.27
   1  -4  15  152.78   58.94
   1  -4  15  168.42   43.12
   0   4 -15   -4.44   20.40
   0   4 -15   -2.99   35.60
  -4   0 -15  -22.44   28.45
   4   0 -15   -4.77   50.45
   0  -4  15   46.82   45.48
   4   0  15  -17.41   38.15
   0  -4  15   10.36   27.14
  -4   0  15   17.27   75.95
   1   4 -15  116.09   51.39
   1   4 -15  182.79   40.41
  -4   1 -15  215.67   44.75
   4  -1  15  217.05   57.58
  -1  -4  15  228.11   62.22
   2   4 -15  524.23  116.78
  -4   2 -15  618.60  119.76
  -4   2 -15  686.65  123.69
   2   4 -15  558.94  106.03
   4  -2  15  510.84  152.41
  -2  -4  15  613.74  135.59
   3   4 -15  111.45   36.41
  -4   3 -15  190.72   45.63
   3   4 -15  173.24   50.71
  -4   3 -15  153.18   31.80
   4  -3  15  126.37   56.18
  -3  -4  15  243.07   61.65
   4   4 -15  -36.45   46.12
  -4   4 -15   -9.87   18.70
  -4   4 -15  -19.66   30.27
   4  -4  15   -7.39   23.11
  -4  -4  15  -64.97   55.36
   4  -4  15   45.40   38.28
  -4   5 -15  312.60   52.40
   5   4 -15  157.25   61.25
  -4   5 -15  203.77   40.17
   5   4 -15  131.04   43.00
   4  -5  15  135.35   42.11
   4  -5  15  205.46   59.62
  -5  -4  15  201.08   72.48
  -3   5 -15  134.44   39.91
   5   3 -15   65.28   34.92
   5   3 -15   19.76   46.99
  -3   5 -15  159.47   26.87
  -5  -3  15  219.15   69.82
   3  -5  15   95.17   43.95
   3  -5  15   87.18   30.97
   5   2 -15  148.86   60.92
  -2   5 -15  206.22   36.73
   5   2 -15   32.99   37.41
  -2   5 -15  180.76   49.07
   2  -5  15  178.99   41.74
  -5  -2  15  337.97   80.60
   2  -5  15  181.49   57.36
   5   1 -15  317.30   78.59
  -1   5 -15  318.38   65.32
   5   1 -15  399.06   56.13
  -1   5 -15  265.52   52.12
   1  -5  15  230.36   76.59
   1  -5  15  227.37   56.32
  -5  -1  15  140.74   97.65
  -5   0 -15  183.12   51.20
   0   5 -15  191.16   41.22
   0   5 -15  221.14   54.59
   5   0 -15  165.82   45.99
   5   0 -15   95.47   67.39
   0  -5  15  198.90   46.21
  -5   0  15  133.01   94.50
   5   0  15  299.77   63.45
   0  -5  15  245.80   65.73
   1   5 -15  242.30   65.71
   1   5 -15  277.78   54.02
  -5   1 -15  269.93   65.13
   5  -1  15  223.62   75.93
  -1  -5  15  374.37   60.09
  -1  -5  15  328.76   80.29
  -5   2 -15  159.90   39.42
  -5   2 -15  279.23   49.29
   2   5 -15  102.11   54.36
   2   5 -15  203.96   39.97
   5  -2  15  243.88   62.10
  -2  -5  15  160.21   64.54
   5  -2  15  237.73   38.33
  -2  -5  15   63.42   43.29
  -5   3 -15  101.92   35.38
   3   5 -15  118.77   32.52
  -5   3 -15  197.46   39.34
   3   5 -15   71.67   44.70
  -5   3 -15   79.03   40.90
  -5   3 -15   84.08   24.20
   5  -3  15  123.21   49.23
   5  -3  15   17.79   25.87
  -3  -5  15  127.10   38.92
  -3  -5  15  108.11   55.26
   5  -3  15  104.53   53.64
   5  -3  15   84.24   25.06
  -5   4 -15  172.26   39.24
  -5   4 -15  282.79   51.71
   4   5 -15  192.74   61.35
   5  -4  15  118.38   35.67
   5  -4  15  127.22   54.67
  -4  -5  15  242.60   72.81
   5  -4  15  285.02   42.72
   5  -4  15  147.54   58.36
  -5   5 -15   22.37   20.86
   5   5 -15    7.98   49.37
  -5   5 -15   27.91   30.41
   5   5 -15  -35.93   31.14
  -5  -5  15  -19.48   63.34
  -5  -5  15   49.09   41.57
   5  -5  15   -9.53   22.37
  -5   6 -15  463.92   89.61
   6   5 -15  475.43   96.28
   6   5 -15  332.94   77.40
  -6  -5  15  440.71  117.97
  -6  -5  15  363.41   86.84
   6   4 -15  301.15   62.11
  -4   6 -15  412.34   69.56
  -4   6 -15  191.62   63.37
   6   4 -15  411.03   78.55
  -6  -4  15  265.65   94.01
   4  -6  15  407.00   85.27
   4  -6  15  403.78   62.69
   6   3 -15  161.40   52.57
   6   3 -15  150.01   71.43
  -3   6 -15  180.56   53.62
  -3   6 -15  241.87   62.15
   3  -6  15  222.08   79.11
  -6  -3  15  215.25   85.79
   3  -6  15  277.66   55.64
  -2   6 -15  639.51  113.58
   6   2 -15  334.07   91.47
  -2   6 -15  550.89   96.34
   6   2 -15  545.86  119.16
   2  -6  15  754.19  101.51
   2  -6  15  430.60  139.33
  -6  -2  15  620.07  145.92
   6   1 -15  267.74   50.26
   6   1 -15  193.40   74.16
  -1   6 -15  202.72   48.00
  -1   6 -15  294.20   61.69
   1  -6  15  159.46   76.34
   6   1  15  240.18   71.56
  -6  -1  15  164.62   98.05
   1  -6  15  221.24   52.70
   6   0 -15   21.23   60.21
   0   6 -15   -7.20   24.93
   6   0 -15    3.63   33.47
   0   6 -15  -28.52   39.07
   0  -6  15   21.25   45.67
  -6   0  15   19.09   85.02
   0  -6  15   36.30   30.57
   6   0  15  -30.34   52.54
   1   6 -15  228.46   62.49
   1   6 -15  305.14   49.78
  -6   1 -15  259.47   62.21
  -1  -6  15  265.26   55.03
  -1  -6  15  298.85   78.58
   6  -1  15  240.14   50.94
   6  -1  15  205.16   79.24
   2   6 -15  534.80   93.89
  -6   2 -15  402.38  101.20
   2   6 -15  322.64  111.33
  -2  -6  15  625.30  105.12
   6  -2  15  450.28   92.91
   6  -2  15  488.76  126.54
  -2  -6  15  603.50  136.76
   3   6 -15  430.36   66.27
  -6   3 -15  290.24   63.66
  -6   3 -15  249.63   61.96
   3   6 -15  268.01   51.70
   6  -3  15  259.42   46.46
  -3  -6  15  323.95   60.70
   6  -3  15  246.96   75.38
  -3  -6  15  319.27   83.50
   4   6 -15  376.03   76.46
  -6   4 -15  317.46   70.32
  -6   4 -15  308.26   70.88
   6  -4  15  278.01   75.08
  -4  -6  15  236.91   66.59
   6  -4  15  335.87   52.11
  -4  -6  15  362.76   91.29
   5   6 -15  371.81   75.27
   5   6 -15  321.26   94.33
  -5  -6  15  435.35   87.91
   7   6 -15  178.48   43.19
   7   6 -15  163.99   67.57
  -7  -6  15  260.22   80.93
  -7  -6  15   28.51   54.29
   7   3 -15  221.40   65.85
  -3   7 -15  128.58   49.58
  -3   7 -15  186.26   43.29
   7   3 -15  209.32   42.82
   3  -7  15  175.12   44.45
  -7  -3  15  156.93   79.94
  -2   7 -15  862.07  147.30
   7   2 -15  665.27  129.57
   7   2 -15  461.77  163.85
  -2   7 -15  814.47  160.03
   2  -7  15  746.11  144.24
  -7  -2  15  586.17  196.83
  -1   7 -15  100.96   40.69
   7   1 -15   16.74   34.31
  -1   7 -15   43.45   28.33
   7   1 -15   -5.09   59.82
  -7  -1  15  -34.73   90.24
   1  -7  15   70.77   32.58
   7   1  15   33.73   57.40
   0   7 -15  330.61   78.94
  -7   0 -15  445.08   79.82
   0   7 -15  302.87   66.50
   7   0 -15  471.69   67.04
   7   0 -15  140.26   91.25
   0  -7  15  380.64   71.10
  -7   0  15  228.21  133.47
   7   0  15  317.77   96.54
   1   7 -15  108.95   28.78
  -7   1 -15   86.85   49.97
   1   7 -15   81.70   38.15
   7  -1  15   57.60   67.82
  -1  -7  15   15.51   35.40
   7  -1  15   93.46   30.00
   2   7 -15  822.61  131.66
  -7   2 -15  669.96  140.64
   2   7 -15  817.02  153.43
   7  -2  15  900.66  177.96
   7  -2  15  735.70  126.63
  -2  -7  15  743.80  141.71
  -7   3 -15  243.48   55.24
   3   7 -15   93.99   51.66
  -7   3 -15  113.40   51.60
   3   7 -15  233.80   42.73
   7  -3  15  138.65   68.65
  -3  -7  15  175.70   72.28
   7  -3  15  137.36   33.35
  -3  -7  15  137.74   48.23
   6   7 -15  135.92   44.74
   6   7 -15  161.84   67.22
  -6  -7  15  146.46   82.63
  -6  -7  15   80.13   51.24
   7   7 -15   18.28   37.03
   7   7 -15   -9.66   67.40
  -7  -7  15   -4.79   81.13
   8   6 -15   32.89   38.86
   8   6 -15    4.96   61.86
  -8  -6  15  141.11   49.22
  -8  -6  15   45.14   87.15
   8   5 -15  499.61  110.72
   8   5 -15  543.60   88.29
  -8  -5  15  639.85   97.19
  -8  -5  15  474.29  133.49
  -4   8 -15    2.97   37.37
   8   4 -15   79.59   36.17
   8   4 -15   41.13   58.51
  -8  -4  15   83.58   48.28
  -8  -4  15  -51.17   78.14
   4   8 -15   64.10   34.95
  -8   4 -15   30.72   60.32
  -8   4 -15   34.65   45.78
   4   8 -15   40.66   52.09
   8  -4  15   36.40   66.79
   8  -4  15   39.07   28.82
  -4  -8  15   76.97   40.60
  -8   5 -15  305.34  112.07
  -8   5 -15  415.14  107.65
   5   8 -15  141.58  101.82
   8  -5  15  507.39  104.50
   8  -5  15  451.18   84.79
   6   8 -15  -23.02   60.89
  -6  -8  15   23.28   79.83
   8   8 -15   -5.31   52.70
   8   8 -15   16.65   43.00
  -8  -8  15   13.90   53.03
  -8  -8  15   -5.35   85.00
   9   7 -15   -4.00   40.90
  -9  -7  15    4.57   52.23
   9   5 -15  110.88   41.02
   9   5 -15    4.91   63.24
  -9  -5  15   84.12   52.61
  -9  -5  15   20.56   89.66
   9   4 -15  476.26   82.04
  -4   9 -15  408.20   91.11
   9   4 -15  290.59  104.04
  -9  -4  15  513.11   88.92
  -9  -4  15  325.66  124.90
  -3   9 -15   -9.58   39.50
   9   3 -15  -30.79   38.67
   9   3 -15 -138.99   63.28
  -9  -3  15   31.36   90.06
   9   2 -15  612.01  108.60
   9   2 -15  442.33  140.69
  -2   9 -15  631.77  121.13
  -9  -2  15  605.01  179.11
   9   1 -15    5.65   64.39
   9   1 -15   53.68   37.37
  -1   9 -15   26.88   40.34
  -9  -1 -15   43.28   58.82
  -9  -1  15   39.17  106.66
   9   1  15  -21.67   73.64
   1  -9  15  -18.64   39.31
   0   9 -15   83.02   42.37
  -9   0 -15  181.34   62.89
   9   0 -15   34.94   45.82
   0  -9  15  156.82   43.96
   9   0  15   11.97   34.80
  -9   0  15  119.76  109.63
   9   0  15  123.51   86.25
   1   9 -15    3.59   42.51
   1   9 -15  -22.19   36.21
  -9   1 -15   -8.15   57.65
   9  -1  15   -7.27   30.42
  -1  -9  15   11.49   38.70
   9  -1  15    5.55   84.66
   2   9 -15  726.06  114.35
   2   9 -15  325.22  116.38
  -9   2 -15  559.04  121.87
  -2  -9  15  651.95  118.67
   9  -2  15  605.51  100.16
   9  -2  15  609.39  159.74
   3   9 -15    3.92   49.46
  -9   3 -15   23.31   49.89
  -9   3 -15   21.08   68.40
   3   9 -15  -42.31   40.54
   9  -3  15  -60.69   29.76
  -3  -9  15   28.52   43.41
   9  -3  15  124.43   82.90
  -9   4 -15  630.70  106.01
  -9   4 -15  382.86  106.37
   9  -4  15  492.09   74.94
   9  -4  15  576.65  116.39
  -9   5 -15   26.04   53.15
  -9   5 -15   99.16   78.56
   9  -5  15  121.74   74.09
   9  -5  15   94.98   37.96
   6   9 -15   21.37   44.45
  -6  -9  15  -59.93   54.07
   7   9 -15    4.46   41.44
   7   9 -15  130.10   64.22
  -7  -9  15   57.76   53.10
   9   9 -15   -4.86   47.88
   9   9 -15   17.38   74.02
  -9  -9  15   -5.25   60.03
  -9  -9  15    5.99   89.94
  10   9 -15    5.06   49.33
  10   9 -15   -6.29   78.05
 -10  -9  15  148.72  107.75
 -10  -9  15  -49.20   60.74
  10   8 -15    4.66   46.68
  10   8 -15   12.31   75.33
 -10  -8  15    5.03   57.68
 -10  -8  15 -280.98  102.62
  10   5 -15   -5.20   66.05
 -10  -5  15   -5.43  101.13
  10   4 -15   78.85   38.66
  10   4 -15  -15.31   66.62
 -10  -4  15    4.19   42.23
 -10  -4  15  123.04   84.34
  10   3 -15  632.36   73.06
  10   3 -15  652.44  105.80
 -10  -3  15  564.74  128.61
  10   2 -15    7.29   39.05
  10   2 -15   -5.49   67.35
  10   2  15  -59.25   84.61
 -10  -2  15 -104.26   99.01
 -10  -1 -15   35.99   66.36
  10   1 -15  -17.88   76.92
  10   1 -15  -11.27   40.28
  10   1  15  146.82   92.51
 -10  -1  15   76.28   98.96
  10   1  15   36.57   36.15
   0  10 -15  -21.63   45.93
  10   0 -15   36.10   44.18
 -10   0 -15  -19.21   69.40
  10   0  15 -104.03   90.05
  10   0  15  -98.80   35.90
   1  10 -15   18.70   47.91
 -10   1 -15   22.80   63.48
  10  -1  15  192.24   90.65
  10  -1  15   44.05   32.75
   2  10 -15   50.36   47.71
 -10   2 -15   18.59   64.71
  10  -2  15   41.78   31.92
  10  -2  15  186.88   95.85
 -10   3 -15  143.78   90.95
 -10   3 -15  258.86   92.88
  10  -3  15  145.27   60.84
  10  -3  15  208.71  114.24
 -10   4 -15  -15.06   76.70
 -10   4 -15   28.28   57.08
  10  -4  15   35.94   84.54
  10  -4  15   19.51   35.48
  -4 -10  15  -64.87   48.71
 -10   5 -15  201.50   90.35
 -10   5 -15  -41.48   57.87
   5  10 -15   35.96   54.46
  10  -5  15  121.68   82.35
  10  -5  15   62.41   38.89
   8  10 -15   55.13   69.05
   8  10 -15  -86.71   50.85
  -8 -10  15    5.44   55.23
   9  10 -15    5.36   49.48
   9  10 -15    5.94   76.81
  -9 -10  15   28.29   59.42
  10  10 -15   -6.39   81.09
  10  10 -15   11.16   62.22
 -10 -10  15 -278.70  112.69
 -10 -10  15 -164.61   71.32
 -11 -10  15   64.60  121.53
  11   9 -15   47.55   87.10
  11   9 -15   -5.26   51.95
 -11  -9  15   -5.67   64.72
 -11  -9  15   14.10  124.99
  11   8 -15   -6.59   86.71
  11   8 -15    4.85   47.63
 -11  -8  15    6.85  115.88
 -11  -8  15  -36.90   62.56
  11   7 -15   26.58   43.90
  11   7 -15    6.21   82.24
 -11  -7  15    6.54  114.82
 -11  -7  15  -19.85   57.39
  11   6 -15    5.75   77.43
  11   6 -15   24.78   45.19
 -11  -6  15   49.24  100.78
 -11  -6  15   77.14   56.76
  11   3 -15  129.82   39.64
  11   3 -15   38.48   67.59
 -11  -3  15  -12.09   94.91
  11   2 -15   22.99   68.30
  11   2 -15  -22.53   37.50
 -11  -2  15   52.54   98.68
 -11  -1 -15  -38.91   75.63
  11   1 -15   37.71   73.66
  11   1 -15    3.90   42.66
  11   1  15   58.78   40.52
 -11  -1  15   22.25  120.70
 -11   0 -15  108.09   77.67
  11   0 -15  157.15   55.63
  11   0  15  124.44   48.97
  11   0  15  450.93  100.86
 -11   1 -15   81.54   76.75
  11  -1  15  117.16  111.56
  11  -1  15   26.69   36.96
 -11   2 -15   20.92   82.32
 -11   2 -15   65.25   61.36
  11  -2  15  200.05  104.05
  11  -2  15   72.34   36.72
 -11   3 -15  -36.01   62.18
 -11   3 -15  -32.50   86.54
  11  -3  15  159.25  103.47
  11  -3  15  -30.16   41.07
 -11   6 -15   89.23  109.88
 -11   6 -15   89.56   64.79
  11  -6  15   29.07   46.08
  11  -6  15  317.17   88.33
   9  11 -15   -6.09   72.84
  11  11 -15   14.07   93.66
 -11 -11  15  175.47  147.57
  12  11 -15  -22.81   97.22
 -12 -11  15  -94.76  138.56
  12  10 -15   -7.45   97.39
 -12 -10  15   12.74   67.85
 -12 -10  15 -188.11  128.26
  12   9 -15 -145.28   93.91
  12   9 -15  -10.99   52.10
 -12  -9  15   -7.74  118.97
 -12  -9  15    5.87   64.09
  12   7 -15   50.61   50.39
  12   7 -15    6.46   84.43
 -12  -7  15   21.42  119.76
 -12  -7  15 -138.73   59.68
  12   6 -15    6.03   77.35
  12   6 -15   17.13   46.40
 -12  -6  15    6.56  109.55
 -12  -6  15    4.97   57.96
  12   5 -15  -40.24   74.06
  12   5 -15   46.06   44.14
 -12  -5  15   66.95   55.51
 -12  -5  15 -171.56  110.79
  12   4 -15   -3.96   41.61
 -12  -4  15   41.86   55.67
  12  -5  15  -95.69  107.10
 -12   6 -15 -131.69   78.60
  12  -6  15  -77.20   95.30
  13  10 -15   15.92  102.17
 -13 -10  15 -215.28  144.36
 -13 -10  15   65.60   72.24
  13   9 -15  -90.82   61.50
  13   9 -15    7.70  101.72
 -13  -9  15   57.75  147.41
 -13  -9  15 -128.15   73.15
  13   8 -15   47.50   55.36
  13   8 -15    7.22   92.78
 -13  -8  15  237.52  138.00
 -13  -8  15   11.26   65.19
  13   6 -15   37.66   80.77
  13   6 -15   35.69   47.67
  13   5 -15    8.60   45.70
  13   5 -15   48.05   74.75
 -13  -5  15   25.30   63.16
 -13  -5  15   32.99  114.69
  13   4 -15   63.28   48.21
  13   4 -15  -17.75   72.69
 -13  -4  15   66.87  107.66
 -13  -4  15   33.84   56.69
  13   3 -15  -31.91   41.77
 -13  -3  15  -14.08   54.71
 -13  -2 -15   -6.91   87.96
  13   2  15   47.92  112.04
 -13  -1 -15  105.52   93.84
  13   1  15 -104.01  110.81
  13   1  15   46.09   46.06
 -13   0 -15   87.84   89.52
  13   0  15   11.18   45.74
  13   0  15  -24.60  122.15
 -13   1 -15  -12.71   97.04
 -13   1 -15   21.94   78.27
  13  -1  15  -21.56   48.05
  13  -1  15  192.82  132.70
 -13   2 -15   43.88   76.10
 -13   2 -15   -6.56   97.86
  13  -2  15   93.23  122.37
  13  -2  15    5.31   46.09
 -13   3 -15  -77.01   81.01
 -13   3 -15   40.79  106.11
  13  -3  15 -111.70  136.20
  13  -3  15   59.15   45.25
 -13   4 -15  -14.12  107.97
 -13   4 -15  -24.59   78.82
  13  -4  15   85.56  124.82
  13  -4  15  -82.78   46.14
 -13   5 -15    8.48   87.56
 -13   5 -15  -73.26  115.26
  13  -5  15  -33.98   53.52
  13  -5  15   16.48  118.22
 -13   6 -15   23.04  123.17
 -13   6 -15   -8.68   80.34
  14  11 -15   69.01  109.00
 -14 -11  15 -100.92  149.38
 -14 -10  15  182.92  161.96
 -14  -8  15    5.86   63.42
 -14  -2 -15  -75.41  100.09
  14   2  15  -32.40   52.17
  14   2  15 -223.97  129.40
 -14  -1 -15  -29.05   97.46
  14   1  15 -114.29  126.78
  14   1  15   -6.32   51.40
 -14   0 -15   -6.96   97.05
  14   0  15   54.30  139.34
  14   0  15  -24.74   54.90
 -14   1 -15   72.17   82.28
 -14   1 -15  -42.45  102.39
  14  -1  15  164.65  134.25
  14  -1  15   23.96   50.20
 -14   2 -15   -8.17   79.12
 -14   2 -15  -51.26  106.88
  14  -2  15 -118.27   50.81
  14  -2  15  131.11  138.76
 -14   3 -15   98.25  114.32
 -14   3 -15  -94.77   84.55
 -14   6 -15  -75.09  142.08
 -14   6 -15   87.33   88.80
  14  -6  15 -220.99  130.10
  14  -6  15  -25.98   54.96
  14  -7  15   32.99   63.92
  14  -7  15   25.98  122.02
 -15  -2 -15   49.66  108.25
  15   2  15  -37.92  131.29
  15   2  15   -7.09   56.17
 -15  -1 -15    8.02  112.32
  15   1  15   -6.95   59.63
  15   1  15 -115.96  138.69
 -15   0 -15   15.45  111.64
  15   0  15  -88.88  135.82
  15   0  15   41.10   53.30
 -15   1 -15  -23.62  121.31
 -15   1 -15 -159.38   96.12
  15  -1  15 -100.07  156.06
  15  -1  15   94.83   50.63
 -15   2 -15   45.47   95.49
 -15   2 -15   40.64  125.75
  15  -2  15  -85.27   53.54
  15  -2  15 -103.20  163.89
 -15   3 -15  -97.66   95.98
 -15   3 -15   92.08  135.94
  15  -3  15  114.74  150.41
  15  -3  15  -46.20   60.81
 -15   4 -15   71.02  107.29
 -15   4 -15  129.90  132.03
  15  -4  15   33.78   57.62
  15  -4  15  -21.14  152.81
 -15   5 -15  -21.38  106.62
 -15   5 -15    8.89  146.95
  15  -5  15  -61.12  140.48
  15  -5  15  -54.86   59.56
 -15   6 -15  -45.44  154.33
 -15   6 -15  -97.26   94.86
  15  -6  15  -28.16   61.89
  15  -6  15  187.59  132.72
 -15   7 -15  207.38  154.83
 -15   7 -15   11.00  104.25
  15  -7  15   48.48  131.89
  15  -7  15   28.74   60.39
  16   3  15  153.73  147.49
 -16  -2 -15   45.63  123.16
  16   2  15    7.81   58.35
  16   2  15  -52.12  158.26
 -16  -1 -15    8.89  126.77
  16   1  15   84.50   62.79
  16   1  15  191.58  150.05
 -16   0 -15  -85.75  120.31
 -16   0 -15   87.51   99.10
  16   0  15  -45.54   61.98
  16   0  15   53.66  152.23
 -16   1 -15   43.66  127.05
 -16   1 -15   78.18  111.60
  16  -1  15 -110.32  170.88
  16  -1  15   60.08   60.36
 -16   2 -15  -51.43  107.88
 -16   2 -15  -35.95  131.97
  16  -2  15 -147.26  175.46
  16  -2  15 -118.56   64.00
 -16   3 -15 -129.43  103.44
 -16   3 -15   92.25  144.04
  16  -3  15    7.28   62.76
  16  -3  15  -68.70  165.43
 -16   4 -15  -38.15  146.86
 -16   4 -15 -114.28  116.19
  16  -4  15   14.88   65.67
  16  -4  15   92.93  154.33
 -16   7 -15   97.75  109.04
 -16   7 -15   10.22  166.07
  16  -7  15   75.94  151.68
  16  -7  15 -108.99   70.43
  17   3  15  157.41  156.55
 -17   3 -15  -97.39  118.49
  17  -3  15  -48.78   68.31
  17  -3  15  101.19  195.92
 -17   4 -15   52.05  163.42
 -17   4 -15  -88.90  116.24
  17  -4  15  127.05  191.82
  17  -4  15    8.18   68.97
 -17   5 -15   52.35  125.91
 -17   5 -15   10.63  169.60
  17  -5  15  -12.39  179.95
  17  -5  15    8.23   68.47
 -17   6 -15  -13.44  132.48
 -17   6 -15 -108.24  176.68
  17  -6  15  -85.70  171.41
  17  -6  15  -99.70   72.41
 -17   7 -15 -244.26  136.22
 -17   7 -15  -87.89  185.97
  17  -7  15  -48.45  157.61
  17  -7  15  -59.31   71.72
 -18  -2 -15 -235.18  154.31
  18   2  15  -47.66   74.09
  18   2  15  -12.49  177.91
 -18  -1 -15 -164.33  153.32
 -18  -1 -15  -35.47  121.81
  18   1  15  189.01  182.55
  18   1  15  -47.15   75.31
 -18   0 -15   35.52  119.98
 -18   0 -15  116.54  154.31
  18   0  15  -37.20   73.57
  18   0  15  206.44  201.60
 -18   1 -15  -42.76  154.77
 -18   1 -15  -98.87  132.97
  18  -1  15 -212.39  217.32
  18  -1  15   91.63   76.47
 -18   2 -15  -98.41  163.03
 -18   2 -15  142.45  126.27
  18  -2  15   -9.09   75.55
  18  -2  15 -135.21  199.09
 -18   3 -15 -212.59  175.85
 -18   3 -15 -188.40  147.41
  18  -3  15  153.40  210.75
  18  -3  15   62.63   71.72
 -18   4 -15   56.27  155.12
 -18   4 -15  -68.36  182.97
  18  -4  15   26.78   77.24
  18  -4  15  426.42  196.24
 -18   5 -15   73.15  141.48
 -18   5 -15  151.21  185.97
  18  -5  15  -36.05   78.03
  18  -5  15   54.42  199.03
 -18   6 -15   11.80  192.84
 -18   6 -15  178.88  140.95
  18  -6  15  -36.00   77.90
  18  -6  15  298.29  198.77
 -18   7 -15  -60.14  131.03
 -18   7 -15  107.44  192.17
  18  -7  15  -54.65   83.11
   0   0 -16 4557.76  821.00
  -1   0 -16   -3.51   31.98
   1   0 -16   18.10   34.14
   0   1 -16   -9.01   29.09
   0   1 -16  -12.03   42.66
   0  -1  16    4.71   65.23
  -1   1 -16 1266.46  204.47
   1   1 -16  652.35  218.58
  -1   1 -16 1332.67  216.92
  -1  -1  16 1021.84  270.06
   1  -1  16 1251.05  269.53
   2   1 -16   25.16   29.81
  -1   2 -16   65.81   28.28
   2   1 -16   78.03   50.78
  -1   2 -16  100.89   43.02
  -2  -1  16  164.21   72.52
   1  -2  16   90.95   58.37
   0   2 -16  142.38   49.66
   2   0 -16   85.03   40.50
  -2   0 -16  107.94   39.80
   0   2 -16  120.98   36.47
   0  -2  16  201.05   69.54
  -2   0  16  119.18   86.53
  -2   1 -16  -18.99   39.32
   1   2 -16   38.84   45.09
   1   2 -16   25.62   30.40
  -2   1 -16   16.62   26.09
  -1  -2  16   20.75   64.21
   2  -1  16   68.19   64.77
   2  -1  16   45.98   33.35
  -2   2 -16  157.93   37.81
   2   2 -16  111.69   37.88
   2   2 -16  141.41   53.22
  -2   2 -16  126.05   49.77
   2  -2  16  158.96   70.75
  -2  -2  16  167.70   74.57
  -2   3 -16  778.96  159.62
   3   2 -16 1040.13  130.78
   3   2 -16  366.30  157.75
  -3  -2  16  621.78  188.49
   2  -3  16  865.25  180.06
   3   1 -16   54.88   34.09
  -1   3 -16   86.60   42.46
  -1   3 -16    7.31   25.66
   3   1 -16  -58.73   53.58
  -3  -1  16   -5.16   79.82
   1  -3  16   29.77   54.43
   3   0 -16   11.17   35.89
   0   3 -16  -24.09   39.57
   0   3 -16   -7.78   25.65
  -3   0 -16  -45.11   32.40
  -3   0  16   47.30   88.15
   0  -3  16  -54.80   53.18
  -3   1 -16  -15.79   27.20
   1   3 -16   17.88   40.31
   1   3 -16   70.86   27.01
  -1  -3  16    3.56   55.89
  -3   2 -16  928.95  157.15
   2   3 -16  823.37  154.73
  -3   2 -16  777.89  161.22
   3  -2  16  542.75  194.61
  -2  -3  16  734.32  176.46
  -3   3 -16  130.37   34.85
   3   3 -16  171.74   52.46
   3   3 -16  165.09   38.74
  -3   3 -16  121.82   49.44
   3  -3  16  186.71   62.17
  -3  -3  16   62.45   67.61
   4   3 -16  -16.37   44.56
  -3   4 -16   -2.87   37.56
  -3   4 -16  -15.03   19.53
   3  -4  16   25.33   47.10
  -4  -3  16   20.53   64.94
   3  -4  16   -8.92   26.20
   4   2 -16    4.40   51.21
  -2   4 -16   43.55   22.00
  -2   4 -16   47.77   37.92
  -4  -2  16  -60.85   75.39
   2  -4  16   46.56   49.39
   2  -4  16   43.70   27.89
   4   1 -16  486.15  104.57
  -1   4 -16  445.81   92.92
  -1   4 -16  404.54   83.55
   1  -4  16  474.10  108.35
   1  -4  16  408.02   87.93
  -4  -1  16  624.53  135.52
   0   4 -16   87.43   26.57
   0   4 -16   91.36   43.21
  -4   0 -16   62.40   34.71
   4   0  16   88.14   44.36
  -4   0  16  135.88   88.30
   0  -4  16   96.37   53.39
   1   4 -16  397.43   83.87
  -4   1 -16  446.37   97.23
   1   4 -16  471.87   93.92
   4  -1  16  469.78  106.22
  -1  -4  16  607.16  110.91
  -4   2 -16   -6.27   21.77
   2   4 -16   46.57   29.49
   2   4 -16    7.16   46.17
  -4   2 -16   16.71   39.98
   4  -2  16   19.30   58.53
  -2  -4  16  -42.52   55.93
   4  -2  16   45.05   45.19
   3   4 -16   -8.61   29.72
   3   4 -16  -18.78   45.27
  -4   3 -16   -7.19   17.75
  -4   3 -16   18.29   37.60
   4  -3  16   12.85   54.08
  -3  -4  16 -100.55   63.95
  -4   4 -16   41.90   20.16
   4   4 -16   59.29   48.27
  -4   4 -16  -11.07   36.19
   4  -4  16   13.41   44.98
   4  -4  16  -10.13   24.03
  -4  -4  16   27.44   60.57
  -4   5 -16  110.51   37.39
   5   4 -16   29.17   52.26
  -4   5 -16   32.38   19.95
   5   4 -16    3.13   33.02
  -5  -4  16  119.76   66.28
   4  -5  16   44.71   46.53
   4  -5  16   53.21   25.20
   5   3 -16   34.77   34.89
   5   3 -16   -4.30   50.51
  -3   5 -16   88.71   36.55
  -3   5 -16    6.07   21.39
   3  -5  16    4.62   27.26
  -5  -3  16  -38.94   65.33
   3  -5  16   40.60   46.28
  -2   5 -16  908.21  151.08
  -2   5 -16  888.64  173.10
   5   2 -16  863.30  139.49
   5   2 -16 1035.19  178.56
  -5  -2  16  893.19  211.78
   2  -5  16  890.52  200.68
   2  -5  16  795.10  158.59
  -1   5 -16   -4.65   22.37
   5   1 -16    3.38   34.19
   5   1 -16   54.34   57.24
  -1   5 -16    3.18   41.11
   1  -5  16  -42.46   48.27
  -5  -1  16   78.76   79.37
   1  -5  16   21.34   30.40
  -5   0 -16    8.27   30.35
   0   5 -16  -16.64   40.17
   0   5 -16   -2.43   22.47
   5   0 -16   23.05   37.21
   0  -5  16   63.17   33.41
   5   0  16  -13.91   47.46
   0  -5  16    3.19   50.35
  -5   0  16   12.93   88.01
  -5   1 -16  -40.16   25.69
   1   5 -16   20.74   27.51
   1   5 -16   17.49   39.93
  -1  -5  16   -6.11   34.38
  -1  -5  16   -3.36   52.48
   5  -1  16   69.26   54.03
   2   5 -16  809.15  150.93
  -5   2 -16  921.78  176.32
   2   5 -16 1170.04  170.43
  -5   2 -16  827.96  165.98
   5  -2  16  954.21  165.00
  -2  -5  16  635.02  201.01
  -2  -5  16  748.13  159.98
   5  -2  16  771.97  223.76
   5  -2  16  895.94  188.63
  -5   3 -16    2.98   37.08
   3   5 -16   -8.54   28.33
   3   5 -16  -26.95   46.18
  -5   3 -16   11.02   18.78
   5  -3  16   18.25   21.67
  -3  -5  16    3.39   36.68
   5  -3  16  -32.98   48.85
  -3  -5  16   48.23   58.94
  -5   4 -16   32.69   20.11
   4   5 -16   68.70   46.07
  -5   4 -16   32.18   37.04
   4   5 -16   41.89   29.99
  -4  -5  16   89.82   62.15
  -4  -5  16   92.15   41.17
   5   5 -16   47.03   29.50
   5   5 -16   42.46   53.35
  -5  -5  16    8.54   69.25
  -3   6 -16  223.11   69.01
  -3   6 -16  316.23   55.86
   6   3 -16  353.90   57.87
   6   3 -16  449.61   78.01
   3  -6  16  301.12   82.97
   3  -6  16  201.88   55.71
  -6  -3  16  375.33   94.92
   6   2 -16   62.68   60.18
  -2   6 -16   68.71   48.38
  -2   6 -16  120.33   34.64
   6   2 -16  105.89   40.98
   2  -6  16   54.34   39.65
  -6  -2  16  336.17   90.67
   2  -6  16  156.23   60.24
  -1   6 -16  235.26   69.20
  -1   6 -16  313.74   52.91
   6   1 -16  202.05   81.53
   6   1 -16  371.43   56.57
  -6  -1  16  353.90  113.21
   1  -6  16  237.09   59.33
   1  -6  16  189.06   84.17
   6   0 -16  259.41   48.14
   0   6 -16  263.04   58.37
   0   6 -16  171.82   43.64
   6   0  16   70.68   70.22
  -6   0  16   54.27  107.27
   0  -6  16  205.16   50.93
   0  -6  16  201.37   69.19
  -6   1 -16  224.29   68.41
   1   6 -16  321.70   70.27
   1   6 -16  190.32   53.17
   6  -1  16  300.30   87.35
  -1  -6  16  272.05   85.78
  -1  -6  16  302.44   62.48
   2   6 -16  191.10   39.09
  -6   2 -16  216.70   51.08
   2   6 -16  146.50   56.03
   6  -2  16  245.66   37.11
   6  -2  16   30.73   68.80
  -2  -6  16  228.09   70.53
  -2  -6  16  202.74   47.37
  -6   3 -16  296.39   64.28
   3   6 -16  331.15   58.92
  -6   3 -16  264.39   70.19
   3   6 -16  284.11   72.37
  -3  -6  16  329.35   88.99
   6  -3  16  319.10   79.58
   6  -3  16  209.90   50.68
  -3  -6  16  150.80   62.89
   6   6 -16   70.42   69.62
   6   6 -16  214.44   50.28
  -6  -6  16  158.11   84.28
  -6  -6  16  218.85   58.10
   7   6 -16    4.97   60.94
   7   6 -16    3.73   36.31
  -7  -6  16    4.24   50.64
  -7  -6  16    9.90   85.14
   7   5 -16    4.71   65.84
   7   5 -16   62.95   39.00
  -7  -5  16  137.80   49.92
  -7  -5  16  114.54   78.75
   7   1 -16  228.62   82.05
  -1   7 -16  230.77   51.40
  -1   7 -16  270.55   63.86
   7   1 -16  184.71   52.84
   1  -7  16  259.91   83.24
  -7  -1  16  131.26  114.41
   7   1  16  127.16   78.55
   1  -7  16  221.86   55.28
   7   0 -16   43.11   39.25
   0   7 -16   10.54   45.12
   0   7 -16   16.81   27.88
   7   0  16  -36.01   68.35
  -7   0  16  -14.26   97.13
   0  -7  16   -9.28   33.41
   0  -7  16   -3.46   56.07
   1   7 -16  269.58   49.14
  -7   1 -16  217.65   64.02
   1   7 -16  244.84   66.91
  -1  -7  16  336.11   58.64
   7  -1  16  229.78   52.19
  -1  -7  16  230.80   81.90
   7  -1  16  281.92   90.67
   5   7 -16    4.49   62.35
  -5  -7  16   84.23   81.07
   6   7 -16  128.18   37.52
   6   7 -16    4.82   58.67
  -6  -7  16   32.92   78.21
  -6  -7  16   -4.26   47.23
   8   7 -16    4.02   41.54
  -8  -7  16    4.64   49.27
   8   5 -16  -36.52   37.13
   8   5 -16    9.97   65.04
  -8  -5  16   42.51   46.47
  -8  -5  16    5.12   85.23
  -4   8 -16  191.49   55.79
   8   4 -16  207.49   44.48
   8   4 -16   29.53   72.02
  -8  -4  16  295.63   59.20
  -8  -4  16  287.92   96.41
  -3   8 -16  175.25   49.04
  -3   8 -16  109.59   37.51
   8   3 -16  227.41   68.77
   8   3 -16   17.51   39.12
  -8  -3  16  111.11   84.90
   3  -8  16   47.61   38.91
   8   2 -16  370.38  112.49
  -2   8 -16  530.58   99.09
  -2   8 -16  421.30   92.49
   8   2 -16  458.98   80.19
  -8  -2  16  343.77  142.00
   2  -8  16  385.83   90.66
  -8   2 -16  448.78   93.71
   2   8 -16  437.74   96.48
   2   8 -16  399.84   83.57
   8  -2  16  348.64  125.08
   8  -2  16  433.60   78.46
  -2  -8  16  541.90   88.83
  -8   3 -16   80.51   57.53
   3   8 -16   79.82   38.29
   3   8 -16   20.40   51.70
  -8   3 -16  108.70   48.82
  -3  -8  16  134.80   47.52
   8  -3  16   81.61   32.14
   8  -3  16   81.79   78.50
   4   8 -16   47.12   45.39
   4   8 -16  134.13   63.80
  -8   4 -16  154.21   57.41
   8  -4  16  201.28   39.63
   8  -4  16  178.76   78.92
  -4  -8  16  129.85   56.56
  -4  -8  16   78.18   82.41
   5   8 -16    4.57   59.60
  -5  -8  16   -4.59   73.18
   7   8 -16 -157.90   43.36
   7   8 -16   -5.23   53.36
  -7  -8  16   -4.67   53.34
  -7  -8  16   -5.21   79.20
   9   8 -16    4.56   47.91
   9   8 -16    6.07   77.65
  -9  -8  16   10.18   58.64
  -9  -8  16  187.91  111.06
  -9  -6  16   -4.69   59.03
   9   4 -16  -41.50   62.65
  -4   9 -16  -26.59   43.11
   9   4 -16   29.31   37.79
  -9  -4  16   43.03   84.83
  -9  -4  16  171.41   47.52
   9   3 -16  342.76   76.83
   9   3 -16  440.50  103.60
  -3   9 -16  388.87   86.37
  -9  -3  16  377.80  131.35
   9   2 -16    5.56   66.93
  -2   9 -16   87.44   46.13
   9   2 -16  107.14   40.95
  -9  -2  16   37.10  105.18
   9   1 -16    6.00   70.53
  -1   9 -16   43.09   45.11
   9   1 -16  117.37   40.33
   9   1  16   55.73   81.05
   1  -9  16   -7.41   38.30
  -9  -1  16  125.28  105.94
   9   0 -16  -20.59   40.52
  -9   0 -16   37.04   60.95
   0   9 -16    3.71   33.34
   0   9 -16    3.70   44.87
   9   0  16  -33.41   33.28
   9   0  16   17.38   85.22
   0  -9  16   57.05   36.59
   1   9 -16    3.74   37.13
  -9   1 -16   46.11   55.45
   1   9 -16  103.89   50.68
   9  -1  16   38.25   32.54
  -1  -9  16   50.68   41.95
   9  -1  16   11.41   86.95
  -9   2 -16   57.37   60.30
   2   9 -16   12.01   46.20
   2   9 -16  133.26   40.85
   9  -2  16   70.91   32.89
   9  -2  16  126.03   90.74
  -2  -9  16   28.32   47.00
  -9   3 -16  419.48  101.73
  -9   3 -16  525.01   94.07
   3   9 -16  251.32   86.37
   9  -3  16  291.89  117.67
   9  -3  16  371.57   66.00
  -9   4 -16    9.87   51.84
  -9   4 -16  -13.00   64.35
   9  -4  16   30.89   32.08
   9  -4  16   63.54   82.97
   6   9 -16   -4.44   42.06
   6   9 -16    4.96   64.83
  -6  -9  16   14.20   51.39
   8   9 -16    4.85   45.72
   8   9 -16    5.75   74.12
  -8  -9  16   77.52   63.24
  -8  -9  16  197.00   99.19
   9   9 -16   12.31   83.33
   9   9 -16  -25.31   52.39
  -9  -9  16    6.24   97.26
  -9  -9  16  -80.89   62.74
  10   9 -16   -6.68   89.85
  10   9 -16    5.28   55.86
 -10  -9  16  183.90  121.07
 -10  -9  16   56.20   57.34
  10   8 -16   65.36   86.92
  10   8 -16    4.76   52.56
 -10  -8  16   42.27   59.78
 -10  -8  16    6.67  107.27
  10   7 -16    6.21   81.93
  10   7 -16    4.40   45.01
 -10  -7  16 -100.42   58.17
 -10  -7  16  231.28  107.37
  -4  10 -16  211.61   53.36
  10   3 -16   -3.78   36.33
  10   3 -16    5.59   71.93
  -3  10 -16   28.39   43.51
 -10  -3  16   -6.08   99.60
  10   2 -16  -11.55   43.04
  -2  10 -16  -21.77   45.11
  10   2 -16   23.27   70.88
 -10  -2  16    6.60  111.93
  10   1 -16    3.97   40.90
  -1  10 -16   59.41   44.27
  10   1 -16  -37.94   72.03
 -10  -1 -16   37.43   66.01
  10   1  16   -6.30   94.26
 -10  -1  16  193.05  121.27
   0  10 -16    7.62   47.76
  10   0 -16  -46.73   46.18
 -10   0 -16  -14.90   63.60
  10   0  16  -26.65   35.13
  10   0  16   44.19   89.31
 -10   1 -16   -4.60   61.28
   1  10 -16  -19.71   47.94
  10  -1  16    8.38   35.87
  10  -1  16   -6.36   89.48
 -10   2 -16  101.48   70.33
  10  -2  16  114.27   33.44
  10  -2  16   44.77   94.32
 -10   3 -16  -14.19   70.76
   3  10 -16  -13.28   42.11
 -10   3 -16    5.40   56.43
  10  -3  16   65.38   30.14
  -3 -10  16 -128.68   51.37
  10  -3  16   56.40   93.11
 -10   4 -16  143.21   82.66
   4  10 -16   40.62   49.27
   4  10 -16   81.08   62.45
 -10   4 -16  258.42   73.34
  10  -4  16  121.17   93.68
  -4 -10  16   33.44   60.91
  10  -4  16  198.95   42.48
   7  10 -16  100.88   53.28
   7  10 -16    5.39   70.00
  -7 -10  16    5.42   53.03
   8  10 -16    5.80   70.53
   8  10 -16   21.03   51.99
  -8 -10  16   -5.65   63.26
   9  10 -16   12.46   78.44
   9  10 -16  -21.92   56.39
  -9 -10  16    6.40  108.58
  -9 -10  16    5.88   63.33
  11  10 -16  123.58   94.48
 -11 -10  16    6.34   69.63
 -11 -10  16 -151.42  128.20
  11   8 -16    6.94   88.24
  11   8 -16  -25.40   50.63
 -11  -8  16  -16.45   58.68
 -11  -8  16   51.61  126.11
  11   7 -16    6.52   82.94
  11   7 -16   -4.58   49.63
 -11  -7  16  156.46   64.10
 -11  -7  16  -70.67  122.56
  11   6 -16  -26.35   48.97
  11   6 -16   79.47   79.92
 -11  -6  16  190.04  118.95
 -11  -6  16    5.16   55.71
  11   5 -16   63.64   48.13
  11   5 -16   -5.87   68.31
 -11  -5  16   19.36   58.89
 -11  -5  16   -6.16  100.20
  11   1 -16   -4.13   29.57
  11   1 -16  -13.30   81.18
 -11  -1  16   -7.85  123.36
  11   0 -16  122.64   47.19
 -11   0 -16  -48.63   75.07
  11   0  16   28.70   40.05
 -11   1 -16   20.46   74.88
  11  -5  16  232.48   97.49
  11  -5  16   22.87   44.51
   6  11 -16    5.21   63.30
  -6 -11  16    5.66   62.38
   7  11 -16    5.55   68.43
  -7 -11  16    5.89   64.56
   8  11 -16   -5.93   74.99
  -8 -11  16    6.12   63.25
  10  11 -16 -109.64   87.29
 -10 -11  16   -6.63   65.29
 -10 -11  16  -98.71  112.67
  11  11 -16   29.77   97.13
 -11 -11  16  129.56  140.63
  12  11 -16    7.97  100.83
  12  10 -16    6.23   63.12
  12  10 -16  165.35  117.07
 -12 -10  16  196.09  142.30
 -12 -10  16    6.56   80.26
  12   9 -16   -5.70   59.18
  12   9 -16    7.70   97.74
 -12  -9  16   24.54   65.28
 -12  -9  16    8.08  129.34
  12   7 -16  -19.01   50.27
  12   7 -16   -6.80   86.61
 -12  -7  16    5.41   59.68
 -12  -7  16  141.68  133.94
  12   6 -16  -49.94   48.17
  12   6 -16   70.71   83.53
 -12  -6  16   49.02  112.24
 -12  -6  16   -5.28   62.36
  12   5 -16  -52.67   43.07
  12   5 -16   -6.15   71.45
 -12  -5  16   45.38   57.47
 -12  -5  16    6.65  112.13
  12   4 -16   72.65   78.62
  12   4 -16    4.20   44.85
 -12  -4  16   20.01  106.64
 -12  -4  16   39.10   54.85
  12   3 -16   20.48   43.19
 -12  -3  16   51.69   58.86
  12   2  16 -182.60  118.69
  12   1  16  -30.12  110.70
  12   1  16  -32.58   42.06
  12   0  16   98.93  109.17
  12   0  16   -5.22   39.85
  12  -1  16  -15.69  110.47
 -12   2 -16   -6.76   75.96
  12  -2  16  117.59  128.65
  12  -3  16   47.35  110.90
 -12   4 -16   -7.30   75.04
  12  -4  16  108.13  114.47
 -12   5 -16   60.97   78.14
  12  -5  16  127.27  104.88
  13  11 -16    8.59  106.11
 -13 -11  16 -125.62  151.71
  13   9 -16   -5.94   59.76
  13   9 -16    8.11  117.38
 -13  -9  16   50.66   71.24
 -13  -9  16   44.43  160.41
  13   8 -16    7.60   98.96
  13   8 -16    5.47   57.76
 -13  -8  16  -29.54   71.43
 -13  -8  16   51.44  140.72
  13   7 -16  -10.05   53.36
  13   7 -16   28.38   88.03
 -13  -7  16   44.78   61.97
 -13  -7  16  150.58  139.53
  13   5 -16   96.67   84.14
 -13  -5  16  245.18  112.50
 -13  -5  16    5.27   61.63
  13   4 -16  -56.81   77.67
  13   4 -16 -104.71   47.66
 -13  -4  16    5.11   59.01
 -13  -4  16  -57.24  111.90
  13   3 -16  -63.76   79.25
  13   3 -16  -51.04   42.32
 -13  -3  16  -64.16   64.51
 -13  -3  16   14.80  120.88
  13   2 -16  -72.94   47.84
  13   2 -16  -73.54   79.34
  13   2  16   57.45  117.01
 -13  -2  16  150.21  120.68
  13   1 -16   -4.46   49.32
 -13  -1 -16  -13.56   89.72
  13   1  16 -164.04  123.35
  13   1  16    5.89   43.14
  13   0 -16   65.38   48.52
 -13   0 -16    6.52   88.44
  13   0  16   67.56  129.79
  13   0  16   28.15   48.72
 -13   1 -16 -107.62   90.44
  13  -1  16   27.52   45.94
  13  -1  16  -51.58  126.73
 -13   2 -16   84.66   99.98
 -13   2 -16  157.13   75.68
  13  -2  16  138.55  127.43
  13  -2  16   -5.45   46.15
 -13   3 -16    7.84   81.00
 -13   3 -16   -6.72  103.96
  13  -3  16  -75.96   51.57
  13  -3  16  114.14  125.84
 -13   4 -16    8.15   80.48
 -13   4 -16  -63.18  108.70
  13  -4  16   38.73   47.96
  13  -4  16 -155.99  127.05
 -13   5 -16  261.72  127.39
 -13   5 -16   25.71   87.47
  13  -5  16 -125.27  114.83
  14  11 -16  109.89  127.82
 -14 -11  16    9.83  165.51
  14  10 -16  -26.60  113.57
 -14 -10  16   29.62  162.92
 -14 -10  16   -7.01   79.51
  14   8 -16   23.42  100.51
  14   8 -16   62.83   57.87
 -14  -8  16 -115.45   70.69
 -14  -8  16    9.07  144.61
 -14  -7  16    5.80   66.09
 -14  -7  16   25.10  125.33
 -14  -6  16 -228.57   71.83
 -14   0 -16 -112.89  103.89
  14  -4  16   19.42  137.83
  14  -4  16   36.79   51.67
 -14   5 -16  144.02  104.30
 -14   5 -16   32.17  133.03
  14  -5  16   12.43   57.22
  14  -5  16  149.07  137.94
  14  -6  16  169.10  130.35
 -15  -2 -16   25.35  113.12
  15   2  16 -174.61  141.44
 -15  -1 -16  -82.06  107.48
  15   1  16   29.64  152.01
  15   1  16  -21.24   56.90
 -15   0 -16   39.10  110.97
  15   0  16   20.21  155.96
  15   0  16   55.07   59.28
 -15   1 -16    7.84  115.40
 -15   1 -16    9.04   93.23
  15  -1  16   54.22   54.87
  15  -1  16 -112.65  150.84
 -15   2 -16   80.63  128.87
 -15   2 -16  -64.81   95.65
  15  -2  16  179.51  155.58
  15  -2  16  141.86   58.84
 -15   3 -16  -49.93  127.69
 -15   3 -16    9.96   96.97
  15  -3  16 -117.07  170.80
  15  -3  16   -6.70   57.29
 -15   4 -16   10.31  105.43
 -15   4 -16  171.71  137.56
  15  -4  16  -74.86   58.86
  15  -4  16  -86.34  155.39
 -15   5 -16   44.17  145.75
 -15   5 -16  -65.03  102.34
  15  -5  16   10.34  143.48
  15  -5  16   75.97   53.69
  15  -6  16  -56.30   67.49
  15  -6  16  -59.64  142.17
 -16  -2 -16  111.65  120.72
  16   2  16 -329.76  163.46
 -16  -1 -16   81.67  127.72
  16   1  16   54.66   64.28
  16   1  16 -130.35  163.66
 -16   0 -16   39.71  102.85
 -16   0 -16   78.09  123.26
  16   0  16  114.29   63.94
  16   0  16 -296.01  169.07
 -16   1 -16   26.07  126.35
 -16   1 -16  -99.65   97.18
  16  -1  16  127.72   63.14
  16  -1  16  -22.51  162.02
 -16   2 -16 -104.80  103.89
 -16   2 -16 -116.07  136.21
  16  -2  16  -52.47   64.20
  16  -2  16   11.58  170.45
 -16   3 -16  -64.39  138.55
 -16   3 -16  -55.00  116.88
  16  -3  16  -81.60   69.35
  16  -3  16 -163.51  185.31
 -16   6 -16   72.83  119.55
 -16   6 -16   19.81  160.55
  16  -6  16   30.64   66.50
  16  -6  16 -177.52  155.88
 -17  -2 -16 -123.31  139.13
  17   2  16   93.22  177.21
 -17  -1 -16  -10.06  144.32
  17   1  16 -138.15   69.02
  17   1  16   11.83  189.10
 -17   0 -16  -21.82  119.21
  17   0  16  -25.29   68.21
  17   0  16   11.98  202.40
 -17   1 -16  255.31  115.27
 -17   1 -16  -28.88  139.20
  17  -1  16 -124.92   63.07
  17  -1  16   49.35  179.15
 -17   2 -16   11.67  124.15
 -17   2 -16  118.45  156.54
  17  -2  16  226.33  197.61
  17  -2  16  -41.45   66.84
 -17   3 -16  -71.04  157.91
 -17   3 -16  -84.93  124.77
  17  -3  16  -49.06   69.91
  17  -3  16   12.88  182.77
 -17   4 -16 -244.98  136.20
 -17   4 -16 -145.30  163.91
  17  -4  16    8.18   71.18
  17  -4  16   90.73  181.34
 -17   5 -16 -106.36  164.16
 -17   5 -16   39.91  131.01
  17  -5  16   66.55   71.65
  17  -5  16   25.17  171.88
 -17   6 -16  -80.74  126.01
 -17   6 -16  -54.05  171.15
  17  -6  16   82.86   73.44
  17  -6  16 -148.26  180.00
 -18  -2 -16  -68.31  152.89
 -18  -1 -16   84.30  117.01
 -18  -1 -16   78.19  152.73
  18   1  16   76.53   74.79
  18   1  16 -308.58  198.11
 -18   0 -16 -109.51  163.17
 -18   0 -16 -192.52  141.58
  18   0  16  236.70  197.73
  18   0  16  -74.63   78.11
 -18   1 -16  -42.84  163.06
 -18   1 -16  -62.80  125.86
  18  -1  16 -175.94  192.41
  18  -1  16  138.32   81.59
 -18   2 -16  -32.68  160.64
 -18   2 -16   39.57  137.83
  18  -2  16  -27.48   74.06
  18  -2  16 -137.89  216.17
 -18   3 -16 -136.91  130.07
 -18   3 -16  -44.61  175.28
  18  -3  16  -53.95   72.23
  18  -3  16  298.50  208.20
 -18   4 -16   14.30  135.74
 -18   4 -16 -170.31  189.98
  18  -4  16   70.29  210.95
  18  -4  16  -54.46   77.14
 -18   5 -16 -127.35  197.15
 -18   5 -16  146.82  144.60
  18  -5  16 -207.25  205.68
  18  -5  16  -72.98   77.68
 -18   6 -16  270.44  191.42
 -18   6 -16 -301.52  135.61
  18  -6  16    9.12   74.26
  18  -6  16  -82.33  193.36
   0   1 -17 2292.35  441.46
   1   1 -17  -23.00   30.12
  -1   1 -17   50.94   44.07
  -1   1 -17   -6.21   30.28
   1   1 -17    9.02   50.64
   1  -1  17  -86.08   69.82
  -1  -1  17  -47.47   76.42
  -1   2 -17    3.95   46.76
   2   1 -17   43.76   32.59
  -1   2 -17    2.85   26.44
   2   1 -17   56.08   53.29
   1  -2  17   26.16   66.53
  -2  -1  17   38.07   81.17
   2   0 -17   19.75   39.31
   0   2 -17  -38.52   29.68
  -2   0 -17   28.38   33.13
   0   2 -17   -8.13   48.05
   0  -2  17  -93.75   74.07
  -2   1 -17  -23.89   31.27
   1   2 -17   33.65   48.37
   1   2 -17   -3.06   31.31
  -1  -2  17  -22.98   67.52
   2  -1  17   84.50   70.31
  -2   2 -17  -10.74   28.57
   2   2 -17   17.45   51.47
   2   2 -17    9.42   32.14
  -2   2 -17   11.46   43.18
  -2  -2  17  -33.24   72.82
   2  -2  17  -81.87   66.85
  -2   3 -17  689.12  103.75
   3   2 -17  563.83   82.15
  -2   3 -17  318.84   93.01
   3   2 -17  365.05  104.15
   2  -3  17  455.23  118.90
  -3  -2  17  645.51  132.15
   3   1 -17  213.76   83.63
   3   1 -17  386.31   61.33
  -1   3 -17  330.63   66.57
  -1   3 -17  294.05   78.62
  -3  -1  17  365.86  113.89
   1  -3  17  316.33   92.92
   0   3 -17  199.79   45.81
   3   0 -17  226.78   50.57
  -3   0 -17  182.93   51.05
   0   3 -17  122.03   56.51
   0  -3  17  267.83   71.68
  -3   0  17  107.87   96.52
   1   3 -17  337.95   64.45
  -3   1 -17  376.19   71.33
   1   3 -17  197.16   79.39
  -1  -3  17  185.16   90.81
   2   3 -17  542.21   87.35
   2   3 -17  397.70  104.82
  -3   2 -17  458.88  104.50
  -3   2 -17  378.63   97.89
  -2  -3  17  625.21  120.72
   3  -2  17  630.22  130.41
   3   3 -17   17.10   53.29
  -3   3 -17    4.51   21.89
   3   3 -17  -28.35   33.68
  -3   3 -17  -44.93   41.70
   3  -3  17   -3.64   59.95
  -3  -3  17  -46.94   63.48
  -3   4 -17  232.41   55.93
  -3   4 -17  145.22   42.97
   4   3 -17  214.46   46.51
   4   3 -17  111.75   67.30
   3  -4  17  179.61   46.51
  -4  -3  17  132.92   85.29
   3  -4  17  312.19   67.14
  -2   4 -17  645.12  182.35
   4   2 -17 1002.86  186.96
   2  -4  17 1047.61  205.20
   2  -4  17  902.17  174.05
  -4  -2  17 1421.79  224.68
  -1   4 -17  147.95   48.72
  -1   4 -17  192.94   37.59
   4   1 -17  131.55   65.41
  -4  -1  17  175.43   94.87
   1  -4  17  172.08   61.47
   0   4 -17   -7.98   26.43
  -4   0 -17    6.39   32.55
   0   4 -17  -17.91   42.41
  -4   0  17  -26.44   88.95
   0  -4  17   49.48   58.84
   4   0  17   38.16   44.12
   1   4 -17  104.65   50.70
   1   4 -17   75.96   36.87
  -4   1 -17  128.85   41.44
  -1  -4  17  156.33   69.70
   4  -1  17  214.29   56.66
  -4   2 -17  827.03  190.88
   2   4 -17  886.63  178.99
   4  -2  17  974.87  234.26
  -2  -4  17  868.41  203.99
  -4   3 -17  172.28   44.25
  -4   3 -17  265.29   61.01
   3   4 -17  280.47   47.97
   3   4 -17   98.21   61.12
   4  -3  17  170.65   76.76
  -3  -4  17  333.39   84.93
   4   4 -17   -8.58   55.44
  -4   4 -17   -3.82   21.06
   4   4 -17   28.83   33.00
  -4   4 -17   21.59   40.92
  -4  -4  17    8.54   66.06
   4  -4  17   46.54   27.37
   4  -4  17    3.04   52.18
   4  -5  17   25.30   26.33
  -3   5 -17  603.19  119.43
  -3   5 -17  596.61  103.82
   5   3 -17  459.84   99.57
   5   3 -17  403.77  125.19
   3  -5  17  573.58  108.75
  -5  -3  17  453.10  146.96
   3  -5  17  540.15  138.99
   5   2 -17   37.16   36.05
   5   2 -17   93.69   60.11
  -2   5 -17   11.69   25.40
  -2   5 -17   39.12   42.73
   2  -5  17   61.42   31.94
   2  -5  17   28.70   50.72
  -5  -2  17   16.10   83.55
  -1   5 -17  321.73   81.34
   5   1 -17  377.38   76.52
  -1   5 -17  441.27   96.07
   5   1 -17  285.22  106.10
   1  -5  17  329.33  113.22
   1  -5  17  448.27   87.79
  -5  -1  17  572.88  140.11
  -5   0 -17  -26.73   30.09
   5   0 -17  -24.35   40.64
   0   5 -17   35.84   44.41
   0   5 -17   -7.90   26.83
   5   0  17   -3.63   50.02
  -5   0  17   34.51  110.31
   0  -5  17   27.85   34.70
   0  -5  17   -3.53   56.38
   1   5 -17  640.09   82.97
   1   5 -17  641.46   96.65
  -5   1 -17  359.26   99.10
   5  -1  17  496.03  112.28
  -1  -5  17  570.91  115.97
  -1  -5  17  452.33   87.79
  -5   2 -17   72.14   25.47
   2   5 -17   94.25   49.06
   2   5 -17   37.83   29.77
  -2  -5  17   46.68   66.31
   5  -2  17   34.22   55.24
  -2  -5  17   58.42   37.06
   3   5 -17  473.21  120.32
   3   5 -17  658.52  105.96
  -5   3 -17  559.28  111.33
  -5   3 -17  587.06  129.22
  -3  -5  17  547.41  145.15
  -3  -5  17  740.23  111.86
   6   5 -17  -23.79   63.07
   6   5 -17  -76.75   37.13
  -6  -5  17 -106.59   78.34
  -6  -5  17   20.32   47.38
   6   2 -17  304.15  128.75
   6   2 -17  633.58   98.33
   2  -6  17  492.33  108.39
  -6  -2  17  822.55  162.45
   2  -6  17  674.48  147.93
   6   1 -17   36.87   35.53
   6   1 -17 -105.04   66.07
  -1   6 -17   64.06   46.68
  -1   6 -17    7.74   26.93
  -6  -1  17   25.48   91.22
   1  -6  17   -9.05   30.53
   1  -6  17    6.72   55.71
   0   6 -17  -55.81   47.93
   0   6 -17   -2.75   28.06
   6   0 -17  -24.74   38.88
   0  -6  17   -6.39   34.00
  -6   0  17 -122.72  106.57
   0  -6  17   31.71   61.43
   6   0  17    8.13   56.44
   1   6 -17   41.08   28.90
   1   6 -17  -54.38   51.05
  -1  -6  17   16.76   39.53
   6  -1  17   75.70   65.57
  -1  -6  17  -33.19   58.01
  -6   2 -17  524.54  114.97
   2   6 -17  533.40  123.23
   6  -2  17  752.51  139.94
   6  -2  17  558.04  108.98
  -2  -6  17  536.88  148.78
  -2  -6  17  720.58  113.00
   5   6 -17    4.73   56.35
  -5  -6  17 -116.12   78.77
   6   6 -17   -4.98   64.67
   6   6 -17    3.75   37.40
  -6  -6  17   25.73   42.33
  -6  -6  17 -112.87   88.09
   7   5 -17   -3.63   29.17
   7   5 -17    5.04   63.81
  -7  -5  17  -40.95   89.04
  -7  -5  17   33.97   47.07
  -4   7 -17    8.39   26.70
   7   4 -17    5.01   64.91
  -4   7 -17  -47.88   45.10
   7   4 -17   28.54   39.93
   4  -7  17   61.43   54.64
   4  -7  17    5.48   30.26
  -7  -4  17    5.11   86.59
   7   3 -17  613.43  101.02
  -3   7 -17  521.46  110.79
   7   3 -17  263.08  130.54
  -3   7 -17  677.48  125.76
  -7  -3  17  328.40  151.91
   3  -7  17  671.69  155.81
   3  -7  17  539.20  109.37
   3   7 -17  542.68  103.75
   3   7 -17  663.05  122.86
  -3  -7  17  652.57  113.57
  -3  -7  17  605.23  155.92
   4   7 -17    4.57   55.99
   4   7 -17   -3.53   39.28
  -4  -7  17    4.12   47.68
  -4  -7  17   70.64   75.58
   5   7 -17   67.74   63.73
  -5  -7  17   -4.66   81.83
   7   7 -17  -16.26   44.31
  -7  -7  17    4.72   54.26
   8   6 -17   -4.08   43.65
  -8  -6  17   23.29   58.31
   8   4 -17   31.69   67.43
  -4   8 -17  -33.91   44.99
   8   4 -17   11.14   40.44
   4  -8  17    3.17   33.49
  -8  -4  17   43.35   94.00
  -3   8 -17  114.04   39.74
   8   3 -17    5.41   74.33
   8   3 -17   84.81   43.62
  -3   8 -17  204.22   53.12
   3  -8  17   83.38   42.86
  -8  -3  17   -5.77   91.26
   8   2 -17  108.95   48.47
   8   2 -17    5.66   72.92
  -2   8 -17  211.03   57.03
  -2   8 -17  138.44   41.57
  -8  -2  17   87.60  108.61
   2  -8  17   88.51   46.36
   8   1 -17   15.61   43.19
  -1   8 -17   56.33   47.44
  -1   8 -17  -58.72   34.09
   8   1 -17 -115.41   73.76
   1  -8  17  -40.18   38.55
   8   1  17   77.03   76.30
  -8  -1  17 -112.51  108.29
   0   8 -17   49.61   34.44
   0   8 -17   15.53   50.95
   8   0 -17  111.30   42.19
   8   0  17   47.97   75.74
   0  -8  17  -38.62   39.75
   1   8 -17  -10.26   32.53
  -8   1 -17  -12.45   53.81
   1   8 -17    4.03   48.96
  -1  -8  17   32.88   39.97
   8  -1  17  -26.42   79.06
  -1  -8  17   96.54   61.27
   8  -1  17   45.55   33.52
  -8   2 -17  163.18   58.95
   2   8 -17  188.28   62.64
   2   8 -17  194.44   45.24
  -2  -8  17  150.48   82.42
   8  -2  17  164.71   39.81
  -2  -8  17  154.52   50.58
   8  -2  17  171.25   89.70
   3   8 -17   43.69   61.74
   3   8 -17  166.81   40.25
  -3  -8  17  209.40   76.52
   8  -3  17  235.90   80.21
   8  -3  17   78.63   34.78
  -3  -8  17  137.07   51.01
   4   8 -17    4.64   61.09
  -4  -8  17   -4.58   72.57
   6   8 -17    4.17   45.52
   6   8 -17   -5.19   54.38
  -6  -8  17   -4.66   54.67
   9   8 -17    4.77   51.60
   9   8 -17    6.46   86.46
  -9  -8  17  142.59  110.44
  -9  -8  17   10.60   58.27
   9   5 -17   -4.03   44.14
  -9  -5  17   -4.66   52.71
  -4   9 -17  370.88   61.42
  -3   9 -17  183.58   51.40
   9   3 -17   34.13   78.27
  -9  -3  17    6.14   98.88
   9   2 -17   54.51   43.75
  -2   9 -17   71.59   50.05
   9   2 -17    5.90   74.65
   2  -9  17   51.98   40.50
  -9  -2  17    6.66  105.20
  -1   9 -17   11.17   35.11
  -1   9 -17  -30.93   48.41
   9   1 -17  -31.89   75.29
   9   1 -17   48.03   42.57
  -9  -1  17  -59.25  111.01
   1  -9  17   49.05   41.41
   9   1  17  189.66   83.17
   9   0 -17   52.42   48.10
   0   9 -17   29.97   35.76
  -9   0 -17  -19.34   59.65
   0   9 -17  -15.90   46.53
   0  -9  17   19.35   41.01
   9   0  17   41.89   88.00
   1   9 -17   68.52   39.66
   1   9 -17   12.35   50.83
  -9   1 -17   26.64   57.96
   9  -1  17  158.55   89.34
  -1  -9  17  -16.08   45.36
   9  -1  17   -4.01   33.28
   2   9 -17  102.27   55.41
  -9   2 -17  135.33   61.80
   9  -2  17   66.01   34.54
   9  -2  17   29.34   87.23
  -9   3 -17   45.43   66.21
  -9   3 -17    9.75   53.38
   9  -3  17  106.62   90.47
   9  -3  17  157.54   34.81
   4   9 -17   37.74   54.85
  -4  -9  17   67.71   63.67
   5   9 -17  -19.76   62.89
  -5  -9  17  -79.85   80.84
   8   9 -17   -6.04   66.68
   8   9 -17  -50.10   49.22
  -8  -9  17   36.77  103.95
  -8  -9  17    5.41   61.34
   9   9 -17    5.23   54.45
   9   9 -17    6.56   83.98
  -9  -9  17    6.59  109.07
  -9  -9  17    5.64   57.76
  10   9 -17    5.45   54.20
  10   9 -17    7.07   96.07
 -10  -9  17  -70.31   68.95
 -10  -9  17 -160.11  119.69
  10   8 -17    4.98   54.07
  10   8 -17    6.89   92.70
 -10  -8  17  -50.11   66.80
 -10  -8  17    7.19  107.62
  10   7 -17   -4.62   46.76
  10   7 -17  -19.58   86.84
 -10  -7  17   55.60  126.04
 -10  -7  17   26.50   59.64
  10   6 -17  -55.55   79.53
  10   6 -17    8.96   47.38
 -10  -6  17   71.62  113.03
 -10  -6  17   20.34   62.70
  -3  10 -17   86.80   50.54
  -2  10 -17   54.01   46.44
 -10  -2  17   -7.04  116.00
  10   1 -17   40.12   81.16
  -1  10 -17  -35.53   48.34
  10   1  17   77.82   95.67
 -10  -1  17  110.19  119.72
 -10   0 -17  -67.14   67.48
   0  10 -17   12.16   52.11
  10   0 -17   -4.50   40.70
  10   0  17  -58.57   99.39
  10   0  17   59.89   37.59
 -10   1 -17  -19.31   65.68
  10  -1  17   26.10   99.22
  10  -1  17   38.95   36.56
   2  10 -17   -4.41   42.24
 -10   2 -17   87.25   67.00
  10  -2  17   40.50   33.39
  -2 -10  17   -4.56   50.08
  10  -2  17  -59.03  101.68
 -10   3 -17   55.11   67.47
   3  10 -17   58.37   47.36
 -10   3 -17   88.96   76.22
   3  10 -17   -4.54   59.10
  10  -3  17  236.24  101.76
  10  -3  17  150.29   38.71
  -3 -10  17    9.49   55.46
   6  10 -17   15.07   51.94
   6  10 -17 -121.87   66.40
  -6 -10  17    5.36   58.04
   7  10 -17   -5.24   52.31
   7  10 -17   39.85   71.03
  -7 -10  17    5.79   99.10
  -7 -10  17   -5.59   61.76
   8  10 -17    6.08   77.30
   8  10 -17  -10.94   54.89
  -8 -10  17   -5.83   62.72
  -8 -10  17  248.37  100.37
   9  10 -17  -39.94   59.36
   9  10 -17   52.86   83.17
  -9 -10  17   -6.08   63.88
  -9 -10  17   20.05  113.00
 -10 -10  17 -226.38  133.00
  11  10 -17    6.17   62.80
  11  10 -17   -7.74   91.86
 -11 -10  17   -6.61   74.03
 -11 -10  17   -7.90  130.25
  11   9 -17    5.75   61.71
 -11  -9  17 -305.97  134.05
 -11  -9  17   12.19   66.62
  11   7 -17    6.86   86.58
  11   7 -17   43.58   52.78
 -11  -7  17  -71.48   61.62
 -11  -7  17  -73.80  135.41
  11   6 -17  -58.71   86.52
  11   6 -17   -4.64   51.72
 -11  -6  17   -5.39   61.62
 -11  -6  17  -20.98  119.97
  11   5 -17  -31.48   47.76
  11   5 -17   12.53   80.43
 -11  -5  17  100.13  104.62
 -11  -5  17    5.08   61.35
  11   4 -17   -4.19   44.98
  11   4 -17    6.18   81.25
 -11  -4  17 -254.67  112.08
 -11  -4  17    4.85   57.49
   4  11 -17   14.71   59.58
  11  -4  17   74.65   40.84
  -4 -11  17   32.38   55.46
   5  11 -17    5.16   63.63
  -5 -11  17    5.60   58.58
   6  11 -17    5.47   69.09
   7  11 -17    5.80   71.39
  -7 -11  17   -6.08   65.21
   8  11 -17  -74.65   85.24
  -9 -11  17 -231.86  110.22
  -9 -11  17   79.09   77.29
  10  11 -17  -94.31   90.78
 -10 -11  17    6.85   66.01
 -10 -11  17 -257.40  121.39
  11  11 -17   -7.79   96.44
 -11 -11  17    8.05  134.08
 -11 -11  17 -255.80   80.37
  12  10 -17    6.42   63.53
  12  10 -17   -8.36  107.04
 -12 -10  17  -54.73   77.58
 -12 -10  17    8.73  148.31
  12   9 -17    8.11  102.94
  12   9 -17   -5.96   60.79
 -12  -9  17  -25.32   66.73
 -12  -9  17  243.63  151.43
  12   8 -17  -70.35   58.78
  12   8 -17    7.67  102.08
 -12  -8  17  -59.70   68.33
 -12  -8  17    8.47  140.29
  12   6 -17   -6.85   87.09
  12   6 -17  -43.42   52.32
 -12  -6  17   -5.63   68.05
 -12  -6  17   29.46  116.93
  12   5 -17    4.66   51.29
  12   5 -17   13.19   86.34
 -12  -5  17   10.63   59.96
 -12  -5  17    7.09  119.39
  12   4 -17  -56.55   49.85
  12   4 -17    6.46   81.38
 -12  -4  17   57.72  129.15
 -12  -4  17  -10.24   61.63
  12   3 -17  -38.92   46.29
  12   3 -17    6.50   79.15
 -12  -3  17  207.29  126.59
  12   2 -17   52.61   45.82
  12   2 -17   13.53   76.85
  12   2  17  -23.27  112.44
 -12  -2  17  -63.42  125.55
  12   1 -17    4.53   47.83
 -12  -1 -17   57.54   85.73
 -12  -1  17   -8.73  114.32
  12   1  17  -54.22  107.66
 -12   0 -17    6.05   83.41
  12   0 -17    4.75   47.43
  12   0  17  117.42   45.26
  12   0  17    7.81  114.04
 -12   1 -17  291.83   82.28
  12  -1  17  235.98   48.10
  12  -1  17  -16.08  124.58
 -12   2 -17   34.50   70.61
  12  -2  17   32.14  119.93
 -12   3 -17   35.12   74.92
  12  -3  17   56.42  120.93
 -12   4 -17  -66.73   73.16
  12  -4  17   -7.87  118.11
  13  11 -17  -91.26  123.80
 -13 -11  17   76.77  165.28
  13   9 -17    6.17   64.17
  13   9 -17    8.50  106.60
 -13  -9  17   95.95  172.77
 -13  -9  17   39.75   78.11
  13   8 -17    5.75   59.44
  13   8 -17   -7.99   98.44
 -13  -8  17   86.33   71.58
 -13  -8  17 -196.71  159.58
  13   7 -17    5.19   55.59
  13   7 -17    7.55   93.56
 -13  -7  17 -261.81  149.51
 -13  -7  17   -5.90   64.19
  13   6 -17    7.12   85.06
  13   6 -17  -29.86   52.88
 -13  -6  17  196.03   73.13
 -13  -6  17    7.92  130.52
  13   4 -17   20.16   89.01
  13   3 -17   40.40   89.00
  13   3 -17    4.51   46.09
 -13  -3  17   55.09  125.64
 -13  -3  17  -10.39   60.39
  13   2 -17   99.01   85.42
  13   2 -17    4.53   48.69
  13   2  17  110.42  121.12
 -13  -2  17  133.97  120.05
  13   1 -17 -103.82   55.70
 -13  -1 -17  -41.60   89.01
  13   1  17   58.86  126.69
  13   1  17  -42.05   46.69
  13   0 -17  -24.69   55.54
 -13   0 -17   19.93   91.11
  13   0  17  -17.46   44.67
  13   0  17   -8.65  115.44
 -13   1 -17   88.75   93.48
  13  -1  17   -8.81  140.54
  13  -1  17   56.81   44.44
 -13   2 -17  -38.68   96.34
 -13   2 -17  -30.62   81.23
  13  -2  17  -21.97   47.09
  13  -2  17   17.73  140.45
 -13   3 -17  -39.99   81.30
 -13   3 -17   19.99  108.67
  13  -3  17  -70.59   48.94
  13  -3  17  107.55  135.25
 -13   4 -17   20.71  115.74
  14  11 -17   19.34  126.19
 -14 -11  17   10.63  175.07
  14  10 -17    6.92   65.72
  14  10 -17   37.27  125.78
 -14 -10  17 -217.43   82.97
 -14 -10  17  144.26  175.66
 -14  -9  17 -102.41   78.71
 -14  -9  17   10.13  163.70
  14   7 -17  -60.22   59.17
  14   7 -17    7.83  100.19
 -14  -7  17  211.22  154.61
 -14  -7  17   -6.09   68.54
  14   6 -17   -5.14   55.38
  14   6 -17    7.41   96.98
 -14  -6  17  -99.94  139.59
 -14  -6  17    5.92   65.86
 -14  -5  17 -254.78  139.33
 -14  -5  17    5.85   69.96
 -14  -4  17   16.88   66.92
  14   2  17  -63.86  142.38
  14  -2  17 -137.18  145.98
 -14   3 -17  -35.73   95.03
 -14   3 -17   74.35  120.29
  14  -3  17   12.10   50.49
  14  -3  17   -9.83  146.48
 -14   4 -17  -75.55   93.46
 -14   4 -17  -61.45  123.54
  14  -4  17  -49.28  147.19
  14  -4  17   18.35   50.61
  14  -5  17  150.86  130.25
  15   2  17   19.87  150.39
 -15  -1 -17  -66.71  111.19
  15   1  17  132.20  149.71
  15   1  17   28.71   53.44
 -15   0 -17  -72.96  107.23
  15   0  17   35.26   56.82
  15   0  17   62.03  161.52
 -15   1 -17   -9.24   98.58
 -15   1 -17   31.31  110.78
  15  -1  17   10.49  158.17
  15  -1  17    6.99   54.06
 -15   2 -17 -103.99  116.52
 -15   2 -17  103.81  104.19
  15  -2  17 -107.95  171.44
  15  -2  17   -6.92   59.68
 -15   3 -17  198.45  122.37
 -15   3 -17   79.52  107.63
  15  -3  17  -93.99   59.02
  15  -3  17  249.58  151.82
 -15   4 -17  -51.08  135.28
 -15   4 -17  104.83  109.00
  15  -4  17    6.76   53.79
  15  -4  17  131.86  158.50
  15  -5  17   76.42   63.03
  15  -5  17   83.80  141.26
 -16  -1 -17    9.21  127.48
 -16   0 -17  -17.98  131.46
 -16   1 -17  -95.67  132.55
 -16   5 -17 -212.13  156.61
  16  -5  17 -150.87  171.14
  16  -5  17 -115.08   72.92
  17   2  17  -35.76  181.54
 -17  -1 -17  -50.97  145.54
  17   1  17  -34.90   67.62
  17   1  17 -290.37  180.58
 -17   0 -17  -77.82  120.97
 -17   0 -17  -59.86  153.38
  17   0  17 -112.25   74.00
  17   0  17  220.39  175.60
 -17   1 -17  -56.42  118.24
 -17   1 -17   86.98  141.63
  17  -1  17    8.57   69.29
  17  -1  17   12.60  175.75
 -17   2 -17 -166.94  150.74
 -17   2 -17 -106.77  114.92
  17  -2  17   64.16  188.57
  17  -2  17   59.35   70.56
 -17   3 -17  111.21  131.64
 -17   3 -17 -231.80  158.63
  17  -3  17   39.33  206.70
  17  -3  17    8.39   70.93
 -17   4 -17 -104.85  143.19
 -17   4 -17   20.64  154.77
  17  -4  17   79.27  194.88
  17  -4  17 -174.76   72.37
 -17   5 -17   27.01  127.84
 -17   5 -17   31.68  167.52
  17  -5  17 -125.26   74.89
  17  -5  17 -370.23  189.30
 -18  -2 -17   11.54  153.05
 -18  -1 -17 -237.50  160.76
  18   1  17 -183.80  183.58
  18   1  17   96.61   78.61
 -18   0 -17  -22.18  163.02
 -18   0 -17 -208.02  135.18
  18   0  17 -124.39   78.83
  18   0  17   93.91  197.17
 -18   1 -17   21.48  153.15
 -18   1 -17   12.53  127.83
  18  -1  17   37.88   75.19
  18  -1  17  220.98  195.57
 -18   2 -17   97.66  166.76
 -18   2 -17  134.20  146.89
  18  -2  17 -351.42  207.83
  18  -2  17    9.35   78.67
 -18   3 -17  -13.92  130.12
 -18   3 -17 -121.91  176.22
  18  -3  17  101.26  218.28
  18  -3  17   27.85   80.98
 -18   4 -17  -79.36  175.92
 -18   4 -17   29.02  139.62
  18  -4  17  100.31  212.69
  18  -4  17   63.97   75.08
 -18   5 -17   23.06  185.26
 -18   5 -17  253.32  153.91
  18  -5  17 -136.50   75.32
   0   1 -18   17.12   33.83
   0   1 -18 -122.99   54.82
   0  -1  18    5.62   82.70
   1   1 -18 1039.50  168.74
  -1   1 -18 1044.67  182.78
   1   1 -18  998.75  198.29
   1  -1  18  852.56  250.18
  -1  -1  18  697.12  249.43
   2   1 -18    5.04   52.65
   2   1 -18    3.59   36.01
  -1   2 -18  -21.48   31.03
  -1   2 -18  -55.54   48.80
   1  -2  18  -28.86   68.08
  -2  -1  18  -41.19   89.13
   0   2 -18   69.92   36.66
   0   2 -18   61.59   49.23
   0  -2  18  157.44   76.23
   1   2 -18   39.21   33.16
   1   2 -18   -4.56   53.62
  -2   1 -18  -22.49   32.67
  -1  -2  18  -85.38   78.01
   2   2 -18  117.24   39.19
  -2   2 -18   83.10   53.75
   2   2 -18   37.77   60.48
  -2   2 -18  159.72   38.93
  -2  -2  18   67.25   86.14
   2  -2  18  100.04   74.14
  -2   3 -18   81.59   32.42
   3   2 -18   34.28   56.30
   3   2 -18   34.34   35.99
  -2   3 -18   97.41   47.49
  -3  -2  18   85.69   85.37
   2  -3  18   45.23   67.55
  -1   3 -18  357.52  126.24
   3   1 -18  588.83   98.55
  -1   3 -18  833.59  116.10
   3   1 -18  695.50  129.94
   1  -3  18  576.94  147.69
  -3  -1  18  607.04  165.47
   0   3 -18   -8.30   46.76
   0   3 -18   15.18   32.98
   0  -3  18  -29.95   63.82
   1   3 -18  696.56  109.97
   1   3 -18  434.53  126.75
  -3   1 -18  427.31  122.19
  -1  -3  18  575.17  145.98
  -3   2 -18   85.93   50.88
   2   3 -18   98.29   54.61
   2   3 -18    9.77   36.27
  -3   2 -18   71.39   32.70
   3  -2  18  141.50   74.11
  -2  -3  18  -13.74   71.12
   3   3 -18 1041.08  145.34
  -3   3 -18  589.95  136.52
  -3   3 -18  796.13  147.69
   3   3 -18  693.74  121.24
  -3  -3  18  706.17  167.24
   3  -3  18  745.45  172.68
   4   3 -18  803.94  154.62
   4   3 -18  809.01  189.75
  -3   4 -18  981.34  174.11
  -3   4 -18  932.33  190.44
  -4  -3  18 1292.18  217.69
   3  -4  18 1023.46  178.74
   3  -4  18  947.48  213.34
   4   2 -18 1348.67  238.81
   2  -4  18 1159.91  264.92
  -4  -2  18 1068.61  283.86
  -1   4 -18  467.72   96.38
  -1   4 -18  694.51   85.41
   4   1 -18  315.21  105.47
   1  -4  18  411.18  110.90
  -4  -1  18  390.40  137.12
   0   4 -18  427.14   86.46
  -4   0 -18  372.12   97.50
   0   4 -18  538.09   99.70
   0  -4  18  642.85  114.62
   1   4 -18  318.96   95.36
   1   4 -18  422.23   83.11
  -4   1 -18  487.64   95.19
  -1  -4  18  407.02  111.03
  -4   2 -18 1322.37  246.31
   2   4 -18 1172.89  231.12
  -4   2 -18 1263.93  247.38
   4  -2  18  940.63  300.24
  -2  -4  18 1476.52  260.77
  -4   3 -18  966.80  183.08
  -4   3 -18  777.22  196.55
   3   4 -18  841.09  185.36
  -3  -4  18 1039.34  209.60
   4  -3  18  826.45  231.29
   5   2 -18  779.04  157.58
   2  -5  18  599.97  139.73
   5   1 -18    5.66   54.90
   5   1 -18   34.36   41.99
  -1   5 -18  110.56   48.25
  -1   5 -18  117.25   32.00
   1  -5  18   62.55   39.83
  -5  -1  18  137.48  109.71
   1  -5  18   39.59   60.95
   0   5 -18  -13.97   25.83
   0   5 -18   -3.85   48.75
  -5   0 -18  -12.60   33.85
   5   0  18   -3.78   53.01
   0  -5  18   37.78   60.49
   0  -5  18   -3.33   37.43
  -5   1 -18  122.11   35.29
   1   5 -18   60.44   50.42
   1   5 -18   77.27   33.77
  -1  -5  18   35.00   43.88
  -1  -5  18   55.44   66.14
  -2  -5  18  787.82  138.87
   5   5 -18  121.58   67.37
  -5  -5  18    4.87   86.85
   6   5 -18  -56.29   64.11
   6   5 -18    7.42   36.65
  -6  -5  18   -5.13   81.76
  -4   6 -18   37.21   26.22
   6   4 -18   29.19   38.90
   6   4 -18   10.24   64.55
  -4   6 -18  147.65   46.35
   4  -6  18   37.29   54.75
  -6  -4  18   15.56   84.63
   4  -6  18   67.86   30.59
   6   3 -18 1307.40  163.75
  -3   6 -18  880.40  206.67
  -3   6 -18  837.81  175.89
   6   3 -18  976.31  206.88
   3  -6  18  711.22  182.60
   3  -6  18  908.08  240.11
  -6  -3  18 1112.79  241.96
   3   6 -18 1311.09  177.80
   3   6 -18 1028.15  203.68
  -3  -6  18  886.53  239.98
  -3  -6  18 1193.93  187.54
   4   6 -18   32.95   37.68
   4   6 -18  -43.03   64.58
  -4  -6  18    9.30   79.20
  -4  -6  18   -4.16   50.38
   5   6 -18   15.04   65.54
  -5  -6  18    4.89   83.99
   7   6 -18    4.16   42.31
  -7  -6  18   -4.70   54.32
   7   4 -18   -3.78   41.56
   7   4 -18   -5.40   71.19
  -4   7 -18  143.80   35.12
  -4   7 -18  128.00   50.85
   4  -7  18  154.59   38.07
   4  -7  18  131.91   59.96
  -7  -4  18  142.45   96.72
   7   3 -18   11.06   68.04
  -3   7 -18    7.27   45.17
   7   3 -18   18.95   40.36
  -3   7 -18   -5.64   29.10
  -7  -3  18   70.55   86.99
   3  -7  18   37.57   33.68
   3  -7  18  -44.40   56.20
  -2   7 -18  497.27   84.09
   7   2 -18  312.44   79.76
  -2   7 -18  417.37  102.35
   7   2 -18  115.58  115.19
   2  -7  18  369.48   87.02
  -7  -2  18  229.46  145.18
   2  -7  18  689.51  127.97
   7   1 -18   27.92   42.69
  -1   7 -18  -47.37   50.63
  -1   7 -18  -52.07   30.13
   7   1 -18    6.17   72.81
  -7  -1  18    7.14  105.44
   1  -7  18   -3.75   65.59
   1  -7  18  -32.47   36.67
   0   7 -18  -21.39   26.48
   7   0 -18   39.85   47.81
   0   7 -18  -24.61   46.79
   0  -7  18    3.91   67.07
   7   0  18  -14.45   66.68
   0  -7  18    6.94   39.49
   1   7 -18    4.27   49.78
   1   7 -18   22.43   31.35
  -1  -7  18   37.09   42.68
  -1  -7  18   -8.14   68.08
   7  -1  18   39.56   75.40
   2   7 -18  369.17  104.56
   2   7 -18  497.65   82.79
  -2  -7  18  373.01   93.19
  -2  -7  18  593.76  130.15
   3   7 -18   37.34   58.49
   3   7 -18   64.35   36.41
  -3  -7  18 -163.54   80.25
  -3  -7  18    8.40   49.10
   4   7 -18    4.92   64.03
  -4  -7  18    4.76   81.31
   6   7 -18   -4.14   37.52
  -6  -7  18   -4.84   55.94
   7   7 -18   -4.32   47.10
   7   7 -18   98.96   77.11
  -7  -7  18   -5.05   60.55
  -7  -7  18    5.82   93.14
   8   6 -18  193.14   79.18
   8   5 -18    3.99   41.84
  -8  -5  18   -4.64   54.40
  -4   8 -18   76.06   37.32
  -4   8 -18  123.32   50.24
  -3   8 -18  125.07   49.96
  -3   8 -18   91.61   35.86
   8   3 -18    5.80   71.45
   3  -8  18   66.49   65.12
   3  -8  18   32.40   35.82
  -8  -3  18   56.00  100.24
  -2   8 -18   15.73   44.53
  -2   8 -18  -26.23   31.52
   8   2 -18    6.01   72.05
   8   2 -18   27.72   39.78
  -8  -2  18 -101.20  107.22
   2  -8  18  -76.88   68.09
   2  -8  18    6.64   36.20
  -1   8 -18  142.32   53.48
   8   1 -18   82.54   45.17
  -1   8 -18   36.51   35.33
   8   1 -18    6.46   76.85
   1  -8  18   38.31   40.31
   8   1  18  111.50   76.63
  -8  -1  18   37.73  111.43
   1  -8  18   87.53   72.34
   0   8 -18   27.44   34.56
   8   0 -18  -27.25   43.95
   0   8 -18   -4.20   55.01
   0  -8  18  -24.68   70.54
   0  -8  18   21.85   41.56
   8   0  18   21.99   77.90
   1   8 -18   52.08   55.61
   1   8 -18   38.30   38.03
  -8   1 -18   99.94   58.93
  -1  -8  18   93.58   72.76
  -1  -8  18   81.10   45.85
   8  -1  18   43.63   84.64
   2   8 -18  -18.00   53.57
   2   8 -18   50.95   34.86
  -2  -8  18    8.83   69.26
   8  -2  18   25.20   30.94
  -2  -8  18    8.09   45.78
   8  -2  18   -5.35   84.26
   3   8 -18   -4.69   59.06
   5   8 -18   -4.12   43.79
   5   8 -18  141.37   69.77
  -5  -8  18   -4.69   54.03
   6   8 -18    4.31   43.67
   6   8 -18    5.57   75.88
   8   8 -18    6.39   86.70
   8   8 -18    4.71   52.09
  -8  -8  18  329.11  110.38
  -8  -8  18   26.69   64.82
   9   8 -18   -4.92   50.70
   9   8 -18    6.80   91.95
  -9  -8  18 -140.03  115.94
  -9  -8  18   33.39   61.73
   9   7 -18   26.04   85.37
   9   7 -18    4.68   50.23
  -9  -7  18  150.21  115.16
  -9  -7  18  -59.67   63.11
   9   4 -18   -4.07   46.69
  -3   9 -18   73.95   54.13
   3  -9  18   80.73   41.85
  -2   9 -18  168.10   55.63
  -2   9 -18   79.47   42.89
   2  -9  18   52.23   41.93
  -1   9 -18  -24.66   53.17
  -1   9 -18   75.20   40.45
   9   1 -18    6.75   79.98
   1  -9  18   15.34   41.11
  -9  -1  18   87.20  120.98
   9   1  18  177.93   87.53
   0   9 -18   11.44   39.54
   0   9 -18  -21.11   46.98
   9   0  18  129.60   91.75
   0  -9  18   15.96   40.92
   1   9 -18  118.31   56.22
  -9   1 -18  129.59   62.21
   9  -1  18  -36.25   90.73
   9  -1  18   50.19   35.44
  -9   2 -18   54.43   63.32
   9  -2  18  118.73   37.21
   9  -2  18  108.31   95.47
   3   9 -18  126.08   44.66
  -3  -9  18    4.52   47.78
   4   9 -18    4.96   64.70
   4   9 -18 -136.07   46.91
  -4  -9  18    4.75   56.23
  -4  -9  18   19.97   87.69
   7   9 -18   -6.00   72.84
   7   9 -18   30.13   52.51
  -7  -9  18   23.95   96.48
  -7  -9  18   37.73   67.79
   8   9 -18   -5.25   51.58
   8   9 -18    6.45   82.91
  -8  -9  18  102.55  108.10
  -8  -9  18  -44.98   62.57
   9   9 -18   43.87   56.53
   9   9 -18    6.95   87.88
  -9  -9  18   -5.86   67.86
  -9  -9  18   84.64  116.02
  10   8 -18    5.24   55.71
  10   8 -18  -14.49   90.58
 -10  -8  18    5.79   66.46
 -10  -8  18  -37.45  121.10
  10   7 -18   27.48   90.61
  10   7 -18    4.87   55.12
 -10  -7  18   -5.60   68.90
 -10  -7  18   87.20  120.83
  10   6 -18 -118.54   85.17
  10   6 -18    4.74   47.75
 -10  -6  18    6.95  116.81
 -10  -6  18  -15.94   65.09
  10   5 -18   19.09   77.97
  10   5 -18  -22.12   48.22
 -10  -5  18   -6.69  113.54
 -10  -5  18    5.10   56.07
 -10   0 -18   32.16   67.08
 -10   1 -18   24.84   69.60
   5  10 -18    5.31   66.43
   5  10 -18    4.98   44.33
  -5 -10  18   48.11   62.06
   6  10 -18  -90.00   71.82
  -6 -10  18    5.70   90.52
   7  10 -18  -21.72   57.24
   7  10 -18  230.36   79.74
  -7 -10  18   75.77   63.40
  -7 -10  18   30.34   93.96
   8  10 -18 -103.48   83.65
   8  10 -18    5.67   58.77
  -8 -10  18  -24.34   65.75
  -8 -10  18  -97.42  100.50
  10  10 -18   15.15   97.21
  10  10 -18   43.15   62.18
 -10 -10  18    6.60   75.45
 -10 -10  18  -68.64  125.11
  11  10 -18 -297.27   70.75
  11  10 -18 -238.42  103.69
 -11 -10  18    6.85   77.34
 -11 -10  18    8.44  144.93
  11   9 -18   -5.95   63.14
  11   9 -18  120.49  102.73
 -11  -9  18   -8.45  137.84
 -11  -9  18   82.95   74.30
  11   7 -18   -7.27   94.44
  11   7 -18   -5.07   52.67
 -11  -7  18   -5.80   61.56
 -11  -7  18  313.24  128.62
  11   6 -18   -6.95   88.67
  11   6 -18   -4.92   49.59
 -11  -6  18    7.35  124.54
 -11  -6  18    5.56   62.96
  11   5 -18  -94.05   89.39
  11   5 -18   -4.61   52.49
 -11  -5  18 -163.63  127.19
 -11  -5  18   -5.32   65.60
  11   4 -18    8.83   50.64
  11   4 -18    6.59   85.78
 -11  -4  18    5.04   60.68
 -11  -4  18  -50.76  123.77
  11   3 -18 -211.59   85.94
  11   3 -18    8.75   45.31
 -11  -3  18  -89.43  121.73
  11   2 -18   31.24   46.30
  11   2 -18   -6.85   84.31
 -11  -2  18 -135.39  130.42
  11   1 -18   87.15   53.87
  11   1  18  192.29  107.61
 -11  -1  18  438.14  127.14
   1  11 -18   -9.20   60.77
  11  -1  18   48.12   44.81
   2  11 -18    4.76   59.08
 -11   2 -18   61.61   76.53
  -2 -11  18 -118.86   58.76
  11  -2  18   27.21   39.77
   3  11 -18 -138.36   60.42
  -3 -11  18    5.34   57.40
  11  -3  18  -53.30   39.78
   4  11 -18  -10.35   64.30
  -4 -11  18 -170.69   55.08
   5  11 -18  137.40   56.69
   5  11 -18    5.42   66.92
  -5 -11  18   -5.74   63.58
   6  11 -18    5.71   70.14
   7  11 -18    5.95   58.75
   7  11 -18    6.11   73.59
  -7 -11  18  111.74  106.98
  -7 -11  18    6.25   68.85
   9  11 -18   28.28   85.99
   9  11 -18    6.47   65.74
  -9 -11  18    7.12  120.08
  -9 -11  18    6.79   74.87
  10  11 -18   -6.75   71.55
  10  11 -18   -7.60   96.29
 -10 -11  18   -7.05   81.19
 -10 -11  18 -108.75  133.55
  11  11 -18   14.03   72.80
  11  11 -18   -8.27  110.18
 -11 -11  18 -369.43  134.98
 -11 -11  18   -7.32   83.11
 -12 -11  18    7.66   79.80
 -12 -11  18    9.30  152.12
  12  10 -18    8.82  115.64
  12  10 -18    6.70   70.50
 -12 -10  18   14.21   76.50
  12   9 -18  110.54  110.93
  12   9 -18   18.52   66.34
 -12  -9  18   27.17  158.72
 -12  -9  18  -72.72   80.91
  12   8 -18    5.68   61.57
  12   8 -18    8.07  102.05
 -12  -8  18   -8.84  149.10
 -12  -8  18 -138.46   71.33
  12   7 -18   53.05   56.87
  12   7 -18    7.67   93.30
 -12  -7  18  -48.01   70.01
 -12  -7  18  -41.38  140.47
  12   5 -18  -14.10   88.75
  12   5 -18   59.20   54.76
 -12  -5  18   23.22  123.56
 -12  -5  18   38.95   64.63
  12   4 -18   13.75   85.56
  12   4 -18  -27.54   50.27
 -12  -4  18  112.12   65.17
 -12  -4  18  246.52  138.56
  12   3 -18   -4.55   50.28
  12   3 -18    6.87   87.28
 -12  -3  18   -7.93  123.41
  12   2 -18  101.43   51.04
  12   2 -18    7.17   86.50
 -12  -2  18 -117.80  128.81
  12   1 -18    4.79   51.88
  12   1  18   47.82  111.89
 -12  -1  18   91.93  140.37
  12   0 -18   25.08   49.26
 -12   0 -18  155.76   84.50
  12   0  18  145.12  121.08
  12   0  18  -32.78   46.87
 -12   1 -18   47.55   84.60
  12  -1  18   -5.27   45.41
  12  -1  18   74.08  127.48
 -12   2 -18  256.51   82.03
 -12   2 -18   42.37   77.08
  12  -2  18   60.28   43.59
  12  -2  18   82.27  122.44
  12  -3  18  262.96  121.44
  12  -3  18  193.76   46.32
 -11 -12  18  -84.37  142.88
  12  12 -18    9.05  117.29
 -12 -12  18  101.22  147.95
  13  12 -18 -117.14  139.48
  13  11 -18   57.79  117.73
 -13 -11  18   -7.91   83.13
 -13 -11  18 -210.82  167.52
  13  10 -18 -196.54  119.83
  13  10 -18    6.94   70.08
 -13 -10  18   14.77   86.21
 -13 -10  18 -182.05  174.80
  13   8 -18   42.37  105.48
  13   8 -18 -118.05   56.59
 -13  -8  18  -94.89  165.13
 -13  -8  18   -6.49   81.43
  13   7 -18    5.48   57.84
  13   7 -18    8.04   98.18
 -13  -7  18   26.58  153.08
 -13  -7  18   80.71   72.56
  13   6 -18    7.62   92.79
  13   6 -18    5.28   59.17
 -13  -6  18  -92.42  141.62
 -13  -6  18    6.14   72.08
  13   5 -18   10.22   56.29
  13   5 -18 -182.53   90.10
 -13  -5  18  -98.55  139.54
 -13  -5  18    5.83   66.33
  13   2 -18  111.97   92.28
  13   1 -18  -59.82   57.54
 -13  -1 -18   14.20   93.98
  13   1  18   43.16  128.40
  13   0 -18   -5.21   56.53
 -13   0 -18  -27.24   94.05
  13   0  18 -124.17  125.32
  13   0  18  -11.88   48.45
 -13   1 -18    6.56   91.94
  13  -1  18   74.01   48.93
  13  -1  18  117.37  144.99
 -13   2 -18   25.53   89.61
  14  11 -18  132.49  132.12
 -14 -11  18   11.11  183.74
 -14 -11  18 -195.86   86.49
  14  10 -18   28.69   74.86
  14  10 -18   58.80  122.53
 -14 -10  18   -7.60   80.92
 -14 -10  18  -11.16  193.08
  14   9 -18    6.69   69.62
  14   9 -18  130.09  121.13
 -14  -9  18 -268.35  181.61
 -14  -9  18   21.48   82.36
  14   6 -18   10.89   55.03
  14   6 -18    7.92  100.85
 -14  -6  18  308.89  150.87
 -14  -6  18   25.16   74.56
  14   5 -18  -80.28   60.56
  14   5 -18    7.55   95.24
 -14  -5  18  -60.72   74.57
 -14  -5  18   -8.76  149.70
  14   4 -18  -25.39   57.88
  14   4 -18 -132.31   99.83
 -14  -4  18    5.93   71.91
 -14  -4  18 -103.74  138.27
 -14  -3  18  -26.58  138.32
 -14  -3  18    5.74   69.04
  14   2  18  103.04  140.40
 -14  -1 -18  -30.98  103.43
  14   1  18   -9.43  143.88
 -14   0 -18    7.49  102.69
  14   0  18  -84.62   58.60
  14   0  18 -145.44  149.08
 -14   1 -18  -99.57  101.29
 -14   1 -18 -137.42   90.32
  14  -1  18  -49.52  144.10
  14  -1  18  -12.62   52.90
 -14   2 -18   25.89   85.79
 -14   2 -18  -28.48  103.16
  14  -2  18  -30.04  148.42
  14  -2  18   -6.21   50.49
 -14   3 -18  -80.61  115.03
 -14   3 -18   27.27   96.32
  14  -3  18   10.09  152.94
  14  -3  18   -6.20   54.14
  15   2  18  101.82  146.66
 -15  -1 -18  -67.94  119.46
  15   1  18  -83.28  160.21
 -15   0 -18  -49.28  114.94
  15   0  18   57.25   56.01
  15   0  18   10.57  154.39
 -15   1 -18  -79.01  111.88
 -15   1 -18  -28.26  103.22
  15  -1  18  -62.89   57.75
  15  -1  18 -107.35  168.30
 -15   2 -18 -125.01  101.07
 -15   2 -18   63.44  109.13
  15  -2  18 -164.93  170.95
  15  -2  18 -117.28   59.28
 -15   3 -18  182.17  108.90
 -15   3 -18 -228.33  126.95
  15  -3  18   55.30  171.29
  15  -3  18   13.79   58.77
  15  -4  18 -222.93  189.58
 -16   3 -18 -194.00  122.33
  16  -3  18 -182.70  193.67
  16  -3  18  -61.23   66.29
  16  -4  18  -36.84  169.80
  16  -4  18  -37.92   65.92
  17   2  18 -170.79  179.10
 -17  -1 -18   20.71  142.87
  17   1  18 -160.86  199.16
 -17   0 -18  -50.46  141.42
 -17   0 -18  180.98  123.68
  17   0  18  -12.52  195.38
  17   0  18   -8.75   71.27
 -17   1 -18 -114.75  112.53
 -17   1 -18   19.51  145.73
  17  -1  18  205.72   70.35
  17  -1  18  -25.74  200.90
 -17   2 -18   48.11  120.25
 -17   2 -18 -107.30  146.63
  17  -2  18   67.89   70.75
  17  -2  18 -131.87  191.87
 -17   3 -18 -175.96  131.05
 -17   3 -18  -10.01  158.68
  17  -3  18   25.39   72.24
  17  -3  18   66.71  201.20
 -17   4 -18 -164.24  160.91
  17  -4  18  121.01  195.88
  17  -4  18   16.70   72.64
 -18  -1 -18  -11.48  160.76
 -18   0 -18  -56.42  158.51
 -18   0 -18   12.43  128.04
  18   0  18  -19.40   82.73
 -18   1 -18 -166.27  170.79
 -18   1 -18  -38.16  123.61
  18  -1  18  -42.28  188.86
  18  -1  18   28.45   78.82
 -18   2 -18   43.38  155.75
 -18   2 -18 -109.07  137.19
  18  -2  18   18.78   75.85
 -18   3 -18  240.50  144.50
 -18   3 -18  -99.15  171.28
  18  -3  18  -19.03   82.48
 -18   4 -18   14.72  130.51
 -18   4 -18   78.82  167.70
  18  -4  18 -131.01   78.98
  18  -4  18 -308.00  201.28
   0   1 -19  823.39  159.46
   0   1 -19 1037.87  184.38
   0  -1  19  838.08  229.89
   1   1 -19   11.26   34.94
   1   1 -19  105.14   60.64
  -1   1 -19   -3.56   36.89
  -1  -1  19   -6.22   84.48
   1  -1  19   11.90   84.56
  -1   2 -19   -4.64   54.31
   2   1 -19    5.42   59.47
   2   1 -19  -23.01   36.56
  -1   2 -19   -3.29   33.05
  -2  -1  19  -25.55   91.72
   1  -2  19  221.69   84.24
   0   2 -19  -38.06   56.88
   0   2 -19   47.58   30.97
   0  -2  19  -32.11   84.52
  -2   1 -19   27.53   33.82
   1   2 -19   19.62   55.77
   1   2 -19   13.95   36.63
  -1  -2  19   -5.49   81.01
   2   2 -19   20.27   59.29
  -2   2 -19   12.50   32.12
   2   2 -19  -24.96   36.08
  -2   2 -19    4.52   49.83
   2  -2  19   -5.20   74.07
  -2  -2  19   22.60   83.50
   3   2 -19 1123.70  167.84
   3   2 -19  796.79  210.30
  -2   3 -19 1317.65  213.55
   2  -3  19 1245.71  251.76
  -3  -2  19  835.20  253.47
   3   1 -19   58.76   40.19
  -1   3 -19   96.83   34.26
  -1   3 -19   56.79   54.64
   3   1 -19  123.54   63.99
   1  -3  19   -9.25   77.09
  -3  -1  19  -13.17   97.25
   0   3 -19  631.60  129.02
   0   3 -19  596.48  112.76
   0  -3  19  499.08  151.33
   1   3 -19   60.65   56.11
   1   3 -19   70.75   33.09
  -3   1 -19   19.79   37.13
  -1  -3  19   -9.79   76.41
  -3   2 -19 1341.85  209.66
  -3   2 -19 1029.84  214.17
   2   3 -19  840.37  210.23
   2   3 -19  891.49  179.02
   3  -2  19  753.99  261.87
  -2  -3  19  750.45  240.65
  -4  -1  19  912.27  230.50
   0   4 -19  -25.70   53.45
   0  -4  19   -4.25   71.31
  -4   4 -19    4.52   20.67
  -4   4 -19   18.80   48.45
   4   4 -19  -50.47   38.06
   4  -4  19  -15.62   65.54
  -4  -4  19  -40.33   78.59
  -4   5 -19  443.65   87.74
  -4   5 -19  337.38   70.61
   5   4 -19  231.93   98.42
   4  -5  19  323.90   74.56
   4  -5  19  391.82   99.54
  -5  -4  19  524.13  121.34
  -3   5 -19  669.41  148.79
  -3   5 -19  810.30  168.41
   5   3 -19  771.97  173.29
   3  -5  19  760.79  189.44
  -5  -3  19  740.01  203.06
   3  -5  19  786.21  156.19
   3   5 -19 1036.49  166.78
   3   5 -19  895.28  146.78
  -3  -5  19  902.01  194.09
  -3  -5  19  830.43  150.63
   4   5 -19  373.48   73.31
   4   5 -19  184.48   97.79
  -4  -5  19  358.47   81.34
  -4  -5  19  310.07  114.19
   5   5 -19   41.87   65.03
  -5  -5  19    5.26   84.66
   6   4 -19    5.54   79.62
  -4   6 -19  268.55   41.36
  -4   6 -19  249.48   59.01
  -6  -4  19  240.04  106.66
   6   3 -19  251.35   51.92
  -3   6 -19  215.58   58.60
  -3   6 -19  146.94   41.33
   6   3 -19  124.84   81.11
  -6  -3  19  -12.04  110.16
   3  -6  19  156.25   47.11
   3  -6  19  105.83   71.84
  -2   6 -19  700.34  134.78
  -2   6 -19  594.45  111.34
   6   2 -19   41.20  139.80
   6   2 -19  199.24  100.58
   2  -6  19  705.30  121.49
  -6  -2  19  387.69  176.55
   2  -6  19  454.80  157.14
  -1   6 -19   45.07   54.96
   6   1 -19   -6.30   76.58
   6   1 -19   82.95   46.46
  -1   6 -19   89.53   34.43
  -6  -1  19    7.35  108.73
   1  -6  19   23.72   43.09
   1  -6  19  101.29   72.16
   0   6 -19  -22.05   33.30
   0   6 -19   -4.28   55.26
   0  -6  19   36.29   41.93
   0  -6  19   94.18   66.31
   6   0  19  -43.60   64.03
   1   6 -19  134.37   40.65
   1   6 -19  133.81   64.88
  -1  -6  19   25.69   76.37
  -1  -6  19   96.18   45.81
   2   6 -19  831.91  115.46
   2   6 -19  683.70  136.09
  -2  -6  19  777.14  123.46
  -2  -6  19  849.36  162.96
   3   6 -19   97.15   71.38
   3   6 -19  276.54   50.73
  -3  -6  19  122.77   57.58
  -3  -6  19  194.35   92.89
   4   6 -19    5.08   76.18
  -4  -6  19   -4.41   54.91
  -4  -6  19  147.80   95.82
   6   6 -19   25.42   46.66
   7   6 -19  -47.33   70.76
   7   6 -19    4.40   47.90
  -7  -6  19   59.15   61.60
  -7  -6  19   78.64  101.31
   7   5 -19   -4.06   45.40
  -7  -5  19   -4.64   56.86
  -4   7 -19   -8.51   26.94
  -3   7 -19  508.48   81.44
  -3   7 -19  376.73  100.90
   7   3 -19   47.38  110.71
   3  -7  19  434.80  120.63
  -7  -3  19  253.34  141.80
   3  -7  19  467.98   83.50
  -2   7 -19  104.41   31.62
  -2   7 -19  110.84   50.89
   7   2 -19   -4.02   40.37
   7   2 -19  -67.49   76.75
   2  -7  19   45.08   38.16
   2  -7  19   -7.76   71.23
  -7  -2  19    6.87  104.07
   7   1 -19   26.25   83.83
   7   1 -19   16.91   51.20
  -1   7 -19  177.81   45.93
  -1   7 -19  196.75   69.64
   1  -7  19  219.09   82.22
   1  -7  19  280.02   55.55
  -7  -1  19   99.70  126.77
   0   7 -19   88.85   59.25
   0   7 -19   41.93   34.81
   7   0  19   39.81   72.53
   0  -7  19   22.30   44.41
   0  -7  19   55.00   72.99
   1   7 -19  351.23   74.36
  -1  -7  19  295.26   90.56
  -1  -7  19  284.23   60.38
   2   7 -19   62.56   60.80
   2   7 -19  -10.87   37.49
  -2  -7  19   64.00   49.36
  -2  -7  19  183.73   80.23
   3   7 -19  437.17  106.52
  -3  -7  19  441.55  132.04
   5   7 -19    4.19   42.80
  -5  -7  19    4.87   53.42
   6   7 -19   -4.38   47.47
   6   7 -19   58.22   80.05
  -6  -7  19   80.70   96.36
   8   7 -19   -4.74   55.16
   8   7 -19  266.09   97.58
  -8  -7  19  638.68  128.74
  -8  -7  19  187.11   78.49
   8   4 -19    8.26   44.34
  -3   8 -19   64.89   54.48
  -3   8 -19   13.19   29.77
   3  -8  19   47.01   68.16
   3  -8  19    9.95   37.98
  -2   8 -19   56.60   37.05
  -2   8 -19  118.02   59.51
   2  -8  19  117.00   42.84
   2  -8  19   57.26   72.55
  -1   8 -19   47.63   55.69
  -1   8 -19   51.62   36.57
   1  -8  19   28.92   41.01
  -8  -1  19   -8.02  122.24
   1  -8  19  -59.42   71.81
   0   8 -19    6.99   37.81
   0   8 -19  -22.37   56.96
   8   0  19   68.05   85.17
   0  -8  19   -3.85   43.15
   0  -8  19   17.57   70.91
   1   8 -19  193.78   42.03
   1   8 -19  -13.99   62.19
   8  -1  19  -84.28   86.21
  -1  -8  19   68.20   78.71
  -1  -8  19  129.53   45.63
   4   8 -19  239.42   70.73
  -4  -8  19  395.47   91.54
   7   8 -19   81.07   60.69
   7   8 -19   25.39   90.95
  -7  -8  19  385.38  115.90
  -7  -8  19   -5.38   69.60
   8   8 -19    6.75   89.20
   8   8 -19   29.85   53.68
  -8  -8  19   22.45   71.56
  -8  -8  19   47.92  113.70
   9   8 -19 -107.60   92.83
   9   8 -19    5.18   51.86
  -9  -8  19  157.54   73.52
  -9  -8  19   36.55  114.05
   9   7 -19    6.86   84.08
   9   7 -19    4.95   51.98
  -9  -7  19   78.61  116.83
  -9  -7  19   -5.73   63.80
   9   6 -19    6.63   85.17
   9   6 -19    4.75   52.90
  -9  -6  19  -58.74   57.34
  -9  -6  19   75.90  116.72
   9   2 -19   13.00   45.67
  -2   9 -19    4.29   55.41
  -2   9 -19  -18.90   36.84
   2  -9  19    3.82   44.25
   2  -9  19   34.54   71.53
  -1   9 -19  156.74   39.25
  -1   9 -19  -35.30   60.45
   1  -9  19   71.21   43.42
   9   1  19   18.34   88.22
   1  -9  19   17.76   73.47
   0   9 -19    9.07   57.96
   0  -9  19   -4.56   71.13
   9   0  19   50.83   91.50
   9  -1  19  -24.82   94.30
   2   9 -19   63.17   39.62
  -2  -9  19    4.52   48.54
   6   9 -19    5.98   79.60
  -6  -9  19  141.71   98.15
   7   9 -19   30.86   53.01
   7   9 -19 -166.22   79.36
  -7  -9  19    6.28   99.79
  -7  -9  19   -5.67   66.87
   8   9 -19    5.38   53.67
   8   9 -19    6.88   91.29
  -8  -9  19  112.17   71.84
  -8  -9  19  123.69  118.87
  10   9 -19   -7.91  103.16
  10   9 -19    6.00   64.17
 -10  -9  19   83.01   72.27
 -10  -9  19    8.20  136.86
  10   7 -19  -21.85   93.07
  10   7 -19    5.14   52.91
 -10  -7  19   29.65   70.08
 -10  -7  19    7.72  125.35
  10   6 -19    7.02   86.99
  10   6 -19  -83.76   52.06
 -10  -6  19    5.56   59.67
 -10  -6  19   -7.31  119.04
  10   5 -19    6.82   87.99
  10   5 -19   18.60   50.73
 -10  -5  19  -92.67  123.24
 -10  -5  19 -116.69   62.74
  10   4 -19    6.71   86.86
  10   4 -19   -4.46   49.22
 -10  -4  19  -85.16   64.93
 -10  -4  19 -233.73  125.35
  -3  10 -19  -34.34   54.85
  10   3 -19    4.38   46.31
 -10  -3  19   90.28  120.51
  -3 -10  19    5.10   51.35
  -3 -10  19    5.19   84.41
   4  10 -19 -234.19   55.21
   4  10 -19  -85.45   63.69
  -4 -10  19   -5.41   92.83
  -4 -10  19  -79.88   61.29
   5  10 -19    5.21   52.74
   5  10 -19   -5.60   73.36
  -5 -10  19  -45.38   99.24
  -5 -10  19    5.57   64.26
   6  10 -19    6.00   77.27
  -6 -10  19    5.98   97.26
   7  10 -19  -19.14   81.34
   7  10 -19    5.68   53.65
  -7 -10  19  -12.73  105.88
  -7 -10  19    6.01   71.89
   9  10 -19    6.20   61.31
   9  10 -19    7.43   92.67
  -9 -10  19    6.54   70.23
  -9 -10  19   88.67  122.09
  10  10 -19 -128.84  104.59
  10  10 -19   12.92   68.66
 -10 -10  19   -6.88   80.70
 -10 -10  19  -40.82  124.32
  11  10 -19  -60.47   65.38
  11  10 -19    8.67  111.10
 -11 -10  19    7.16   82.41
 -11 -10  19 -326.50  148.19
  11   9 -19    6.25   62.53
  11   9 -19   16.84  108.01
 -11  -9  19    6.63   73.87
 -11  -9  19   61.66  150.24
  11   8 -19   24.16  103.37
  11   8 -19    5.73   51.39
 -11  -8  19   -6.32   74.74
 -11  -8  19   95.29  140.97
  11   6 -19    7.38   94.84
  11   6 -19   25.97   55.99
 -11  -6  19    5.80   68.29
 -11  -6  19    7.92  128.91
  11   5 -19   14.37   97.53
  11   5 -19    4.85   50.23
 -11  -5  19 -105.80   68.01
 -11  -5  19 -163.08  127.50
  11   4 -19  -77.22   83.45
  11   4 -19   74.39   48.77
 -11  -4  19  124.14  136.68
 -11  -4  19    5.27   59.61
  11   3 -19  -28.16   84.42
  11   3 -19   -4.60   51.07
 -11  -3  19  -72.01  125.60
  11   2 -19   -7.27   87.07
  11   2 -19  -18.75   52.08
 -11  -2  19   16.93  125.74
  11   1 -19   67.62   48.27
  -1  11 -19  111.23   62.33
  11   1  19   30.43  114.11
 -11  -1  19  -73.86  139.08
   0  11 -19  109.06   68.38
   1  11 -19   83.00   63.49
  -1 -11  19  -51.20   52.35
   2  11 -19   15.09   65.55
  -2 -11  19    5.30   56.44
   3  11 -19    5.20   59.84
   3  11 -19  -10.56   50.43
  -3 -11  19   10.94   62.02
   4  11 -19   -5.41   62.28
   4  11 -19    5.47   55.00
  -4 -11  19   -5.72   62.47
   5  11 -19   -5.72   71.33
   5  11 -19    5.64   57.90
  -5 -11  19    5.98   56.15
   6  11 -19   -6.04   73.01
  -6 -11  19  141.09  100.67
   8  11 -19    6.92   91.68
   8  11 -19    6.40   58.30
  -8 -11  19  131.78  111.14
  -8 -11  19    6.80   70.56
   9  11 -19   -7.43   92.47
   9  11 -19    6.68   65.74
  -9 -11  19  173.21  122.56
  -9 -11  19    7.08   73.14
  10  11 -19    6.97   70.61
  10  11 -19   72.78  101.83
 -10 -11  19  162.12   82.55
 -10 -11  19 -178.55  138.31
  12  11 -19   60.77   76.95
  12  11 -19  113.78  123.34
 -12 -11  19  -58.35  161.85
 -12 -11  19    7.92   86.73
  12   9 -19  -19.48   67.05
  12   9 -19    8.93  116.94
 -12  -9  19   41.64   79.99
 -12  -9  19  -78.42  158.47
  12   8 -19   -8.54  110.01
  12   8 -19 -172.83   63.40
 -12  -8  19  -32.76   73.18
 -12  -8  19   18.74  161.83
  12   7 -19  -11.10   59.93
  12   7 -19   -8.16  103.93
 -12  -7  19   75.76   74.36
 -12  -7  19   35.32  139.45
  12   6 -19    7.77   99.81
  12   6 -19   10.75   58.00
 -12  -6  19   50.56  154.12
 -12  -6  19   30.76   75.62
  12   4 -19    7.28   92.47
  12   4 -19  -53.15   52.83
 -12  -4  19   24.84  140.23
  12   3 -19   43.74   90.16
  12   3 -19    9.62   54.11
 -12  -3  19   -8.44  139.22
  12   2 -19  -45.53   97.51
  12   2 -19   -4.84   54.15
 -12  -2  19  -53.90  138.86
  12   1 -19   25.24   55.42
  12   1  19  171.97  125.21
 -12   0 -19  -12.78   85.84
  12   0  19 -173.62  116.91
 -12   1 -19  114.91   88.40
  12  -1  19  269.79  135.75
  12  -1  19  -48.22   44.66
  12  -2  19   -8.41  130.80
  12  -2  19   36.12   45.12
   6  12 -19   -6.18   77.43
   7  12 -19  -26.38   79.61
  -7 -12  19    6.69  101.83
  -7 -12  19   28.19   74.10
   8  12 -19   -7.02   85.97
  -8 -12  19 -305.89  114.42
  -8 -12  19    7.34   71.54
   9  12 -19    7.59   95.44
  -9 -12  19 -174.86  121.79
  -9 -12  19  -76.48   82.39
  11  12 -19   -8.84  110.20
 -11 -12  19  418.47  152.51
  12  12 -19    9.57  126.98
 -12 -12  19   49.24  168.84
  13  12 -19  103.43  138.11
 -13 -12  19  467.97  187.06
  13  11 -19   10.14  134.85
  13  11 -19   -7.87   74.72
 -13 -11  19  346.83  180.09
 -13 -11  19  147.15   91.77
  13  10 -19   58.18   72.02
  13  10 -19   -9.82  124.86
 -13 -10  19  -10.94  189.71
 -13 -10  19   53.79   87.14
  13   8 -19   80.98  113.21
  13   7 -19    8.53  114.88
  13   7 -19    5.80   65.51
 -13  -7  19   76.24  150.82
 -13  -7  19 -104.56   70.91
  13   6 -19    5.56   58.72
  13   6 -19    8.13  100.48
 -13  -6  19  128.30  163.03
 -13  -6  19 -142.46   77.26
  13   5 -19    5.40   55.37
  13   5 -19   -7.78   95.71
 -13  -5  19    6.11   69.45
 -13  -5  19 -124.08  147.17
  13   4 -19  -25.69   52.89
  13   4 -19  -60.43   91.61
 -13  -4  19  -78.79  143.01
 -13  -4  19    5.91   73.13
  13   3 -19  -10.02   55.62
 -13  -3  19  -98.44  142.41
 -13  -3  19   -5.71   68.26
  14  11 -19   10.69  136.40
 -14 -11  19   -8.50   93.89
 -14 -11  19   48.09  192.58
  14  10 -19  113.37  130.21
  14  10 -19  -22.50   78.57
 -14 -10  19  -11.66  201.83
 -14 -10  19   -7.98   85.42
  14   9 -19   -9.87  122.90
  14   9 -19    7.04   72.23
 -14  -9  19 -157.17  200.63
 -14  -9  19    7.42   75.08
  14   8 -19    6.43   67.44
  14   8 -19  122.42  130.69
 -14  -8  19 -328.99  180.33
 -14  -8  19  -49.30   83.16
  14   6 -19    8.41  113.64
  14   6 -19 -109.47   63.40
  14   5 -19   67.01   59.10
  14   5 -19    8.03   93.11
 -14  -5  19   51.06   75.64
 -14  -5  19   -9.34  146.89
  14   4 -19    7.77   93.81
  14   4 -19  -37.54   50.94
 -14  -4  19    9.27  153.27
 -14  -4  19   12.50   72.19
  14   3 -19   26.13   57.82
  14   3 -19 -305.26   94.16
 -14  -3  19  -47.05  145.71
 -14  -3  19   36.18   75.27
  14   2 -19  -21.06   56.59
 -14  -2  19   69.20  149.72
  14   1  19  -77.38  142.48
 -14   0 -19  -60.78   95.32
  14   0  19  -98.79   54.58
  14   0  19  228.43  147.06
 -14   1 -19  -73.57  103.47
 -14   1 -19 -105.16   93.88
  14  -1  19  122.57   58.48
  14  -1  19  162.10  149.61
 -14   2 -19   35.40  101.20
 -14   2 -19  105.54   90.36
  14  -2  19   51.08  146.55
  14  -2  19   57.27   51.93
  15   1  19   10.66  155.68
 -15   0 -19  209.27  115.24
  15   0  19   54.06  168.17
  15   0  19 -108.61   61.12
 -15   1 -19   16.31  114.17
 -15   1 -19 -143.49  105.33
  15  -1  19   21.96  163.48
  15  -1  19  -57.06   60.17
 -15   2 -19  215.29  106.57
 -15   2 -19 -149.77  117.39
  15  -2  19  -11.22  171.87
  15  -2  19  113.13   63.25
 -16  -1 -19  -47.41  115.98
  16   1  19   34.85  180.30
 -16   0 -19   18.51  127.64
 -16   0 -19  -42.04  110.12
  16   0  19  151.63   65.25
  16   0  19 -153.83  183.22
 -16   1 -19   99.62  122.57
 -16   1 -19  115.77  102.43
  16  -1  19  -71.12   67.45
  16  -1  19  203.76  176.43
 -16   2 -19  162.64  116.23
 -16   2 -19   70.22  131.21
  16  -2  19  -12.31  176.05
  16  -2  19  -62.82   65.02
  16  -3  19 -136.34  189.44
 -17  -1 -19  104.78  140.18
  17   1  19  139.27  194.52
 -17   0 -19  205.17  143.90
 -17   0 -19 -194.85  118.27
  17   0  19   -8.82   66.18
  17   0  19  166.36  198.22
 -17   1 -19  -60.39  139.91
 -17   1 -19  -93.39  118.96
  17  -1  19  -96.35   75.00
  17  -1  19   78.87  192.54
 -17   2 -19  -58.59  140.53
 -17   2 -19 -171.26  130.69
  17  -2  19   -8.70   69.27
  17  -2  19  269.06  208.68
  17  -3  19   13.57  205.51
 -18   0 -19  -57.00  155.01
  18   0  19   88.01   77.81
 -18   1 -19 -134.27  160.96
  18  -1  19   -9.71   77.21
 -18   2 -19   13.56  123.18
 -18   2 -19  -21.68  155.28
  18  -2  19  144.31   85.19
  18  -3  19   66.49   72.07
   0   1 -20  -23.44   41.22
   0  -1  20   32.67   96.03
   1   1 -20  127.98   46.50
   1   1 -20  135.64   70.96
  -1   1 -20   56.97   44.94
  -1  -1  20  193.95  104.83
   4   3 -20  -81.07   39.75
  -3   4 -20   50.66   53.80
  -3   4 -20    5.48   29.61
   4   3 -20  -67.28   67.86
  -4  -3  20  118.72   99.61
   3  -4  20   57.14   78.15
  -2   4 -20  936.93  169.25
   4   2 -20  524.87  170.71
  -2   4 -20  892.13  156.68
   4   2 -20  926.42  128.51
  -4  -2  20  162.84  208.57
   2  -4  20  552.80  190.11
   2   4 -20 1144.38  145.65
   2   4 -20  881.66  169.07
  -4   2 -20  765.36  168.84
  -2  -4  20  674.85  189.49
  -4   3 -20    5.40   30.30
   3   4 -20   30.07   39.18
   3   4 -20   15.72   67.02
  -4   3 -20   48.15   53.60
   4  -3  20   19.73   81.15
  -3  -4  20   20.84   83.35
  -4   4 -20  101.66   42.02
  -4   4 -20  209.09   63.99
   4   4 -20  131.08   81.11
  -4  -4  20   39.08   99.25
  -4   5 -20  120.24   36.23
  -4   5 -20  202.26   57.46
   5   4 -20  148.46   74.65
  -5  -4  20   17.57   97.74
  -3   5 -20  801.55  161.95
  -3   5 -20  867.03  144.08
  -5  -3  20  538.69  199.27
   3  -5  20  810.18  150.70
   3  -5  20  673.24  182.69
  -2   5 -20  738.57  140.75
  -2   5 -20  852.98  158.35
   5   2 -20  411.34  162.70
  -5  -2  20  568.32  203.77
   2  -5  20  649.36  177.98
   2  -5  20  646.37  148.82
  -1   5 -20  778.93  176.33
   5   1 -20  657.91  185.50
  -1   5 -20  867.60  159.19
   1  -5  20  742.21  199.28
  -5  -1  20  619.32  232.39
   1  -5  20  960.06  167.07
   0   5 -20   40.97   57.34
   0   5 -20   49.09   33.55
   0  -5  20   19.04   41.35
   0  -5  20 -205.18   79.52
   1   5 -20  753.35  157.28
   1   5 -20  942.68  176.12
  -1  -5  20  959.71  163.82
  -1  -5  20  876.17  199.67
   2   5 -20  672.87  138.09
   2   5 -20  799.58  159.04
  -2  -5  20  884.03  142.31
  -2  -5  20 1046.75  181.97
   3   5 -20  830.75  139.54
   3   5 -20  442.33  161.85
  -3  -5  20  912.64  143.93
  -3  -5  20  895.63  189.81
   4   5 -20   26.93   69.85
  -4  -5  20  175.74   94.56
   6   5 -20    8.29   43.80
  -6  -5  20   -4.67   53.94
  -3   6 -20  461.51   81.59
  -3   6 -20  448.40  100.42
   3  -6  20  377.75  117.96
   3  -6  20  497.09   90.00
  -2   6 -20  263.36   68.06
   6   2 -20    6.28   82.84
  -2   6 -20  125.25   50.62
   2  -6  20  193.06   56.34
   2  -6  20  228.61   85.49
  -6  -2  20   42.26  118.11
   6   1 -20    4.39   53.82
  -1   6 -20  139.56   46.78
  -1   6 -20  223.27   69.72
   6   1 -20  160.92   89.34
  -6  -1  20  117.58  122.33
   1  -6  20  232.49   81.99
   1  -6  20  266.09   53.97
   0   6 -20   13.61   35.39
   0   6 -20   68.54   60.29
   0  -6  20   70.07   44.50
   0  -6  20   81.19   72.70
   1   6 -20  112.10   48.32
   1   6 -20  128.62   67.35
  -1  -6  20  254.61   90.94
  -1  -6  20  267.46   59.61
   2   6 -20  422.46   58.50
   2   6 -20  178.64   78.00
  -2  -6  20  339.82   95.09
  -2  -6  20  176.91   66.39
   3   6 -20   20.70  105.96
  -3  -6  20  530.10  131.89
   5   6 -20    4.20   47.05
  -5  -6  20  173.59   62.58
   6   6 -20    5.98   81.69
  -6  -6  20   90.68  105.15
   7   5 -20    6.20   80.48
   7   5 -20  -51.37   46.59
  -7  -5  20    6.34  100.82
  -7  -5  20  -33.77   55.66
   7   4 -20  -12.55   44.82
   7   4 -20   -6.23   72.80
  -7  -4  20   -6.50   83.82
  -3   7 -20   56.25   31.98
   7   3 -20   -4.19   42.91
  -3   7 -20   45.92   52.38
   3  -7  20   68.14   70.84
   3  -7  20   57.21   37.44
  -2   7 -20  368.39   91.13
  -2   7 -20  318.81   67.03
   2  -7  20  376.15   72.94
   2  -7  20  296.17  108.73
  -1   7 -20   -9.15   62.36
  -1   7 -20   29.15   38.02
   1  -7  20   79.82   82.99
   1  -7  20   51.89   46.83
   0   7 -20  -31.00   37.62
   0   7 -20   23.79   63.97
   0  -7  20   87.92   79.00
   0  -7  20   48.15   48.04
   1   7 -20  187.05   41.22
   1   7 -20  123.72   67.13
  -1  -7  20   62.64   87.17
  -1  -7  20   81.66   48.77
   2   7 -20  375.76   97.74
  -2  -7  20  190.75  117.12
   4   7 -20   -4.28   44.27
  -4  -7  20   -5.48   89.61
  -4  -7  20   -4.91   59.48
   5   7 -20    5.85   75.66
  -5  -7  20   23.83  105.42
  -5  -7  20   85.86   59.33
   8   7 -20  -89.00   98.17
   8   7 -20   -5.01   49.42
  -8  -7  20  -34.40   75.99
  -8  -7  20  -78.70  118.00
   8   6 -20  -19.27   52.16
   8   6 -20    6.67   85.38
  -8  -6  20    5.35   56.00
  -8  -6  20  116.57  118.15
  -3   8 -20  108.18   37.38
  -3   8 -20   56.95   58.67
   8   3 -20   -6.57   81.88
   8   3 -20    4.28   41.40
  -8  -3  20  260.04  113.52
   3  -8  20   16.84   72.41
   3  -8  20    6.77   38.91
   8   2 -20  -26.34   45.80
  -2   8 -20   -4.54   57.98
  -2   8 -20   10.35   38.17
   2  -8  20  -28.58   39.55
   2  -8  20  -57.31   76.07
   8   1 -20 -115.28   46.09
  -1   8 -20  108.67   38.03
  -1   8 -20    9.40   61.87
   1  -8  20  161.06   79.40
   1  -8  20   -7.65   40.43
   0   8 -20   63.24   75.68
   0  -8  20   78.84   87.86
   0  -8  20  258.72   53.39
   2   8 -20  -11.98   43.75
  -2  -8  20   -4.54   48.92
   3   8 -20  153.11   70.82
   3   8 -20    4.21   44.39
  -3  -8  20  132.74   92.23
  -3  -8  20    4.77   52.71
   6   8 -20    6.35   90.20
  -6  -8  20   76.29  109.76
   7   8 -20    5.05   53.88
   7   8 -20   -6.72   89.99
  -7  -8  20  128.02  113.50
  -7  -8  20    5.69   65.28
   8   8 -20    7.11   94.78
   8   8 -20    5.25   53.14
  -8  -8  20  236.33  119.94
  -8  -8  20    5.91   66.25
   9   8 -20   -5.47   57.86
   9   8 -20   -7.55   93.61
  -9  -8  20 -104.07   74.44
  -9  -8  20 -214.09  133.65
   9   7 -20   10.40   62.46
   9   7 -20    7.28   93.72
  -9  -7  20   -5.99   68.73
  -9  -7  20  288.98  131.46
   9   6 -20    7.07   93.39
   9   6 -20    5.00   53.12
  -9  -6  20    5.56   68.10
  -9  -6  20  283.44  123.49
   9   5 -20 -110.78   92.96
   9   5 -20    4.59   50.41
  -9  -5  20  -28.55  125.48
  -9  -5  20  -21.00   60.90
   9   4 -20    6.83   85.29
   9   4 -20    4.48   49.37
  -9  -4  20    7.37  121.36
   4   9 -20   -5.72   73.90
   4   9 -20    9.46   46.91
  -4  -9  20   -5.23   59.82
  -4  -9  20   -5.61   95.32
   5   9 -20    4.94   51.52
   5   9 -20   -6.02   77.48
  -5  -9  20   58.82   96.83
  -5  -9  20   -5.49   54.60
   6   9 -20   83.06   85.60
  -6  -9  20  -44.51  111.56
   7   9 -20    5.40   63.56
   7   9 -20  184.63   94.87
  -7  -9  20  454.28   80.38
  -7  -9  20  162.08  114.17
   8   9 -20  -36.47   88.26
   8   9 -20    5.64   64.30
  -8  -9  20  136.81   70.86
  -8  -9  20  158.66  120.37
  10   9 -20    6.14   62.31
  10   9 -20  -33.22  107.72
 -10  -9  20    8.56  145.44
 -10  -9  20    6.70   80.30
 -10  -8  20  305.10  149.27
  10   6 -20    5.19   51.81
  10   6 -20    7.45   95.23
 -10  -6  20  -47.29  136.55
 -10  -6  20   -5.81   68.49
  10   5 -20    7.30   94.08
  10   5 -20    4.87   51.87
 -10  -5  20   22.07   68.50
 -10  -5  20  272.41  132.69
  10   4 -20   -4.67   50.57
  10   4 -20   14.30   84.81
 -10  -4  20  125.10  138.92
  -3  10 -20   -4.59   65.22
  10   3 -20   -7.17   87.15
  10   3 -20   -4.66   47.05
 -10  -3  20   24.25  127.31
  10   2 -20   51.70   84.97
  10   2 -20   47.26   55.72
 -10  -2  20   25.64  137.44
  10   1 -20   -4.90   54.15
  -1  10 -20  -57.49   47.08
   1 -10  20   -4.91   73.33
 -10  -1  20  -27.91  149.10
   1 -10  20  -13.32   49.17
   0  10 -20  277.49   62.19
   0  10 -20  153.00   77.08
   0 -10  20   18.59   62.54
   0 -10  20   95.38   94.84
   1  10 -20  -35.48   67.10
   1  10 -20    9.26   46.63
  -1 -10  20    4.84   53.74
  -1 -10  20  -82.35   85.54
   2  10 -20   31.34   67.44
   2  10 -20   90.88   52.93
  -2 -10  20  211.86   91.40
  -2 -10  20   35.56   56.95
   3  10 -20   -9.99   49.85
   3  10 -20   82.38   72.76
  -3 -10  20  125.96   89.98
  -3 -10  20    5.26   58.01
   4  10 -20    5.22   51.23
   4  10 -20    5.72   73.62
  -4 -10  20    5.51   63.16
  -4 -10  20   17.09  100.63
   5  10 -20   21.84   55.65
   5  10 -20 -264.15   78.69
  -5 -10  20    5.97   96.20
  -5 -10  20  -80.69   66.24
   6  10 -20    6.39   80.69
  -6 -10  20   12.73  106.70
  -8 -10  20  369.28  148.34
   9  10 -20    6.50   67.39
   9  10 -20   23.75  111.41
  -9 -10  20   79.26  135.60
  -9 -10  20 -122.84   71.24
  10  10 -20    8.50  111.90
  10  10 -20   -6.77   66.27
 -10 -10  20    7.11   84.69
 -10 -10  20 -123.59  136.57
  11   9 -20    8.85  115.32
  11   9 -20  -45.90   68.66
 -11  -9  20   27.77   79.88
 -11  -9  20  238.59  157.91
  11   8 -20    8.53  109.73
  11   8 -20    5.90   63.80
 -11  -8  20   13.21   75.97
 -11  -8  20   64.32  145.66
  11   7 -20    8.20  107.35
  11   7 -20   16.87   57.13
 -11  -7  20   17.48  153.98
 -11  -7  20  -57.98   79.33
  11   5 -20    5.08   56.50
  11   5 -20  -15.25   98.93
 -11  -5  20  124.46  131.01
 -11  -5  20    5.82   69.47
  11   4 -20  201.70   96.28
  11   4 -20   -4.88   52.55
 -11  -4  20 -192.10  146.60
 -11  -4  20    5.49   58.43
  11   3 -20    4.82   50.45
  11   3 -20    7.43   87.12
 -11  -3  20   85.14  147.26
  11   2 -20 -201.95   55.92
  -2  11 -20   57.66   58.67
  11   2 -20  -15.41   92.64
 -11  -2  20 -116.83  130.70
  -1  11 -20  191.36   66.22
  11   1 -20    5.09   51.97
 -11  -1  20    9.73  157.15
  11   1  20   78.25  117.71
   0  11 -20   10.03   65.95
   0 -11  20    5.07   57.32
  11   0  20   53.82  113.23
   1  11 -20  -15.41   64.91
  -1 -11  20   94.68   58.96
   2  11 -20   84.43   53.46
   2  11 -20    5.32   64.07
  -2 -11  20  141.47   59.41
   3  11 -20   -5.42   52.45
   3  11 -20   27.64   70.22
  -3 -11  20   28.18   95.74
  -3 -11  20   39.87   64.82
   4  11 -20   -5.64   56.36
   4  11 -20    5.76   73.12
  -4 -11  20  -40.98   96.08
  -4 -11  20  101.36   68.42
   5  11 -20   84.41   75.61
   5  11 -20  -17.60   57.20
  -5 -11  20    6.24   70.78
  -5 -11  20 -220.34  101.70
   7  11 -20   20.47   80.43
   7  11 -20    6.39   67.98
  -7 -11  20 -143.21  108.69
  -7 -11  20  -81.22   75.63
   8  11 -20    6.68   64.53
   8  11 -20   -7.34   93.49
  -8 -11  20  132.32  111.79
  -8 -11  20   28.23   80.31
   9  11 -20    7.92  101.79
   9  11 -20    6.97   67.85
  -9 -11  20  260.06  137.97
  -9 -11  20    7.35   78.64
  11  11 -20    9.29  124.38
  11  11 -20  -30.26   73.13
 -11 -11  20    9.40  149.22
 -11 -11  20    7.99   92.34
  12  11 -20    9.98  130.01
  12  11 -20   -7.88   76.61
 -12 -11  20  -41.39   89.87
 -12 -11  20  -10.50  172.89
  12  10 -20   14.64   75.49
  12  10 -20   19.44  124.87
 -12 -10  20  138.22  179.61
 -12 -10  20   23.29   88.32
  12   8 -20    9.04  118.99
  12   8 -20    6.26   65.19
 -12  -8  20    6.87   83.63
 -12  -8  20   19.57  161.69
  12   7 -20  -35.04   60.08
  12   7 -20   -8.66  112.34
 -12  -7  20   -6.64   73.15
 -12  -7  20    9.30  151.14
  12   6 -20  -74.66  102.25
  12   6 -20  -17.01   62.16
 -12  -6  20 -171.20   79.32
 -12  -6  20 -100.85  155.80
  12   5 -20   -7.96  101.08
  12   5 -20   21.22   54.48
 -12  -5  20    8.93  144.11
 -12  -5  20 -146.03   74.51
  12   2 -20   64.14  100.71
  12   1 -20   -5.32   59.06
  12   1  20  -75.76  122.91
  12   0  20   76.24  136.93
  12  -1  20   25.88  133.81
   2  12 -20   76.78   73.32
   5  12 -20  -43.39   76.50
  -5 -12  20   -6.71   70.72
   6  12 -20   39.16   84.69
  -6 -12  20    7.00   73.76
  -6 -12  20  -66.26  106.01
   7  12 -20  -48.29   89.75
  -7 -12  20  153.99  114.38
  -7 -12  20  -87.71   80.20
   8  12 -20    7.43   91.52
  -8 -12  20    7.62   88.29
  -8 -12  20  -66.88  123.70
  10  12 -20   -8.64  108.30
 -10 -12  20   49.56   94.74
 -10 -12  20    8.63  144.42
  11  12 -20   56.13  115.62
 -11 -12  20    8.59   92.74
 -11 -12  20  114.38  164.35
  12  12 -20   91.25  125.96
 -12 -12  20   72.11  178.64
 -12 -12  20    8.91   87.84
  13  11 -20   10.63  128.54
  13  11 -20 -197.59   82.73
 -13 -11  20  102.70  102.17
 -13 -11  20   11.31  188.08
  13  10 -20   82.51  128.01
  13  10 -20    7.59   83.14
 -13 -10  20   24.15   94.74
 -13 -10  20  -22.86  184.64
  13   9 -20    9.96  127.64
  13   9 -20 -106.17   78.18
 -13  -9  20 -277.20  193.97
 -13  -9  20    7.53   88.28
  13   7 -20    9.07  114.45
  13   7 -20   -6.12   64.14
 -13  -7  20  -48.11   81.69
  13   6 -20    5.87   62.69
  13   6 -20    8.65  110.66
 -13  -6  20  107.23  160.29
 -13  -6  20    6.74   74.13
  13   5 -20    8.26   99.08
  13   5 -20    5.69   58.07
 -13  -5  20  -38.29   74.46
 -13  -5  20    9.44  145.41
  13   4 -20    8.03  102.91
  13   4 -20 -111.10   55.45
 -13  -4  20  -24.65   72.34
 -13  -4  20   -9.38  146.99
  13   3 -20    8.01   96.97
  13   3 -20   42.08   59.80
 -13  -3  20    9.50  159.79
  13   2 -20  -16.04   55.44
  13   2 -20    8.34   99.80
 -13  -2  20  -89.82  153.31
  13   1 -20  -93.93   58.89
  13   1  20  327.10  147.67
 -13   0 -20  -56.56   87.85
  13   0  20   18.61  139.65
  13  -1  20  -11.90   47.14
  13  -1  20   75.57  150.54
  14  10 -20  -15.79   77.39
  14  10 -20   10.90  144.24
 -14 -10  20  173.22  209.41
 -14 -10  20    8.31   90.98
  14   9 -20  -10.50  138.61
  14   9 -20    7.31   74.46
 -14  -9  20    7.77   89.68
 -14  -9  20 -490.00  218.07
  14   8 -20    6.76   75.52
  14   8 -20   -9.97  121.20
 -14  -8  20    7.43   80.68
 -14  -8  20  -11.41  205.81
  14   7 -20   50.58   68.10
  14   7 -20  -94.72  125.20
 -14  -7  20  -10.94  186.60
 -14  -7  20   78.30   86.57
  14   4 -20  -90.31   61.25
  14   4 -20   74.24  104.14
 -14  -4  20 -108.41  159.65
 -14  -4  20   58.72   80.38
  14   3 -20   71.59   64.80
  14   3 -20 -107.87  101.35
 -14  -3  20 -296.95   81.19
 -14  -3  20  -69.90  154.98
  14   2 -20   -5.54   60.65
 -14  -2  20   62.54  160.16
  14   1 -20   56.85   62.42
  14   1  20 -139.51  143.02
 -14   0 -20   85.02   95.98
  14   0  20 -132.13  153.92
 -14   1 -20   44.84  107.07
 -14   1 -20   44.63   97.32
  14  -1  20  -72.49  163.31
  14  -1  20   52.28   55.45
 -15  -9  20    8.04   92.40
 -15  -8  20   30.57   84.42
  16   1  20   35.64  178.73
 -16   0 -20   37.50  127.25
 -16   0 -20  -85.48  112.83
  16   0  20 -265.90  179.39
 -16   1 -20 -127.72  129.99
 -16   1 -20   32.09  112.58
  16  -1  20   55.81   66.86
  16  -1  20  232.41  200.57
  17   1  20 -142.35  200.99
 -17   0 -20  -72.53  142.68
 -17   0 -20  186.27  129.73
  17   0  20   91.53  195.82
 -17   1 -20   94.74  126.02
 -17   1 -20   70.95  143.57
  17  -1  20   26.55   71.05
  17  -1  20 -187.65  214.85
  17  -2  20   95.94  210.60
  -1   2 -21   67.40   42.25
   2   1 -21   -4.34   44.10
   1   2 -21  106.47   43.67
  -2   1 -21   97.84   42.80
   2   2 -21   20.11   43.90
  -2   2 -21   -3.57   34.80
  -2   2 -21  -42.39   63.42
   2   2 -21   17.47   63.09
   2  -2  21   24.69   94.61
  -2  -2  21   13.25   93.31
   3   2 -21  482.52  122.11
   3   2 -21  364.98   91.57
  -2   3 -21  630.88  108.12
  -2   3 -21  877.91  124.23
   2  -3  21  404.27  149.66
  -3  -2  21  331.92  162.34
   3   1 -21   70.69   75.19
  -1   3 -21   35.63   63.73
  -1   3 -21  -61.04   39.59
   3   1 -21  -21.95   45.53
  -3  -1  21  234.29  108.28
   1  -3  21  -27.91   87.43
   0   3 -21  350.74   89.15
   0   3 -21  304.60   69.45
   0  -3  21  221.61  115.47
  -3   1 -21  -11.15   36.61
   1   3 -21  -32.39   67.81
   1   3 -21   -3.83   39.18
  -1  -3  21   35.04   94.60
   2   3 -21  741.60  123.22
   2   3 -21  494.27   96.20
  -3   2 -21  471.86  110.04
  -2  -3  21  427.43  150.60
   3  -2  21  336.28  153.54
  -3   3 -21   -6.44   36.06
  -3   3 -21   19.32   56.13
   3   3 -21   -8.01   42.11
   3   3 -21  -40.39   73.13
  -3  -3  21  130.75   99.52
   3  -3  21  -59.60   89.72
  -3   4 -21  565.05   94.01
   4   3 -21  125.57  114.38
  -3   4 -21  558.31  107.81
   4   3 -21   -4.08   79.61
  -4  -3  21  310.10  147.48
   3  -4  21  557.62  128.16
  -2   4 -21   99.18   60.93
   4   2 -21    6.24   78.92
   4   2 -21   20.69   42.29
  -2   4 -21   58.06   36.98
   2  -4  21  138.10   79.03
  -4  -2  21   42.01  104.58
  -1   4 -21  458.76  124.37
   4   1 -21  483.00   93.52
  -1   4 -21  832.58  111.92
   4   1 -21  219.15  132.67
   1  -4  21  609.57  147.80
  -4  -1  21  342.74  177.36
   0   4 -21  -45.45   63.35
   0   4 -21   17.91   38.05
   0  -4  21  134.82   87.47
   1   4 -21  450.56  125.93
   1   4 -21  688.66  106.48
  -4   1 -21  408.48  116.59
  -1  -4  21  687.08  149.57
  -4   2 -21   70.97   36.74
   2   4 -21   65.22   68.99
   2   4 -21   62.03   43.23
  -2  -4  21  -72.23   91.30
   3   4 -21  716.87  114.48
  -4   3 -21  635.75   97.13
  -4   3 -21  461.48  108.88
   3   4 -21  449.67   85.42
  -3  -4  21  260.16  137.17
   4   4 -21   -5.87   76.00
  -4  -4  21   -6.04  100.96
  -3   5 -21  202.59   69.01
  -3   5 -21  217.58   48.73
   3  -5  21  183.74   55.07
   3  -5  21  200.44   86.39
  -2   5 -21  509.67   89.40
   5   2 -21   38.75  118.82
  -2   5 -21  475.49  107.30
  -5  -2  21  333.65  150.76
   2  -5  21  505.71  123.16
   2  -5  21  234.75   95.41
   5   1 -21    6.88   81.52
  -1   5 -21   89.99   62.62
  -1   5 -21  135.98   41.80
   1  -5  21   77.78   53.11
   1  -5  21  136.24   87.62
  -5  -1  21   80.53  118.93
   0   5 -21  564.51   97.51
   0   5 -21  329.61  114.86
   0  -5  21  395.28  104.00
   0  -5  21  592.43  134.34
   1   5 -21   76.70   68.51
   1   5 -21  103.81   46.00
  -1  -5  21  122.50   90.01
  -1  -5  21  203.55   55.81
   2   5 -21  482.52   87.96
   2   5 -21  638.75  112.52
  -2  -5  21  448.62  131.12
  -2  -5  21  512.33   94.56
   3   5 -21   66.48   81.58
  -3  -5  21  183.43  103.60
   5   5 -21   -6.04   67.40
   5   5 -21   -8.48   45.06
  -5  -5  21   -4.74   56.54
  -5  -5  21   -6.10   89.70
   6   5 -21   69.83   80.56
  -6  -4  21  571.28  112.97
   6   3 -21    4.29   55.15
  -3   6 -21  245.51   47.56
  -3   6 -21  208.10   69.55
   3  -6  21  173.60   54.39
   3  -6  21  246.93   83.77
  -2   6 -21  402.49  100.92
  -2   6 -21  462.38  120.13
   2  -6  21  790.38  142.81
   2  -6  21  512.96  106.78
  -1   6 -21  116.48   43.19
  -1   6 -21  141.65   65.70
   1  -6  21   23.21   84.61
   1  -6  21   35.35   48.43
   0   6 -21   11.00   37.86
   0   6 -21  -73.76   61.99
   0  -6  21   70.93   52.03
   0  -6  21   87.51   82.17
   1   6 -21   10.25   68.02
   1   6 -21  188.68   46.02
  -1  -6  21  274.20   95.84
  -1  -6  21  140.69   58.68
   2   6 -21  709.44  124.75
  -2  -6  21  471.83  150.84
   4   6 -21   60.02   54.33
   4   6 -21   -5.81   69.40
  -4  -6  21    9.85   58.88
  -4  -6  21   -5.79   98.17
   5   6 -21   30.50   80.36
  -5  -6  21   42.48  108.28
  -5  -6  21    5.08   53.41
   7   6 -21   -4.75   49.97
   7   6 -21    6.76   94.36
  -7  -6  21   -5.40   63.88
  -7  -6  21   82.14  115.25
   7   3 -21  -17.65   47.24
  -3   7 -21   66.41   60.26
   7   3 -21    6.72   80.25
  -3   7 -21   79.38   33.90
  -7  -3  21 -110.41  115.09
   3  -7  21   67.35   41.65
   3  -7  21   43.82   76.08
  -2   7 -21   32.59   63.41
   7   2 -21    4.47   46.94
  -2   7 -21   39.17   37.55
   7   2 -21  332.92   87.03
   2  -7  21   92.48   78.21
   2  -7  21   29.33   44.61
   7   1 -21    4.74   46.82
  -1   7 -21  -27.66   36.77
  -1   7 -21  -24.31   63.08
   1  -7  21   59.83   45.74
   1  -7  21   24.25   82.44
   0   7 -21   35.43   61.01
   0   7 -21  121.92   41.08
   0  -7  21  -81.03   88.37
   0  -7  21   64.99   51.53
   3   7 -21   34.85   49.83
   3   7 -21  164.96   74.21
  -3  -7  21    4.93   64.37
   6   7 -21    6.51   89.58
  -6  -7  21   46.30  109.41
   7   7 -21    5.11   60.99
   7   7 -21 -151.72   99.51
  -7  -7  21 -170.72   91.03
  -7  -7  21  255.26  127.04
   8   7 -21 -102.14   97.41
   8   7 -21  -52.92   57.07
  -8  -7  21  113.44   77.13
  -8  -7  21  172.85  118.79
   8   6 -21    4.92   51.56
  -8  -6  21  166.69  118.33
  -8  -6  21    5.59   74.34
   8   5 -21    7.02   89.29
   8   5 -21   -4.65   46.24
  -8  -5  21   36.82  119.60
  -8  -5  21  -36.51   64.51
   5   8 -21  198.20   88.91
   5   8 -21    4.86   46.49
  -5  -8  21   -6.35  104.71
  -5  -8  21 -161.00   56.66
   6   8 -21    6.71   85.00
  -6  -8  21    6.68  110.50
   7   8 -21    5.28   52.10
   7   8 -21    7.08   94.52
  -7  -8  21   17.97   76.41
  -7  -8  21  241.86  126.57
   8   8 -21   -5.49   60.54
  -8  -8  21 -148.94   77.68
  -8  -8  21    7.79  130.51
   9   7 -21   -5.48   58.55
   9   7 -21    7.76  102.06
  -9  -7  21   48.71  128.17
  -9  -7  21 -261.19   78.18
   9   6 -21  -10.50   56.76
   9   6 -21   -7.52   97.99
  -9  -6  21  330.11  142.86
  -9  -6  21   -5.80   70.35
   9   5 -21   -4.81   50.97
   9   5 -21    7.40   96.32
  -9  -5  21   78.14  133.81
  -9  -5  21   -5.46   62.33
   9   4 -21   -7.28   81.33
   9   4 -21  -70.36   51.83
  -9  -4  21   23.65  128.51
   9   3 -21   37.34   50.75
   9   3 -21   14.54   86.91
  -3   9 -21   38.60   63.18
  -9  -3  21    8.18  136.37
   9   2 -21  -15.05   88.33
   9   2 -21   14.39   52.06
  -9  -2  21    8.66  135.14
   2   9 -21   54.50   47.12
   2   9 -21   22.59   69.64
  -2  -9  21   -5.00   56.82
  -2  -9  21  131.52   97.87
   3   9 -21   -9.52   51.57
   3   9 -21   -5.87   73.15
  -3  -9  21   40.74   99.67
  -3  -9  21  -94.98   58.27
   4   9 -21   -4.98   54.43
   4   9 -21 -172.21   82.46
  -4  -9  21    5.49   62.30
  -4  -9  21   60.61  104.54
   5   9 -21   45.36   87.21
   5   9 -21   26.07   54.66
  -5  -9  21   82.57  105.29
  -5  -9  21    5.74   60.63
   6   9 -21   88.89   87.44
  -6  -9  21    6.70  112.37
   7   9 -21   29.01   96.54
   7   9 -21   -5.68   58.70
  -7  -9  21    6.22   74.92
  -7  -9  21  -22.00  117.86
   9   9 -21   -6.17   55.42
   9   9 -21  -81.92  106.51
  -9  -9  21 -103.81  140.12
  -9  -9  21  -40.68   79.97
  10   9 -21  104.84  112.39
  10   9 -21   32.16   69.07
 -10  -9  21    7.04   78.59
 -10  -9  21   -9.29  148.06
  10   8 -21    5.98   58.76
  10   8 -21    8.48  110.16
 -10  -8  21  108.02  151.81
 -10  -8  21  -86.61   78.19
  10   5 -21   -7.74   98.12
  10   5 -21    5.00   56.00
 -10  -5  21  -49.92  126.45
 -10  -5  21    5.73   69.26
  10   4 -21   -4.89   56.07
  10   4 -21   -7.61   95.58
 -10  -4  21   -8.42  138.64
  10   3 -21  121.24   93.94
 -10  -3  21   43.01  144.08
  10   2 -21    9.93   51.17
  -2  10 -21  227.43   64.53
  10   2 -21 -148.93   94.22
  -2  10 -21   66.46   39.46
   2 -10  21  191.91   85.19
   2 -10  21   30.56   47.82
 -10  -2  21 -127.15  138.08
  10   1 -21   41.38   59.72
  -1  10 -21   31.09   68.62
  -1  10 -21  134.71   47.29
 -10  -1  21    9.81  141.08
   1 -10  21   -4.59   51.80
   1 -10  21  186.46   90.78
   0  10 -21    5.31   66.04
   0  10 -21  -32.43   45.75
   0 -10  21  -10.61   90.59
   0 -10  21  -67.21   54.20
   1  10 -21   54.54   72.74
   1  10 -21  119.75   53.59
  -1 -10  21  168.61   93.34
  -1 -10  21  -25.29   57.15
   2  10 -21   15.01   51.19
   2  10 -21  -84.36   73.05
  -2 -10  21  -99.86   58.89
  -2 -10  21 -139.93   88.86
   3  10 -21    5.83   73.96
   3  10 -21   15.72   52.53
  -3 -10  21    5.85   97.35
  -3 -10  21 -126.80   64.33
   4  10 -21    6.13   66.51
   4  10 -21    5.41   55.45
  -4 -10  21   63.58   67.64
  -4 -10  21  -54.70  102.18
   5  10 -21   -5.67   60.09
   5  10 -21    6.45   81.52
  -5 -10  21   -6.36  104.10
  -5 -10  21   -6.05   65.93
   8  10 -21   39.07   99.45
   8  10 -21    6.47   64.28
  -8 -10  21   15.51  133.02
  -8 -10  21   -6.87   83.60
   9  10 -21    6.74   68.29
   9  10 -21    8.35  106.66
  -9 -10  21  157.08   86.59
  -9 -10  21   68.68  133.78
  10  10 -21   63.11   74.94
  10  10 -21   17.92  111.08
 -10 -10  21   44.51   87.82
 -10 -10  21  267.68  150.52
  11   9 -21    9.30  123.28
  11   9 -21   -6.70   71.51
 -11  -9  21  -89.68  155.95
 -11  -9  21 -145.84   85.10
  11   8 -21   90.37  119.98
  11   8 -21  -18.62   66.95
 -11  -8  21  230.60  167.48
 -11  -8  21   82.98   82.36
  11   7 -21  -78.46  111.77
  11   7 -21  -41.42   59.39
 -11  -7  21    6.77   79.97
 -11  -7  21    9.21  161.12
  11   6 -21   -8.41  105.29
  11   6 -21    5.65   65.24
 -11  -6  21  -91.54  154.33
 -11  -6  21 -233.64   80.33
  11   3 -21    5.04   54.95
  11   3 -21   55.19   94.39
 -11  -3  21   81.58  140.27
  -2  11 -21   20.51   70.35
  11   2 -21   10.35   62.11
  11   2 -21   81.50  101.88
   2 -11  21   68.67   98.16
 -11  -2  21  240.04  157.11
  -1  11 -21  -10.48   65.01
  11   1 -21   -5.36   56.35
   1 -11  21   43.12   95.88
   0  11 -21  230.24   91.23
   0 -11  21  505.86  118.61
   0 -11  21  166.47   77.51
   1  11 -21  -10.98   71.27
   1  11 -21    5.27   55.24
  -1 -11  21 -151.71   95.43
  -1 -11  21  -21.60   58.17
   2  11 -21  -33.89   79.39
   2  11 -21  314.33   63.94
  -2 -11  21   57.68   99.60
  -2 -11  21  119.10   69.51
   3  11 -21  -29.62   75.18
   3  11 -21    5.63   57.14
  -3 -11  21 -107.02   99.07
  -3 -11  21  -35.70   66.54
   6  11 -21    6.42   65.85
   6  11 -21   13.60   89.43
  -6 -11  21   47.49   80.41
  -6 -11  21    6.84  103.49
   7  11 -21  109.22   96.09
   7  11 -21   -6.71   70.32
  -7 -11  21   14.47  118.78
   8  11 -21    7.80   96.92
   8  11 -21    7.01   62.31
  -8 -11  21 -146.42  132.88
  -8 -11  21   14.76   86.43
   9  11 -21   -7.31   74.15
   9  11 -21    8.42  108.01
  -9 -11  21    7.68   84.76
  -9 -11  21   42.28  139.87
  11  11 -21   -9.78  121.17
  11  11 -21    7.91   78.02
 -11 -11  21  -10.16  175.11
 -11 -11  21    8.29   89.18
  12  11 -21    8.23   86.90
  12  11 -21   10.47  139.67
 -12 -11  21   -8.66  101.57
 -12 -11  21  -10.96  174.12
  12  10 -21   10.22  126.62
  12  10 -21    7.68   78.18
 -12 -10  21   22.23  171.36
 -12 -10  21  -24.05   86.33
  12   7 -21  -73.43  125.50
  12   7 -21   -6.14   63.61
 -12  -7  21  180.47  165.16
 -12  -7  21    6.97   71.48
  12   6 -21    8.83  112.73
  12   6 -21   -5.96   62.08
 -12  -6  21   58.56  159.68
 -12  -6  21   -6.60   80.16
  12   5 -21    5.56   56.44
  12   5 -21    8.46  102.01
 -12  -5  21   44.44   82.08
 -12  -5  21 -522.82  160.11
  12   4 -21   -8.22   96.59
  12   4 -21    5.33   62.94
 -12  -4  21  -94.07  148.33
 -12  -4  21   12.05   76.74
  12   3 -21    5.28   57.57
  12   3 -21 -278.03   98.73
 -12  -3  21  259.24  154.83
   3  12 -21   41.96   75.53
  -3 -12  21  122.84   99.21
  -3 -12  21   44.80   72.28
   4  12 -21   56.08   79.85
  -4 -12  21 -114.48   98.66
  -4 -12  21    6.68   71.31
   5  12 -21    6.51   80.96
  -5 -12  21   -6.63  105.56
  -5 -12  21 -111.86   76.11
   6  12 -21    6.94   85.38
  -6 -12  21   -6.94  120.15
  -6 -12  21  245.85   84.40
   7  12 -21    7.33   92.54
  -7 -12  21   36.63  115.71
  10  12 -21   -9.15  122.82
 -10 -12  21    8.53   87.34
 -10 -12  21 -120.23  144.53
  11  12 -21    9.93  121.07
 -11 -12  21 -359.21  165.93
  13  11 -21  -11.17  140.21
  13  10 -21    7.97   79.75
  13  10 -21   10.84  142.15
 -13 -10  21 -169.59  179.87
 -13 -10  21    8.42   89.16
  13   9 -21   10.57  134.39
  13   9 -21    7.43   75.17
 -13  -9  21  -93.92   93.06
 -13  -9  21  282.98  193.43
  13   8 -21   10.14  129.34
  13   8 -21   13.68   72.19
 -13  -8  21  166.73  182.60
 -13  -8  21  -52.29   86.47
  13   6 -21   -9.17  114.13
  13   6 -21  -61.85   63.34
 -13  -6  21   14.02   86.11
  13   5 -21    8.73  107.83
  13   5 -21   -5.97   65.75
 -13  -5  21   60.00   80.33
 -13  -5  21  121.72  167.47
  13   4 -21    5.55   60.12
  13   4 -21  -42.41  101.18
 -13  -4  21  166.71   79.32
 -13  -4  21    9.98  158.56
  13   3 -21    8.49  105.38
  13   3 -21   -5.52   61.79
 -13  -3  21  151.44  164.66
  13   2 -21    5.62   60.48
 -13  -2  21  136.92  173.06
  13   1 -21 -285.16   80.21
  13   1  21 -232.68  155.81
  13   0  21  171.10  154.80
  14  10 -21 -115.23  147.70
 -14 -10  21   25.89  207.87
  14   9 -21   11.16  144.28
  14   9 -21  -53.95   80.24
 -14  -9  21 -350.78  208.33
 -14  -9  21    8.16   92.65
  14   8 -21    7.10   67.41
  14   8 -21   10.62  137.24
 -14  -8  21   23.45   90.01
 -14  -8  21  -12.06  195.57
  14   7 -21    6.67   67.86
  14   7 -21   10.08  131.58
 -14  -7  21   69.76  185.35
 -14  -7  21    7.48   84.35
  14   6 -21  -70.41   73.24
  14   6 -21   -9.50  117.26
 -14  -6  21 -622.06  196.20
 -14  -6  21    7.40   84.47
  14   3 -21   52.66  111.18
  14   3 -21   -5.79   58.70
 -14  -3  21  181.32  174.20
  14   2 -21   34.95   60.75
 -14  -2  21 -307.66  162.21
  14   1 -21   65.82   69.63
  14   1  21  -20.41  137.85
  14   0  21   20.78  155.20
  15   9 -21  -34.74  152.24
  15   9 -21  -24.17   85.74
 -15  -9  21  162.15  238.36
  15   8 -21   11.04  137.45
 -15  -8  21  104.43  217.69
 -15  -8  21    8.06   92.68
 -15  -7  21    7.75   87.09
 -15  -6  21   92.11   91.56
  15   1  21  200.82  175.83
  16   1  21   60.74  177.38
 -16   0 -21    9.45  125.96
 -16   0 -21 -162.68  122.86
  16   0  21  -98.73  182.62
  17   1  21 -105.79  196.22
 -17   0 -21   41.83  136.72
 -17   0 -21   11.80  115.14
  17   0  21  -13.34  211.63
   0   1 -22   -4.41   45.84
  -1   1 -22   94.50   49.15
   1   1 -22  103.99   51.51
  -1   2 -22   -5.80   68.09
  -1   2 -22  -43.29   40.23
   2   1 -22   64.64   51.10
   1  -2  22   -6.74  104.61
  -2  -1  22 -141.17  119.27
   0   2 -22  -41.43   72.64
   0   2 -22    4.08   41.39
   0  -2  22   75.46  100.80
  -2   1 -22   16.62   44.13
   1   2 -22   -6.08   70.26
   1   2 -22   37.64   39.49
  -1  -2  22   27.80  107.85
   2   2 -22   74.92   78.10
   2   2 -22  242.85   54.54
  -2   2 -22  159.68   54.29
  -2  -2  22   42.72  118.67
   2  -2  22  159.43  106.75
   3   2 -22  -32.17   74.92
  -2   3 -22   15.94   64.68
  -2   3 -22    3.67   41.47
   2  -3  22   23.85   93.09
  -3  -2  22    7.32  111.06
  -1   3 -22  223.21   93.74
   3   1 -22  470.42   70.50
  -1   3 -22  176.02   71.40
   1  -3  22  446.67  130.58
  -3  -1  22  161.11  133.27
   0   3 -22   11.20   66.16
   0   3 -22   15.79   41.34
   0  -3  22  -24.73  101.92
   1   3 -22  410.47   70.61
   1   3 -22  313.33   97.05
  -3   1 -22  358.98   75.21
  -1  -3  22  384.92  128.95
   2   3 -22    5.99   70.29
  -3   2 -22  -18.23   39.58
   2   3 -22   20.77   45.39
  -2  -3  22  156.01  107.63
  -3   3 -22  327.60   71.99
   3   3 -22   18.55   83.37
  -3   3 -22  214.46   50.79
   3  -3  22  117.58   99.55
  -3  -3  22    6.72  112.00
  -3   4 -22   29.47   59.77
  -3   4 -22   41.81   37.68
   3  -4  22   42.26   88.20
  -2   4 -22  501.34   93.31
  -2   4 -22  562.34   78.00
   2  -4  22  400.68  120.59
  -1   4 -22   57.86   61.85
  -1   4 -22   22.03   40.51
  -4  -1  22  141.01  134.16
   1  -4  22   16.56   95.14
   0   4 -22  527.08  103.45
   0   4 -22  419.37  122.36
   0  -4  22  581.11  150.46
   1   4 -22   78.91   73.64
   1   4 -22   95.97   44.70
  -4   1 -22   -7.47   40.41
  -1  -4  22  123.70   98.16
   2   4 -22  396.71  101.35
  -2  -4  22  292.98  126.95
   4   4 -22  150.59   53.70
   5   4 -22   -4.41   45.96
   5   4 -22  -65.36   84.15
  -5  -4  22   55.15  110.02
  -3   5 -22  195.18   64.73
   5   3 -22    4.40   47.91
  -3   5 -22  150.61   42.73
   3  -5  22  102.72   49.03
   3  -5  22   48.46   85.25
  -2   5 -22  233.26   65.84
   5   2 -22    8.97   52.54
  -2   5 -22   66.62   38.86
   2  -5  22  105.44   84.14
   2  -5  22   47.24   50.00
  -1   5 -22  125.17   50.70
  -1   5 -22   87.47   73.82
   1  -5  22  224.20   62.14
   1  -5  22  130.51   94.54
   0   5 -22  -45.47   39.98
   0   5 -22   69.45   68.02
   0  -5  22   10.58   87.83
   0  -5  22  -34.80   53.62
   1   5 -22  138.40   79.74
   1   5 -22  269.35   52.39
  -1  -5  22   60.57  104.50
  -1  -5  22  261.24   64.59
   4   5 -22   17.39   50.42
   4   5 -22   62.41   80.35
  -4  -5  22   48.48   57.76
  -4  -5  22  374.60  101.37
  -3   6 -22   70.09   65.82
   6   3 -22    6.89   89.53
  -3   6 -22  108.43   38.03
   3  -6  22  141.08   83.31
   3  -6  22   86.56   46.44
  -6  -3  22  165.82  123.24
  -2   6 -22  102.59   41.75
   6   2 -22   -4.61   49.45
   6   2 -22    7.12   78.59
  -2   6 -22  122.46   61.36
   2  -6  22  100.42   82.18
  -6  -2  22   56.76  126.23
   2  -6  22  113.66   51.06
  -1   6 -22  122.55   68.04
   6   1 -22   -4.89   51.38
  -1   6 -22   59.08   44.87
   1  -6  22  -30.10   86.66
   1  -6  22   88.38   55.39
   0   6 -22  240.27   60.93
   0   6 -22  116.80   84.30
   0  -6  22  162.82  105.27
   0  -6  22  397.58   73.30
   3   6 -22  407.22   79.50
  -3  -6  22  734.34  113.58
   6   6 -22   -6.87   91.59
  -6  -6  22   41.29  115.81
   7   6 -22   14.97   55.53
   7   6 -22    7.21   91.97
  -7  -6  22 -185.22  122.40
  -7  -6  22    5.64   69.73
   7   5 -22  136.14   88.49
   7   5 -22   -9.46   51.38
  -7  -5  22   15.75   64.91
  -7  -5  22   81.93  121.76
   5   7 -22   -4.95   59.57
   5   7 -22    6.62   89.25
  -5  -7  22    6.73  127.25
  -5  -7  22 -183.79   72.03
   6   7 -22   13.91   95.64
  -6  -7  22   -7.07  120.29
   7   7 -22    5.39   49.82
   7   7 -22    7.35   98.20
  -7  -7  22    7.46  124.34
  -7  -7  22  -77.17   74.64
   8   7 -22   54.44   94.44
   8   7 -22    5.57   55.22
  -8  -7  22   64.29  127.52
  -8  -7  22   -6.14   75.05
   8   6 -22   -7.60   93.80
   8   6 -22    5.16   56.43
  -8  -6  22    5.82   66.76
  -8  -6  22   -7.86  137.15
   8   5 -22    4.87   53.24
   8   5 -22  -37.51   94.08
  -8  -5  22  152.18   60.20
  -8  -5  22  181.19  128.64
   8   4 -22  -51.93   94.20
   8   4 -22    9.52   53.05
  -8  -4  22    7.98  126.72
   8   3 -22   23.60   52.94
  -3   8 -22   74.10   64.10
  -3   8 -22   43.11   36.39
   8   3 -22    7.42   89.46
  -8  -3  22 -357.23  127.64
   2   8 -22   -4.50   46.02
   3   8 -22    6.21   81.75
   3   8 -22  -14.17   50.53
  -3  -8  22  -73.45  101.22
  -3  -8  22   21.63   62.14
   4   8 -22 -142.29   83.30
   4   8 -22    4.94   47.53
  -4  -8  22    5.66   69.07
  -4  -8  22 -312.52  112.27
   5   8 -22    6.76   84.11
   5   8 -22   10.30   54.71
  -5  -8  22   83.13  118.11
  -5  -8  22   -5.87   74.44
   6   8 -22    7.10   94.98
   6   8 -22   -5.36   58.14
  -6  -8  22    7.29  117.06
  -6  -8  22   -6.09   70.25
   7   8 -22   -5.57   56.83
   7   8 -22   -7.48   82.06
  -7  -8  22   -7.70  121.27
  -7  -8  22  -44.13   75.01
   9   8 -22   25.34  103.28
   9   8 -22   41.99   66.00
  -9  -8  22   -6.74   78.83
  -9  -8  22 -220.90  150.83
   9   6 -22   -5.35   60.14
   9   6 -22   96.51  106.61
  -9  -6  22  -42.28   75.92
  -9  -6  22  -58.47  135.12
   9   5 -22   15.70  104.82
   9   5 -22  -85.70   54.74
  -9  -5  22  -45.40   67.70
  -9  -5  22  -50.16  128.89
   9   4 -22    4.93   50.65
   9   4 -22   77.02   95.21
  -9  -4  22   25.51  134.22
   9   3 -22    7.72   97.57
   9   3 -22 -215.54   58.96
  -9  -3  22 -209.22  136.00
   9   2 -22    7.99   97.38
  -2   9 -22  -12.28   39.74
   9   2 -22   25.25   55.76
  -9  -2  22  -55.69  140.99
   2  -9  22   -4.17   48.80
   9   1 -22    5.26   58.63
  -1   9 -22  -12.71   44.08
  -1   9 -22  127.61   71.06
   1  -9  22  -91.80   91.06
   1  -9  22   40.01   51.75
  -9  -1  22 -168.84  149.39
   0   9 -22   -5.72   75.23
   0   9 -22  -26.70   49.30
   0  -9  22   65.75   53.02
   0  -9  22  -83.62   92.20
   1   9 -22  -13.69   50.51
   1   9 -22  135.65   81.61
  -1  -9  22  -10.01   58.36
  -1  -9  22   63.21   96.96
   2   9 -22    6.10   77.64
   2   9 -22  -28.73   45.59
  -2  -9  22   10.62   62.85
  -2  -9  22 -148.48  111.41
   3   9 -22    5.03   52.11
   3   9 -22  -44.28   92.65
  -3  -9  22 -177.11   68.17
  -3  -9  22 -190.78  116.46
   4   9 -22    6.58   87.45
   4   9 -22   -5.27   56.15
  -4  -9  22   34.80   72.25
  -4  -9  22  121.72  105.52
   5   9 -22    6.90   89.58
   5   9 -22    5.50   56.28
  -5  -9  22   -6.92  114.50
  -5  -9  22   12.10   74.25
   6   9 -22  137.90   94.98
   6   9 -22   22.97   60.39
  -6  -9  22    6.30   72.81
  -6  -9  22  145.69  127.31
   8   9 -22    6.23   68.03
   8   9 -22  -64.93  102.87
  -8  -9  22    6.78   71.63
  -8  -9  22  135.82  140.74
   9   9 -22    6.47   66.07
   9   9 -22    8.63  113.06
  -9  -9  22   -7.03   82.66
  -9  -9  22  299.41  144.91
  10   9 -22   -9.19  118.10
  10   9 -22   26.96   72.24
 -10  -9  22   78.87  156.56
 -10  -9  22    7.29   79.35
  10   8 -22 -113.09   68.18
  10   8 -22   18.02  106.55
 -10  -8  22    9.42  143.27
 -10  -8  22    6.97   78.63
  10   7 -22    5.97   62.23
  10   7 -22   -8.74  100.94
 -10  -7  22  127.41  152.19
 -10  -7  22    6.74   84.37
 -10  -6  22  136.99  151.91
  10   4 -22  -81.76   60.07
  10   4 -22   -8.04   96.80
 -10  -4  22  -71.85  140.25
  10   3 -22   25.56   57.88
  10   3 -22    8.04   95.39
 -10  -3  22   -9.17  135.10
  -2  10 -22  -40.41   40.94
  10   2 -22    5.22   55.69
  10   2 -22  -82.96  101.11
  -2  10 -22  -43.59   70.16
 -10  -2  22   29.14  145.74
   2 -10  22   31.61   47.84
   2 -10  22   69.92   91.61
  -1  10 -22   60.15   49.46
  -1  10 -22   67.02   76.28
  10   1 -22   10.92   58.51
   1 -10  22    5.53   99.94
   1 -10  22  -33.22   48.82
   0  10 -22   19.16   54.25
   0  10 -22  171.86   80.83
   0 -10  22   68.04  100.26
   0 -10  22  120.49   58.47
   1  10 -22  -23.56   75.80
   1  10 -22  -10.03   49.57
  -1 -10  22   47.15   59.30
  -1 -10  22   11.63  104.06
   2  10 -22   21.04   48.61
   2  10 -22   18.21   79.10
  -2 -10  22   27.57   64.54
  -2 -10  22 -191.49  102.75
   3  10 -22    6.30   79.75
   3  10 -22    5.45   54.95
  -3 -10  22   30.90  101.73
  -3 -10  22   46.42   67.98
   4  10 -22   28.55   61.00
   4  10 -22   -6.58   84.09
  -4 -10  22  249.81  109.32
  -4 -10  22   12.20   70.18
  -6 -10  22  108.36  129.20
   7  10 -22    7.76  100.60
  -7 -10  22  114.73  121.32
   8  10 -22   -8.26  108.01
   8  10 -22   61.15   71.09
  -8 -10  22 -142.99  149.61
  -8 -10  22  101.01   87.16
   9  10 -22  -77.88   70.47
   9  10 -22   -8.81  109.46
  -9 -10  22   14.98   83.16
  -9 -10  22    8.99  143.22
  11  10 -22 -110.70  127.89
  11  10 -22   -7.66   74.02
 -11 -10  22  -10.79  175.41
 -11 -10  22    8.05   93.47
  11   8 -22   19.19  131.35
  11   8 -22    6.52   66.88
 -11  -8  22  215.07  177.70
 -11  -8  22   36.08   86.21
  11   7 -22    6.19   66.50
  11   7 -22  138.96  129.24
 -11  -7  22 -268.18  170.88
 -11  -7  22    7.05   77.16
  11   6 -22  -26.85  120.11
  11   6 -22   -5.93   61.15
 -11  -6  22 -389.92  162.30
 -11  -6  22   26.31   82.10
  11   5 -22   17.23  102.65
  11   5 -22   22.25   64.42
 -11  -5  22 -188.04   79.29
 -11  -5  22   38.22  161.71
  11   4 -22   21.35   55.04
 -11  -4  22  104.42  159.05
   4  11 -22    6.17   62.78
  -4 -11  22   59.15  105.36
   5  11 -22    6.90   87.34
   5  11 -22   -6.40   61.65
  -5 -11  22  -75.38  117.92
  -5 -11  22    6.81   75.40
   6  11 -22   -6.70   63.35
   6  11 -22    7.29   93.52
  -6 -11  22  122.32  119.10
  -6 -11  22    7.12   80.33
   7  11 -22    7.76  102.65
  -7 -11  22  -85.68  136.64
   8  11 -22   43.82   76.61
   8  11 -22    8.33  105.12
  -8 -11  22 -285.91   92.06
  -8 -11  22    8.29  134.05
  10  11 -22    7.93   79.41
  10  11 -22    9.59  126.49
 -10 -11  22    8.35   91.46
 -10 -11  22    9.86  170.86
  11  11 -22   10.27  132.02
  11  11 -22    8.31   73.90
 -11 -11  22 -393.01  178.78
 -11 -11  22    8.67   92.31
  12  11 -22  -99.06  137.76
 -12 -11  22   71.37  202.77
  12  10 -22   10.74  132.08
  12  10 -22    8.07   81.49
 -12 -10  22    8.36   94.95
 -12 -10  22  106.11  202.97
  12   9 -22   -7.31   73.85
  12   9 -22   10.53  134.10
 -12  -9  22  134.52   91.88
 -12  -9  22  288.54  202.69
  12   6 -22    6.16   59.57
  12   6 -22   -9.35  115.52
 -12  -6  22 -384.38  173.62
 -12  -6  22  144.34   85.02
  12   5 -22 -251.58  110.59
  12   5 -22   -5.81   65.12
 -12  -5  22 -561.72  163.43
 -12  -5  22 -172.04   81.83
  12   4 -22 -225.75  110.91
  12   4 -22    5.58   58.08
 -12  -4  22    6.28   71.99
 -12  -4  22   40.32  170.80
  12   3 -22   11.07   59.19
  12   3 -22   -8.68  102.75
 -12  -3  22   10.21  151.16
  12   2 -22   39.27   95.03
  12   2 -22   17.95  111.51
  -2  12 -22   44.56   71.68
   2 -12  22    5.79   94.25
 -12  -2  22 -362.02  191.15
  12   1 -22    5.89   67.74
  -1  12 -22  -51.20   74.61
   1 -12  22  -23.61  100.00
   0  12 -22  116.28   87.38
   0 -12  22   90.20  108.71
   1  12 -22    5.95   76.30
  -1 -12  22    6.14   98.83
   2  12 -22    6.12   76.93
  -2 -12  22  119.42  101.07
  -2 -12  22   -6.35   69.25
   3  12 -22    6.41   82.22
  -3 -12  22   71.10  111.62
  -3 -12  22    6.66   73.62
   4  12 -22   -6.64   81.07
   4  12 -22   -6.67   67.78
  -4 -12  22    6.90   70.70
  -4 -12  22    6.68  108.30
   5  12 -22    6.94   86.02
   5  12 -22    6.97   68.27
  -5 -12  22   -7.23   76.22
  -5 -12  22  194.77  120.79
   6  12 -22   -7.28   75.30
   6  12 -22    7.30   93.57
  -6 -12  22   29.49  128.51
  -6 -12  22   -7.57   87.17
   9  12 -22   16.57   83.58
   9  12 -22  161.99  116.21
  -9 -12  22  -17.16  104.01
  -9 -12  22  144.40  157.22
  10  12 -22    9.72  118.77
  10  12 -22   34.56   85.23
 -10 -12  22    9.70  154.76
 -10 -12  22    8.92  101.68
  13  10 -22   11.50  146.55
 -13 -10  22   12.68  197.61
  13   9 -22   -7.80   80.65
  13   9 -22 -190.90  146.97
 -13  -9  22    8.19   95.63
 -13  -9  22  172.78  208.17
  13   8 -22  -10.74  139.55
  13   8 -22    7.03   75.05
 -13  -8  22    7.81   83.26
 -13  -8  22  -11.97  204.39
  13   7 -22   10.30  126.23
  13   7 -22    6.69   67.65
 -13  -7  22  121.02   91.29
 -13  -7  22 -278.56  200.25
  13   4 -22   -5.82   61.55
  13   4 -22    9.00  113.66
 -13  -4  22    6.67   79.37
 -13  -4  22  -10.61  162.83
  13   3 -22 -198.16  108.89
  13   3 -22   46.25   63.18
 -13  -3  22  118.77  163.17
  13   2 -22    5.89   64.68
 -13  -2  22   44.47  162.55
  13   1 -22    6.12   67.63
  14   9 -22   11.80  150.42
 -14  -9  22  578.62  241.99
  14   8 -22   14.91   74.65
  14   8 -22 -441.22  138.85
 -14  -8  22  -76.55  215.21
 -14  -8  22   56.86   96.45
  14   7 -22  106.75  142.81
  14   7 -22    6.96   75.67
 -14  -7  22   -7.85   91.50
 -14  -7  22   86.53  197.45
  14   6 -22   47.16   68.00
  14   6 -22   10.08  121.66
 -14  -6  22   84.79   89.79
 -14  -6  22   11.80  208.32
  14   5 -22  -65.29   69.23
  14   5 -22   -9.59  107.33
 -14  -5  22    7.32   86.00
 -14  -5  22 -206.01  190.57
 -14  -4  22  120.94   94.54
  15   8 -22   11.73  137.42
 -15  -8  22   13.86  231.90
  15   7 -22    7.27   80.50
  15   7 -22   55.02  141.24
 -15  -7  22   13.19  219.78
  15   6 -22   10.30  118.45
 -15  -6  22   16.21   90.56
 -15  -6  22   37.50  191.20
 -15  -5  22   38.50   85.92
   0   1 -23  208.84   63.58
   1   1 -23   61.83   51.40
  -1   1 -23   18.06   46.77
  -1   2 -23    4.17   42.82
   1  -2  23   14.47  111.42
   0   2 -23   57.11   72.43
   0   2 -23  -25.70   46.72
   0  -2  23  -29.45  113.66
   1   2 -23  -48.14   45.73
   1   2 -23   84.43   77.40
  -2   1 -23   91.47   47.50
  -1  -2  23 -157.86  124.33
  -2   2 -23  -52.47   43.92
   2   2 -23    6.68   79.76
   2  -2  23   71.25  109.83
  -2  -2  23   92.43  115.29
  -2   3 -23  142.38   75.15
  -2   3 -23  168.00   52.31
   2  -3  23   83.63  104.66
  -1   3 -23  -28.46   45.27
  -1   3 -23   -5.82   63.54
   1  -3  23  -19.68  106.64
   0   3 -23  192.63   55.91
   0   3 -23  108.02   79.83
   0  -3  23  100.04  110.13
   1   3 -23   12.36   75.42
   1   3 -23   86.09   40.15
  -3   1 -23   54.27   45.45
  -1  -3  23   -6.85  107.54
   2   3 -23   -6.37   85.00
  -3   2 -23  189.95   49.50
  -2  -3  23   -7.05  121.70
  -3   3 -23  -36.97   39.92
  -3   3 -23  -11.18   63.49
   3  -3  23  147.17   97.70
  -3   4 -23  147.26   74.93
  -3   4 -23  270.11   52.33
   4   3 -23    6.81   85.07
   3  -4  23  276.37  101.03
  -4  -3  23  564.21  123.95
  -2   4 -23   97.99   70.05
   4   2 -23    4.64   48.43
  -2   4 -23  111.67   43.15
   2  -4  23   17.59   91.42
   4   1 -23    5.03   54.76
  -1   4 -23  113.56   53.18
  -1   4 -23  202.30   76.99
   1  -4  23  313.88  107.11
   0   4 -23  -40.93   73.66
   0   4 -23  -28.42   44.52
   0  -4  23   37.30   98.10
   1   4 -23   30.23   79.94
  -1  -4  23  407.58  109.04
   3   4 -23   84.26   54.06
   4   4 -23  -47.08   79.22
  -4  -4  23   -7.11  113.13
  -2   5 -23   10.77   36.81
   5   2 -23    4.75   50.86
  -2   5 -23  -53.19   69.60
   5   2 -23    7.33   86.22
  -5  -2  23   25.06  126.75
   2  -5  23  168.94   95.28
   2  -5  23  -29.56   56.53
   5   1 -23    5.12   52.77
  -1   5 -23  138.48   73.72
  -1   5 -23   57.56   41.21
  -5  -1  23  -18.18  135.20
   1  -5  23  -11.32   92.25
   1  -5  23  -48.86   51.62
   0   5 -23   17.29   74.80
   0  -5  23  -64.52   93.79
   0  -5  23   -4.63   44.89
   2   5 -23   17.41   44.74
  -2  -5  23  -87.93   59.34
   6   5 -23   21.89   95.49
  -6  -5  23    7.58  123.34
   5   6 -23   29.57   54.81
   5   6 -23    7.00   90.00
  -5  -6  23    5.55   64.34
  -5  -6  23   49.72  119.10
   6   6 -23    7.34   88.32
  -6  -6  23   -5.70   67.25
  -6  -6  23   67.22  124.22
   7   6 -23  -47.06   60.29
   7   6 -23    7.72   99.72
  -7  -6  23    5.86   70.35
  -7  -6  23  -23.66  127.87
   7   5 -23    4.96   56.67
   7   5 -23    7.62  100.89
  -7  -5  23   16.43   66.25
  -7  -5  23  127.74  120.82
   7   4 -23    4.83   52.61
   7   4 -23    7.57   86.52
  -7  -4  23  147.53  131.37
   7   3 -23   -7.59   94.55
   7   3 -23    4.88   51.51
  -7  -3  23  -33.92  139.51
   3   7 -23   77.91   53.06
   3   7 -23  213.91   86.61
  -3  -7  23   84.55  117.83
  -3  -7  23  -66.01   61.69
   4   7 -23  -20.31  107.49
   5   7 -23   14.18   86.90
   5   7 -23    5.23   59.62
  -5  -7  23    5.85   67.35
  -5  -7  23  560.84  141.67
   6   7 -23    7.44   99.80
   6   7 -23   -5.40   50.98
  -6  -7  23    7.59  135.16
  -6  -7  23    6.02   74.71
   7   7 -23 -392.78  109.29
   7   7 -23  -50.21   61.90
  -7  -7  23  -56.01  142.27
  -7  -7  23   -6.20   74.01
   8   6 -23   59.41   57.80
   8   6 -23   -8.14  105.03
  -8  -6  23   41.85  135.98
  -8  -6  23    6.07   70.09
   8   5 -23 -148.05   56.53
   8   5 -23    7.97  100.67
  -8  -5  23    5.66   66.60
  -8  -5  23 -153.52  142.67
   8   4 -23    4.98   52.78
   8   4 -23   -7.85   95.57
  -8  -4  23  -17.24  135.60
   8   3 -23    7.89   94.36
   8   3 -23   -4.96   47.98
  -8  -3  23  106.38  140.13
   8   2 -23   48.88   99.38
   8   2 -23  -15.42   57.88
  -8  -2  23 -141.64  136.39
  -1   8 -23    8.09   40.99
   8   1 -23   -5.46   59.54
  -1   8 -23   -5.72   67.39
   1  -8  23    9.08   55.69
   0   8 -23   23.73   69.10
   0   8 -23   64.68   45.66
   0  -8  23  102.32   60.21
   0  -8  23  -95.86  107.92
   1   8 -23  -24.57   72.54
   1   8 -23    4.54   45.95
  -1  -8  23   93.25  112.57
  -1  -8  23    5.18   55.25
   2   8 -23  -52.64   53.41
   2   8 -23   31.81   85.85
  -2  -8  23   -5.49   61.36
  -2  -8  23 -238.73  110.77
   3   8 -23   -6.60   86.44
   3   8 -23   50.19   52.84
  -3  -8  23   13.41  112.22
  -3  -8  23   -5.76   71.97
   4   8 -23   -6.86   86.80
   4   8 -23    5.24   56.54
  -4  -8  23    6.01   74.55
  -4  -8  23   69.89  118.79
   5   8 -23   -5.45   61.18
   5   8 -23    7.17   90.25
  -5  -8  23   -6.24   72.50
  -5  -8  23   21.92  123.83
   6   8 -23  157.88   97.33
   6   8 -23   16.97   61.88
  -6  -8  23 -180.54   74.49
  -6  -8  23   77.88  131.02
   8   8 -23    6.07   61.22
   8   8 -23    8.43  105.95
  -8  -8  23   -8.72  137.62
  -8  -8  23   40.99   85.87
   9   8 -23   18.87   64.86
   9   8 -23  -53.88  113.67
  -9  -8  23    9.43  156.42
  -9  -8  23    7.05   82.08
   9   7 -23    6.05   66.48
   9   7 -23   -8.77  109.48
  -9  -7  23 -119.67  145.65
  -9  -7  23 -139.24   84.48
   9   5 -23    8.35  104.86
   9   4 -23    8.19   96.19
   9   4 -23  -51.64   54.44
  -9  -4  23 -363.19  144.67
   9   3 -23   -5.14   52.67
   9   3 -23    8.20   97.88
  -9  -3  23 -130.11  142.74
   9   2 -23   -5.32   58.58
   9   2 -23  177.73   96.65
  -2   9 -23   80.13   77.19
  -2   9 -23   54.81   42.56
   2  -9  23  -30.58   49.91
   2  -9  23   -5.67   98.21
  -9  -2  23    9.86  149.49
   9   1 -23   -5.55   58.75
  -1   9 -23  -17.78   75.85
  -1   9 -23   31.13   47.28
   1  -9  23   23.55  101.52
   1  -9  23   32.59   51.53
   0   9 -23   54.94   47.31
   0   9 -23   91.69   89.58
   0  -9  23   14.96   60.32
   0  -9  23   30.45   99.28
   1   9 -23   18.92   87.16
   1   9 -23  -43.39   52.38
  -1  -9  23   12.57  106.76
  -1  -9  23   -5.32   59.91
   2   9 -23   15.21   53.40
   2   9 -23    6.51   83.68
  -2  -9  23  -19.48  109.05
  -2  -9  23  -55.79   65.55
   3   9 -23    5.32   53.99
   3   9 -23    6.74   82.67
  -3  -9  23  -73.94  111.91
  -3  -9  23  -23.44   68.46
   4   9 -23    5.46   57.11
   4   9 -23   -7.00   78.79
  -4  -9  23    6.98  111.03
  -4  -9  23   -6.12   76.60
   7   9 -23   -8.09  107.57
  -7  -9  23  184.77  136.64
   8   9 -23    6.41   72.97
   8   9 -23   25.69  113.57
  -8  -9  23  133.75  147.59
  -8  -9  23    7.09   81.24
   9   9 -23  -33.27   69.60
   9   9 -23   36.38  120.50
  -9  -9  23 -260.47  175.83
  -9  -9  23   -7.35   84.77
  10   8 -23 -163.15   68.09
  10   8 -23 -162.74  119.97
 -10  -8  23   -7.29   88.54
 -10  -8  23 -100.57  175.68
  10   7 -23   -6.26   68.94
  10   7 -23    9.29  111.68
 -10  -7  23   41.89   90.49
 -10  -7  23  117.91  165.60
  10   6 -23    5.97   63.63
  10   6 -23    9.04  117.17
 -10  -6  23    6.53   79.02
 -10  -6  23   48.58  167.24
  10   5 -23 -131.18  105.04
  10   5 -23    5.47   53.49
 -10  -5  23    9.59  149.23
 -10  -5  23    6.17   70.88
  -2  10 -23   73.84   50.61
  -2  10 -23   41.03   82.47
  10   2 -23   -8.80  105.74
  10   2 -23    5.49   57.03
   2 -10  23   23.18   96.18
   2 -10  23   -9.38   51.07
 -10  -2  23  133.91  152.43
  -1  10 -23   14.34   48.89
  -1  10 -23   48.15   79.74
   1 -10  23 -149.40   99.30
   1 -10  23  -44.65   52.16
   0  10 -23   18.54   85.43
   0  10 -23   -5.02   49.17
   0 -10  23  -73.61   62.08
   0 -10  23  110.47  101.08
   1  10 -23  108.13   83.24
   1  10 -23  110.72   56.65
  -1 -10  23  -16.51   58.43
  -1 -10  23   18.91  109.47
   2  10 -23  144.24   87.22
   2  10 -23   54.74   56.90
  -2 -10  23  -98.98   67.23
  -2 -10  23 -123.16  102.33
   5  10 -23   44.12   68.79
   5  10 -23    7.39   96.49
  -5 -10  23  145.08  123.95
  -5 -10  23  153.26   85.06
   6  10 -23    7.77   98.64
   6  10 -23   59.20   71.12
  -6 -10  23   27.75   78.25
  -6 -10  23  251.76  134.09
   7  10 -23  -73.97  106.71
  -7 -10  23  -41.55  135.55
   8  10 -23    8.70  113.57
   8  10 -23    7.14   78.71
  -8 -10  23 -142.18   89.36
  -8 -10  23    8.82  154.17
  10  10 -23   15.45   81.22
  10  10 -23  -39.62  125.46
 -10 -10  23   83.97  177.73
 -10 -10  23    8.13   87.65
  11  10 -23   10.58  138.93
  11  10 -23   56.28   83.57
 -11 -10  23 -235.88   98.58
 -11 -10  23   11.46  179.67
  11   9 -23   -7.34   74.37
  11   9 -23 -146.54  145.69
 -11  -9  23 -157.78  183.59
 -11  -9  23   31.61   89.41
  11   7 -23 -108.51  125.16
  11   7 -23    6.48   70.32
 -11  -7  23 -189.31  182.92
 -11  -7  23 -116.97   87.96
  11   6 -23  274.74  124.30
  11   6 -23   24.79   70.57
 -11  -6  23 -129.71   84.51
 -11  -6  23   51.86  166.38
  11   5 -23    9.15  112.28
  11   5 -23    5.69   59.96
 -11  -5  23 -164.21  168.18
 -11  -5  23 -234.11   82.41
  11   4 -23   16.75   50.43
  11   4 -23 -132.96  114.00
 -11  -4  23   74.47   75.18
 -11  -4  23   91.46  171.61
  11   3 -23    8.86  104.58
  11   3 -23   -5.53   60.46
 -11  -3  23   92.90  164.99
  11   2 -23    9.14   99.14
  -2  11 -23  -11.81   74.52
  11   2 -23   -5.72   67.55
 -11  -2  23  107.70  174.75
   2 -11  23   94.79   98.17
   2 -11  23   60.57   53.37
   1 -11  23  -24.28  104.49
   1  11 -23  -84.47   59.35
   1  11 -23   -6.34   84.48
  -1 -11  23   44.40  110.80
   2  11 -23  -29.48   60.53
   2  11 -23    6.53   85.99
  -2 -11  23 -222.55   67.23
  -2 -11  23   -6.50  114.03
   3  11 -23    6.76   89.45
   3  11 -23    6.14   60.26
  -3 -11  23   -6.51   70.85
  -3 -11  23   20.10  108.17
   4  11 -23    6.44   63.24
   4  11 -23   -7.04   86.81
  -4 -11  23  -48.53  110.18
  -4 -11  23  -47.83   78.76
   5  11 -23    7.38   93.36
   5  11 -23   -6.74   66.62
  -5 -11  23   -7.14   78.71
  -5 -11  23  -44.41  121.77
   6  11 -23   84.61   77.38
   6  11 -23    7.82   97.51
  -6 -11  23  155.23  135.30
  -6 -11  23    7.45   80.61
   7  11 -23   -8.29  107.99
  -7 -11  23  -90.24  137.55
   9  11 -23    8.00   76.16
   9  11 -23    9.42  116.58
  -9 -11  23 -150.95   97.35
  -9 -11  23    9.62  159.89
  10  11 -23  110.79  135.50
  10  11 -23   -8.32   86.41
 -10 -11  23  123.81  168.54
 -10 -11  23    8.72   99.45
  11  11 -23 -280.81  142.74
 -11 -11  23 -196.17  200.40
  12  10 -23   11.39  144.32
 -12 -10  23   12.34  204.16
  12   9 -23    7.65   85.55
  12   9 -23  -11.17  136.42
 -12  -9  23  132.41   92.09
 -12  -9  23   48.35  205.04
  12   8 -23    7.09   72.52
  12   8 -23   10.80  139.68
 -12  -8  23    7.81   88.95
 -12  -8  23   11.80  189.42
  12   5 -23    6.07   69.59
  12   5 -23    9.48  115.51
 -12  -5  23 -109.74   83.78
 -12  -5  23 -315.40  172.86
  12   4 -23    5.84   65.34
  12   4 -23  -27.64  117.56
 -12  -4  23   10.72  164.37
 -12  -4  23    6.54   77.55
  12   3 -23   -9.21  117.74
  12   3 -23    5.80   58.71
 -12  -3  23  205.95  160.36
  -2  12 -23   47.68   75.60
 -12  -2  23 -550.95  208.33
  -1  12 -23  170.58   86.23
   1 -12  23   87.06  115.21
   0  12 -23   43.58   80.14
   0 -12  23   19.01  102.16
   1  12 -23    6.37   83.44
  -1 -12  23  142.25  109.08
  -1 -12  23  -69.28   75.37
   2  12 -23   -6.55   84.89
  -2 -12  23   72.78   75.72
  -2 -12  23  158.88  111.39
   3  12 -23   20.31   84.60
   3  12 -23   -6.68   64.13
  -3 -12  23   61.28  107.83
  -3 -12  23   27.55   76.70
   4  12 -23  188.50   71.96
   4  12 -23    7.03   89.32
  -4 -12  23   -7.24   82.64
  -4 -12  23    7.12  120.43
   5  12 -23    7.41   92.72
   5  12 -23   -7.24   76.18
  -5 -12  23   -7.40  123.39
  -5 -12  23   -7.59   87.82
   8  12 -23   71.17  126.33
   8  12 -23    8.26   84.89
  -8 -12  23  -35.49  145.74
  -8 -12  23 -103.59   95.43
   9  12 -23    8.61   87.11
   9  12 -23    9.54  124.54
  -9 -12  23    8.98   93.20
  -9 -12  23 -293.90  162.75
  13   9 -23   11.87  154.05
  13   9 -23    7.97   81.92
 -13  -9  23   13.25  226.28
 -13  -9  23 -291.60  101.17
  13   8 -23    7.37   76.62
  13   8 -23  -11.46  138.00
 -13  -8  23 -189.83  208.99
 -13  -8  23    8.14   98.84
  13   7 -23    7.02   78.53
  13   7 -23   10.90  136.08
 -13  -7  23    7.96   91.99
 -13  -7  23   12.36  189.62
  13   6 -23 -248.21  128.07
  13   6 -23    6.81   69.85
 -13  -6  23   59.39  196.02
 -13  -6  23    7.50   86.44
  13   3 -23 -457.86  147.99
  13   2 -23    6.19   65.63
   6  13 -23   -7.91  104.42
  -6 -13  23    8.53   97.67
  -6 -13  23  -47.96  126.52
   7  13 -23    8.43  115.50
  -7 -13  23    8.40  132.89
  -7 -13  23   -8.91   97.54
   8  13 -23  135.06  116.08
  -8 -13  23   17.78  156.19
  14   8 -23   12.03  150.40
  14   8 -23   -7.66   76.90
 -14  -8  23   13.89  222.60
 -14  -8  23    8.50   84.53
  14   7 -23   11.34  141.34
  14   7 -23    7.30   78.04
 -14  -7  23   -8.22   96.29
 -14  -7  23  -13.30  217.93
  14   6 -23   10.65  125.20
  14   6 -23    7.08   73.90
 -14  -6  23  -88.18   94.01
 -14  -6  23   76.01  198.83
  14   5 -23   10.13  125.13
  14   5 -23    6.85   71.59
 -14  -5  23  133.79  196.43
 -14  -5  23    7.63   88.04
  14   4 -23    6.38   70.94
  14   4 -23   -9.84  115.85
 -14  -4  23   11.91  177.56
 -14  -4  23 -304.23   87.31
  14   3 -23   38.22   70.10
  14   3 -23   29.59  114.98
 -14  -3  23 -239.60  179.46
 -14  -3  23   -7.23   83.49
  14   2 -23   -6.42   65.20
  15   7 -23 -210.16  149.12
 -15  -7  23 -168.30  240.33
  15   6 -23  -10.95  130.64
  15   6 -23    7.34   76.69
 -15  -6  23  -16.98   99.04
 -15  -6  23  133.10  217.29
  15   5 -23    7.13   77.94
  15   5 -23   10.39  124.67
 -15  -5  23 -436.13  209.38
 -15  -5  23   16.12   92.37
  15   4 -23   10.13  114.37
 -15  -4  23  -23.74   90.55
 -15  -4  23  100.39  181.26
 -15  -3  23    7.67   87.07
   0   1 -24  176.96   59.97
  -1   1 -24  271.86   72.07
  -1   2 -24   13.24   45.57
   1  -2  24   23.18  117.85
   0   2 -24  240.38   60.22
   0  -2  24  102.40  133.50
   1   2 -24   -6.95   86.88
  -2   1 -24  101.27   50.97
  -1  -2  24   -8.05  124.36
  -2   2 -24  -38.49   47.42
   3   2 -24   81.82   50.20
   3   2 -24  300.38   84.63
  -2   3 -24   -8.29   45.66
  -2   3 -24  -61.11   75.77
   2  -3  24  -48.85  117.49
  -1   3 -24   37.47   71.35
  -1   3 -24   68.91   48.72
   1  -3  24   42.35  102.27
   0   3 -24   76.88   81.24
   0  -3  24  -50.52  115.86
  -3   1 -24    8.79   46.69
  -3   2 -24   12.33   45.97
   2   3 -24    4.64   49.06
   1  -4  24  -84.68  109.50
   0   4 -24   -6.22   75.17
   0  -4  24   -6.71   99.19
   5   4 -24   -4.87   51.83
   5   4 -24    7.41   93.80
  -5  -4  24 -176.46  123.21
   4   5 -24   -7.16   91.60
  -4  -5  24   -7.42  125.52
   5   5 -24    4.93   50.52
   5   5 -24   29.79   99.03
  -5  -5  24  201.62  121.65
   6   5 -24   15.16   58.29
   6   5 -24    7.77   98.65
  -6  -5  24  -50.01   64.07
  -6  -5  24 -222.14  138.33
   6   4 -24  -23.11   89.52
  -6  -4  24    8.38  128.31
   6   3 -24   15.55   96.22
  -6  -3  24   -8.68  131.96
  -2   6 -24   45.48   77.92
   6   2 -24  104.69   93.63
   2  -6  24   63.56   96.57
  -6  -2  24   18.61  157.86
   2   6 -24   42.84   51.68
   2   6 -24   66.43   87.92
  -2  -6  24   79.83  115.12
  -2  -6  24   21.71   63.93
   3   6 -24  -14.73   52.32
   3   6 -24    6.90   89.84
  -3  -6  24   77.69   70.76
  -3  -6  24   97.10  121.51
   4   6 -24    5.05   54.29
   4   6 -24    7.20   90.38
  -4  -6  24   14.49  127.29
  -4  -6  24    5.67   67.61
   5   6 -24   -5.18   61.44
   5   6 -24   -7.51   94.99
  -5  -6  24   53.17  126.38
  -5  -6  24   34.78   71.15
   6   6 -24    5.32   59.56
   6   6 -24    7.87  100.68
  -6  -6  24  223.62  130.59
  -6  -6  24    5.94   70.09
   7   6 -24    8.27  101.57
  -7  -6  24   -8.64  137.69
   7   5 -24    8.12   96.71
   7   5 -24    5.19   54.92
  -7  -5  24 -294.22  146.91
  -7  -5  24  -91.39   68.12
   7   4 -24 -280.59  104.76
   7   4 -24  -80.99   54.51
  -7  -4  24 -298.49  146.54
   7   3 -24   25.66   58.46
   7   3 -24    8.07  101.87
  -7  -3  24   63.36  134.51
   7   2 -24   -5.26   57.44
   7   2 -24   66.72   98.10
  -7  -2  24   48.27  147.18
  -1   7 -24   -5.97   60.54
  -1   7 -24  -29.72   42.65
   1  -7  24  -19.73   58.68
   1  -7  24  419.93  100.26
   0   7 -24   62.19   84.07
   0   7 -24  -18.17   49.29
   0  -7  24   18.56  108.08
   0  -7  24   30.95   62.06
   1   7 -24   83.92   81.33
   1   7 -24    4.81   47.45
  -1  -7  24   43.19   64.61
  -1  -7  24   -6.45  110.05
   2   7 -24   29.81   55.44
   2   7 -24  140.79   87.86
  -2  -7  24  127.68  111.73
  -2  -7  24   50.55   67.65
   3   7 -24   -6.96   85.27
   3   7 -24  129.23   60.01
  -3  -7  24    5.81   59.45
  -3  -7  24   -7.00  119.96
   4   7 -24   -5.35   66.51
   4   7 -24   -7.26   96.84
  -4  -7  24 -204.44  128.74
  -4  -7  24    5.98   64.82
   5   7 -24    5.53   63.49
   5   7 -24    7.59   98.10
  -5  -7  24 -160.45  127.21
  -5  -7  24    6.13   72.21
   6   7 -24    5.69   61.48
   6   7 -24   -7.97   93.72
  -6  -7  24   -6.30   75.59
  -6  -7  24 -136.41  142.91
   8   7 -24 -241.56   62.51
   8   7 -24    8.82  113.90
  -8  -7  24    6.66   77.29
  -8  -7  24    9.17  142.62
   8   5 -24   -8.49  108.49
  -8  -5  24   -9.13  148.59
  -8  -5  24   -5.89   67.89
   8   4 -24   67.91   55.43
   8   4 -24   -8.35  101.73
  -8  -4  24   55.24  141.24
   8   3 -24    5.21   54.92
   8   3 -24 -285.19  103.33
  -8  -3  24   38.07  141.73
   8   2 -24   17.30   97.89
   8   2 -24    5.43   59.78
  -2   8 -24  110.92   76.69
  -2   8 -24  -32.91   44.53
  -8  -2  24  -40.16  154.11
   2  -8  24   40.39   53.20
   2  -8  24   76.28  102.63
  -1   8 -24  -30.45   72.36
  -1   8 -24   30.17   45.01
   1  -8  24   36.91  109.60
   1  -8  24  -14.54   58.52
   0   8 -24   31.48   81.39
   0   8 -24    4.60   45.61
   0  -8  24   -6.41  115.21
   0  -8  24  109.26   66.19
   1   8 -24    6.52   84.56
   1   8 -24   33.87   52.51
  -1  -8  24   -5.54   65.97
  -1  -8  24 -239.96  118.56
   2   8 -24  157.91   59.61
   2   8 -24   33.80   92.80
  -2  -8  24   41.51  116.37
  -2  -8  24   64.27   72.53
   3   8 -24   -5.33   57.76
   3   8 -24    7.05   93.50
  -3  -8  24 -128.76   75.33
  -3  -8  24 -165.24  130.49
   4   8 -24    5.56   60.81
   4   8 -24   -7.33   93.18
  -4  -8  24   89.79  118.92
  -4  -8  24 -120.92   75.88
   5   8 -24  -15.31   96.95
   5   8 -24  -40.36   56.59
  -5  -8  24   39.53   82.82
   7   8 -24    8.49  106.96
  -7  -8  24  181.65  135.91
   8   8 -24    6.37   64.78
   8   8 -24    9.00  117.01
  -8  -8  24    7.18   90.05
  -8  -8  24    9.32  143.00
   9   8 -24  -26.36   69.65
   9   8 -24   38.27  120.66
  -9  -8  24 -277.67  156.87
  -9  -8  24    7.36   86.00
   9   7 -24    9.35  109.72
   9   7 -24   -6.33   67.59
  -9  -7  24 -205.12  157.80
  -9  -7  24   -6.89   82.79
   9   6 -24   63.89  117.39
   9   6 -24   -5.84   63.33
  -9  -6  24    9.74  154.18
  -9  -6  24    6.53   77.51
  -9  -5  24   -6.12   73.27
   9   3 -24    8.69  106.73
  -9  -3  24   79.70  151.15
  -2   9 -24    4.43   43.54
  -2   9 -24   24.19   78.28
   9   2 -24  106.52   59.67
   9   2 -24   -8.98  105.71
   2  -9  24  -36.98   98.22
  -9  -2  24  -52.31  163.53
   2  -9  24   78.58   55.85
  -1   9 -24   56.48   84.94
  -1   9 -24    4.69   50.51
   1  -9  24  -14.80   58.96
   1  -9  24   -6.42  108.08
   0   9 -24   25.94   82.90
   0   9 -24    4.84   49.51
   0  -9  24   19.25  104.90
   0  -9  24   31.85   58.71
   1   9 -24  140.53  101.00
   1   9 -24   45.95   54.87
  -1  -9  24  -56.01   61.09
  -1  -9  24  106.08  111.68
   2   9 -24   21.50   53.49
   2   9 -24    6.91   91.12
  -2  -9  24   42.62  118.74
  -2  -9  24  -29.58   65.88
   5   9 -24    6.02   62.88
  -5  -9  24   39.91  132.37
   6   9 -24    6.26   63.97
   6   9 -24  -81.17  102.38
  -6  -9  24    6.93   83.07
  -6  -9  24   83.77  136.37
   7   9 -24   -8.55  101.41
  -7  -9  24   -8.97  140.75
   8   9 -24   -9.10  120.32
   8   9 -24  -20.18   74.29
  -8  -9  24    7.41   81.24
  -8  -9  24  -76.06  161.67
  10   7 -24  -19.67   70.83
  10   7 -24   -9.92  125.62
 -10  -7  24    7.17   85.75
 -10  -7  24 -239.94  180.84
  10   6 -24    9.58  118.13
  10   6 -24    6.06   62.10
 -10  -6  24   33.96   79.72
 -10  -6  24  -10.48  162.41
  10   5 -24    5.71   58.95
  10   5 -24   92.39  116.38
 -10  -5  24   12.83   79.42
 -10  -5  24  299.33  177.65
  10   4 -24    9.03  101.48
  10   4 -24    5.59   62.24
 -10  -4  24   10.27  154.86
  10   3 -24  -11.25   64.70
  10   3 -24    9.04  105.44
 -10  -3  24  303.06  160.74
   3  10 -24 -145.77   61.61
   3  10 -24   43.52   93.14
  -3 -10  24   -6.43   75.90
  -3 -10  24   -7.32  111.61
   4  10 -24    7.53   96.68
   4  10 -24   25.45   65.79
  -4 -10  24   67.27   81.26
  -4 -10  24   -7.59  119.37
   5  10 -24   -7.85   99.62
   5  10 -24    6.64   70.45
  -5 -10  24  347.92  137.87
  -5 -10  24   42.15   81.98
   6  10 -24   -6.76   64.39
   6  10 -24    8.23  101.56
  -6 -10  24  -24.85  131.54
  -6 -10  24  -14.59   85.89
   7  10 -24    8.67  111.99
  -7 -10  24 -253.76  158.50
  10  10 -24   -8.10   84.91
  10  10 -24   10.49  142.50
 -10 -10  24 -401.89  193.50
 -10 -10  24  -58.85   94.01
  11  10 -24   11.26  143.76
 -11 -10  24    8.72   96.33
 -11 -10  24  156.06  192.34
  11   9 -24   -7.68   81.82
  11   9 -24  300.10  139.85
 -11  -9  24 -280.35   97.93
 -11  -9  24   94.50  185.82
  11   8 -24   86.35  143.99
  11   8 -24  -35.46   74.48
 -11  -8  24 -181.00   99.12
 -11  -8  24   11.63  190.61
  11   6 -24    6.48   65.61
  11   6 -24  -10.06  125.67
 -11  -6  24  -33.56  183.74
 -11  -6  24  -99.27   80.80
  11   5 -24   -9.65  115.42
  11   5 -24    5.94   65.69
 -11  -5  24  317.00  181.54
 -11  -5  24  121.57   85.56
  11   4 -24   11.68   64.45
  11   4 -24  216.30  114.12
 -11  -4  24  -10.82  162.15
  11   3 -24   18.82  111.75
  11   3 -24    5.80   67.48
 -11  -3  24  -98.74  160.61
  11   2 -24    6.02   68.19
 -11  -2  24  102.46  186.99
  -1  11 -24  -48.97   54.50
  -1  11 -24   19.50   72.98
   1 -11  24  -76.77   61.70
   1 -11  24  131.20  115.53
   0  11 -24   16.91   55.74
   0  11 -24  -19.97   89.90
   0 -11  24   26.87  113.83
   0 -11  24   46.65   66.12
   1  11 -24   -6.82   88.87
   1  11 -24    5.90   64.96
  -1 -11  24  -43.07   67.54
  -1 -11  24   -6.87  112.79
   2  11 -24   -6.16   60.65
   2  11 -24    7.03   91.10
  -2 -11  24    6.51   70.63
  -2 -11  24   -7.05  123.86
   3  11 -24    6.47   67.44
   3  11 -24   -7.28   90.76
  -3 -11  24   54.78   75.72
  -3 -11  24 -210.30  113.93
   4  11 -24  121.03  101.34
   4  11 -24    6.79   73.31
  -4 -11  24  164.98   85.70
  -4 -11  24   -7.51  125.65
   5  11 -24  120.79   76.35
   5  11 -24   63.28   97.53
  -5 -11  24 -118.64   80.16
  -5 -11  24    7.82  127.29
   6  11 -24    8.30  100.46
   6  11 -24   -7.42   76.47
  -6 -11  24  152.31  143.08
  -6 -11  24    7.73   89.04
   8  11 -24  -24.19   85.18
   8  11 -24  -93.11  128.82
  -8 -11  24   -8.35   96.43
  -8 -11  24   28.39  164.13
   9  11 -24    8.40   84.48
   9  11 -24 -119.01  127.47
  -9 -11  24    8.66  100.18
  -9 -11  24  146.49  161.28
  10  11 -24   10.60  141.45
 -10 -11  24   22.48  174.86
  12   9 -24   -7.99   83.53
  12   9 -24  142.06  150.55
 -12  -9  24 -152.57  199.09
  12   8 -24   69.08  150.05
  12   8 -24    7.44   76.32
 -12  -8  24 -196.09   92.84
 -12  -8  24 -587.30  210.22
  12   7 -24    7.04   77.63
  12   7 -24   33.10  136.14
 -12  -7  24   -7.97   84.96
 -12  -7  24  -12.27  203.23
  12   4 -24   68.51  116.72
  12   4 -24   48.87   65.40
 -12  -4  24    6.82   83.01
 -12  -4  24  -11.48  191.52
  12   3 -24   30.41   64.70
  12   3 -24    9.76  116.13
 -12  -3  24   34.80  181.68
  12   2 -24    6.20   71.84
 -12  -2  24 -368.16  187.26
  -1  12 -24   58.76   79.44
   1 -12  24   13.26  111.58
   0  12 -24   33.36   85.13
   0 -12  24  -37.35   70.04
   0 -12  24   54.12  110.00
   1  12 -24    6.84   84.10
  -1 -12  24    6.56   72.38
  -1 -12  24  -48.34  118.72
   2  12 -24    6.68   65.96
   2  12 -24   14.07   90.67
  -2 -12  24  -14.13  116.98
  -2 -12  24   20.58   75.11
   3  12 -24    7.27   91.61
   3  12 -24    6.99   72.47
  -3 -12  24    7.26  115.64
  -3 -12  24    7.24   73.82
   4  12 -24  120.92   97.61
   4  12 -24    7.26   66.80
  -4 -12  24  136.95   87.53
   7  12 -24   -8.86  114.38
   7  12 -24   33.14   87.15
  -7 -12  24   -8.81  150.19
  -7 -12  24   -8.69   99.45
   8  12 -24    9.42  127.84
   8  12 -24   -8.65   94.07
  -8 -12  24    9.65  158.63
  -8 -12  24   -9.05  100.81
  13   8 -24  131.25   86.45
  13   8 -24 -170.78  156.75
 -13  -8  24  -13.76  214.49
  13   7 -24   -7.35   74.19
  13   7 -24   11.56  138.06
 -13  -7  24   92.97  197.45
 -13  -7  24   83.18   98.87
  13   6 -24  -32.75  130.70
  13   6 -24    7.02   77.05
 -13  -6  24   50.97  199.95
 -13  -6  24 -296.75   99.04
  13   5 -24   10.41  128.57
  13   5 -24   86.51   73.49
 -13  -5  24  -12.30  185.14
 -13  -5  24 -180.98   88.81
  13   4 -24   20.23  118.13
  13   4 -24   -6.39   61.01
 -13  -4  24  -12.08  192.38
 -13  -4  24    7.22   83.98
   4  13 -24 -276.48   96.00
  -4 -13  24    8.14   78.67
  -4 -13  24  -61.95  117.19
   5  13 -24   -8.04   99.45
  -5 -13  24  -32.14  125.52
  -5 -13  24    8.53   92.93
   6  13 -24    8.46  102.12
  -6 -13  24 -124.75  101.49
  -6 -13  24 -100.75  149.46
   7  13 -24    8.97  107.93
  -7 -13  24 -216.97  150.99
  14   7 -24  108.23  149.40
 -14  -7  24   14.13  211.82
  14   6 -24   11.31  129.81
  14   6 -24    7.43   80.52
 -14  -6  24 -148.30  209.24
 -14  -6  24    8.25   94.49
  14   5 -24  -64.52  135.19
  14   5 -24 -100.43   73.27
 -14  -5  24   95.52   95.90
 -14  -5  24  427.21  219.33
  14   4 -24    6.68   68.67
  14   4 -24   10.46  128.46
 -14  -4  24 -216.45   92.20
 -14  -4  24  -25.34  186.67
  14   3 -24  -33.38   74.29
 -14  -3  24    7.56   86.18
 -14  -3  24 -190.21  196.80
  14   2 -24    6.75   71.73
  15   6 -24 -208.52  138.13
 -15  -6  24   14.25  231.71
  15   5 -24  -29.95   82.24
  15   5 -24   11.02  133.25
 -15  -5  24   13.64  216.52
 -15  -5  24 -126.39   89.50
  15   4 -24 -107.46   81.45
  15   4 -24  -96.78  120.33
 -15  -4  24 -288.17  100.56
 -15  -4  24  373.51  205.92
  15   3 -24    7.00   72.44
 -15  -3  24   40.15   98.34
   4   3 -25   -5.06   52.86
   4   3 -25    7.71   85.62
  -4  -3  25   -8.69  142.95
   3   4 -25   24.63   49.72
   3   4 -25    7.36   87.57
  -3  -4  25  -95.72  122.46
   4   4 -25    7.62   87.90
   4   4 -25  -25.09   52.25
  -4  -4  25    8.27  135.25
   5   4 -25   10.25   52.27
   5   4 -25   -7.90   94.61
  -5  -4  25  -51.60  136.09
   5   3 -25   10.32   57.01
   5   3 -25    7.97   94.22
  -5  -3  25 -350.69  147.07
   5   2 -25  -90.52   61.83
   5   2 -25 -223.88   98.82
  -5  -2  25  143.65  142.50
  -1   5 -25   -4.38   48.61
   0   5 -25  -27.49   52.40
   0   5 -25  276.75   83.88
   0  -5  25   20.80   64.40
   0  -5  25  332.13  125.88
   1   5 -25   -4.74   55.16
   1   5 -25   34.21   87.22
  -1  -5  25  -58.51   64.17
  -1  -5  25 -229.83  124.08
   2   5 -25   -7.10   80.39
   2   5 -25   38.89   51.56
  -2  -5  25  -37.22  123.83
   3   5 -25 -117.91   92.27
   3   5 -25   49.68   56.40
  -3  -5  25   30.97  119.53
   4   5 -25    7.65   89.63
   4   5 -25   -5.07   58.53
  -4  -5  25  -72.54  126.23
   5   5 -25    7.96   87.17
   5   5 -25  -15.53   60.01
  -5  -5  25  345.11  149.92
   6   5 -25    5.30   52.39
   6   5 -25   41.41  102.36
  -6  -5  25    5.80   71.84
  -6  -5  25   88.19  140.57
   6   4 -25 -131.36  100.94
   6   4 -25   25.83   59.81
  -6  -4  25    8.97  138.80
   6   3 -25    8.25  103.96
   6   3 -25    5.27   54.16
  -6  -3  25   46.66  147.21
   6   2 -25 -111.38  100.98
  -2   6 -25   -4.26   48.11
  -6  -2  25 -197.99  158.07
  -1   6 -25  267.01   79.03
   1  -6  25  363.12  105.99
   0   6 -25  -39.81   89.35
   0   6 -25   28.03   46.27
   0  -6  25   47.33  111.98
   0  -6  25   -5.41   66.95
   1   6 -25   53.59   52.03
   1   6 -25  -20.69   88.91
  -1  -6  25  -39.03   62.48
  -1  -6  25    7.03  116.15
   2   6 -25   20.16   56.20
   2   6 -25    7.15   92.09
  -2  -6  25  -57.11   69.59
  -2  -6  25   51.32  127.94
   3   6 -25   -7.43   90.69
   3   6 -25  -20.73   58.67
  -3  -6  25 -110.65   70.66
  -3  -6  25 -114.55  127.77
   4   6 -25  -38.74   94.02
   4   6 -25    5.31   62.63
  -4  -6  25  -65.29   69.62
  -4  -6  25   39.81  129.44
   5   6 -25  209.90  108.57
   5   6 -25    5.44   60.42
  -5  -6  25  250.40  139.18
  -5  -6  25    6.05   67.86
   6   6 -25 -101.11  108.25
   6   6 -25    5.58   57.57
  -6  -6  25   12.39   71.94
  -6  -6  25 -114.00  145.23
   7   5 -25   -8.64  102.43
   7   4 -25   -5.31   56.61
   7   4 -25   68.32  109.23
  -7  -4  25   37.77  144.30
   7   3 -25   16.22   55.38
   7   3 -25    8.56  100.85
  -7  -3  25   19.43  143.66
  -2   7 -25  -72.04   46.44
  -2   7 -25  342.83   86.47
   7   2 -25   11.13   57.48
   7   2 -25  -44.31  101.06
   2  -7  25   -4.93   55.97
  -7  -2  25  -82.07  150.48
   2  -7  25   79.58   98.06
  -1   7 -25   19.16   82.85
  -1   7 -25   40.94   49.42
   1  -7  25  -26.26   59.23
   1  -7  25  -32.08  102.50
   0   7 -25   39.92   83.09
   0   7 -25   19.44   53.00
   0  -7  25  151.24  112.57
   0  -7  25   65.75   61.29
   1   7 -25   30.31   52.64
   1   7 -25  -27.68   89.38
  -1  -7  25 -120.32   70.63
  -1  -7  25   68.55  121.00
   2   7 -25  -68.61   52.15
   2   7 -25    7.18   89.51
  -2  -7  25    5.94   66.13
  -2  -7  25    7.14  111.83
   3   7 -25    5.48   59.73
   3   7 -25    7.47   94.86
  -3  -7  25  202.04   75.98
  -3  -7  25 -275.11  132.05
   4   7 -25  -33.95   61.78
   4   7 -25  116.54  103.01
  -4  -7  25 -139.70  128.35
  -4  -7  25   50.21   73.96
   7   7 -25    8.93  111.78
  -7  -7  25 -128.77  146.21
   8   7 -25   -9.43  127.67
   8   7 -25    6.32   70.34
  -8  -7  25  390.03  164.62
  -8  -7  25    6.93   74.84
   8   6 -25   -5.90   66.45
   8   6 -25    9.22  117.87
  -8  -6  25  156.52  163.90
  -8  -6  25  -45.87   78.35
   8   3 -25 -373.19  106.66
  -8  -3  25 -101.45  158.41
  -2   8 -25   -8.56   41.81
   8   2 -25   -5.73   58.90
   8   2 -25  100.98  108.96
  -2   8 -25    6.25   77.28
   2  -8  25   37.68  109.82
   2  -8  25   52.61   54.05
  -8  -2  25  -63.94  144.57
  -1   8 -25  128.76   51.65
  -1   8 -25  -84.71   83.40
   1  -8  25  103.68  119.80
   1  -8  25   82.88   55.58
   0   8 -25   -9.74   51.38
   0   8 -25   74.32   95.82
   0  -8  25   33.39   65.75
   0  -8  25   67.69  116.94
   1   8 -25   41.23   52.98
   1   8 -25  182.28   96.74
  -1  -8  25  -17.72   68.66
  -1  -8  25    7.04  113.86
   2   8 -25  -27.09   56.02
   2   8 -25  -21.79   99.14
  -2  -8  25   14.62  133.04
  -2  -8  25   18.71   67.48
   3   8 -25    7.53  101.53
  -3  -8  25   60.77  127.47
  -3  -8  25  208.27   81.82
   6   8 -25    6.29   63.52
   6   8 -25   -8.60   95.91
  -6  -8  25 -317.14  148.57
  -6  -8  25    7.11   88.32
   7   8 -25    9.07  116.57
  -7  -8  25   -9.28  141.83
   8   8 -25   -6.68   65.54
   8   8 -25   38.33  119.05
  -8  -8  25    9.84  166.76
  -8  -8  25    7.52   91.41
   9   8 -25  -50.75  131.82
   9   7 -25    9.98  120.99
   9   7 -25    6.53   65.50
  -9  -7  25    7.16   89.46
  -9  -7  25   53.25  172.76
   9   6 -25  -85.41   67.58
   9   6 -25   -9.68  122.10
  -9  -6  25   34.03   79.32
  -9  -6  25  231.37  184.31
   9   5 -25    9.38  118.36
   9   5 -25   -5.77   63.31
  -9  -5  25    6.37   75.55
  -9  -5  25   72.73  159.76
   9   4 -25   -9.21  112.06
   9   4 -25   39.65   65.33
  -9  -4  25   31.16  162.81
   3   9 -25   -5.86   61.93
   4   9 -25   36.71   66.54
   4   9 -25  -15.77  100.60
  -4  -9  25   64.60  138.46
  -4  -9  25   40.88   77.92
   5   9 -25 -106.81  103.63
   5   9 -25   -6.36   62.59
  -5  -9  25    7.04   79.15
  -5  -9  25    8.55  132.95
   6   9 -25    8.65  107.51
   6   9 -25    6.60   63.11
  -6  -9  25   14.53   86.38
  -6  -9  25    8.96  148.28
   7   9 -25  173.40  118.78
  -7  -9  25 -321.10  159.69
   8   9 -25   -9.67  137.85
  10   9 -25  -11.03  138.59
  10   9 -25    7.58   83.68
 -10  -9  25 -107.41   98.91
 -10  -9  25   23.15  190.06
  10   6 -25    6.32   68.29
  10   6 -25  -61.06  127.63
 -10  -6  25    7.06   85.04
 -10  -6  25 -234.93  187.98
  10   5 -25  -68.66  119.37
  10   5 -25    5.98   66.01
 -10  -5  25   73.40   81.70
 -10  -5  25  164.97  171.12
  10   4 -25    9.58  113.10
  10   4 -25   -5.86   67.02
 -10  -4  25 -251.47  169.03
  10   3 -25  -86.47  112.28
 -10  -3  25  616.40  188.15
  10   2 -25   24.43   66.48
 -10  -2  25   34.63  161.83
  -1  10 -25   41.09   85.02
  -1  10 -25  -89.27   52.40
   1 -10  25   41.18  122.35
   1 -10  25  -75.79   63.42
   0  10 -25  -16.45   57.03
   0  10 -25   35.26   91.25
   0 -10  25   77.87  123.01
   0 -10  25   46.24   70.33
   1  10 -25   87.13   50.06
   1  10 -25  -58.01   95.99
  -1 -10  25  117.20   71.54
  -1 -10  25   29.13  120.77
   2  10 -25    6.12   64.16
   2  10 -25   14.93   94.00
  -2 -10  25   -6.47   74.64
  -2 -10  25   -7.50  126.44
   3  10 -25  -44.99   68.01
   3  10 -25   46.21   97.68
  -3 -10  25   15.46  126.89
  -3 -10  25   -6.80   80.50
   4  10 -25    6.56   68.78
   4  10 -25  143.67  103.39
  -4 -10  25  -14.23   78.55
  -4 -10  25   49.82  127.98
   5  10 -25    6.83   74.12
   5  10 -25    8.31  108.09
  -5 -10  25 -214.79   81.85
  -5 -10  25   51.89  143.54
   6  10 -25  -99.55   79.85
  -6 -10  25 -138.34   85.26
  -6 -10  25  145.05  146.76
   9  10 -25  -15.91   81.88
   9  10 -25   20.76  134.59
  -9 -10  25   -8.48  103.68
  -9 -10  25 -197.03  183.10
  10  10 -25  178.01  147.61
  10  10 -25    8.47   96.99
 -10 -10  25   11.72  194.29
 -10 -10  25    8.77   99.03
  11   9 -25   94.12  150.40
  11   9 -25    7.87   79.21
 -11  -9  25   12.70  197.63
  11   8 -25 -138.11  140.70
  11   8 -25   -7.41   77.42
 -11  -8  25   24.61   94.22
 -11  -8  25   12.31  210.12
  11   7 -25    7.10   74.16
  11   7 -25   11.11  136.33
 -11  -7  25    7.85   93.35
 -11  -7  25 -365.93  192.71
  11   5 -25   10.25  131.46
  11   4 -25    9.99  119.10
  11   4 -25    6.11   67.31
 -11  -4  25  -11.59  180.02
  11   3 -25    6.08   68.93
  11   3 -25    9.97  121.17
 -11  -3  25   82.23  173.11
  11   2 -25   -6.33   68.52
 -11  -2  25 -192.57  184.05
  -1  11 -25   -5.61   54.56
  -1  11 -25  -13.97   87.40
   1 -11  25   34.45   64.51
   1 -11  25  -13.86  112.22
   0  11 -25   76.45   63.77
   0  11 -25   57.28   96.89
   0 -11  25   36.56   68.22
   0 -11  25    7.10  125.61
   1  11 -25   37.27   62.98
   1  11 -25    7.34   94.80
  -1 -11  25   51.83   71.67
  -1 -11  25    7.28  126.46
   2  11 -25   -7.54   93.66
   2  11 -25    6.49   70.82
  -2 -11  25   52.26  130.53
  -2 -11  25    6.85   71.24
   3  11 -25  155.38  103.73
   3  11 -25    6.83   69.85
  -3 -11  25   63.49  126.02
  -3 -11  25   -7.13   81.26
   4  11 -25    8.07  104.17
   4  11 -25  -21.49   72.72
  -4 -11  25    7.47   82.63
  -4 -11  25    8.21  134.79
   7  11 -25   -9.27  119.34
   7  11 -25    8.15   86.99
  -7 -11  25    8.41   94.00
  -7 -11  25  -84.49  159.48
   8  11 -25    8.48   85.67
   8  11 -25   -9.83  127.34
  -8 -11  25 -103.21  175.47
   9  11 -25  -31.37  144.69
  -9 -11  25   44.03  185.32
  12   8 -25    7.77   81.10
  12   8 -25   12.25  170.90
 -12  -8  25 -326.15  230.61
  12   7 -25   11.69  144.64
  12   7 -25    7.36   76.75
 -12  -7  25    8.25   95.74
 -12  -7  25   13.22  204.86
  12   6 -25   63.40   82.53
  12   6 -25   11.11  137.54
 -12  -6  25   -7.74   92.47
  12   5 -25  -42.55  123.77
  12   5 -25   79.52   72.89
 -12  -5  25  198.28  213.86
 -12  -5  25    7.43   85.13
   0  12 -25  -43.02   89.23
   0 -12  25   25.89   70.20
   0 -12  25   43.92  118.92
   1  12 -25  -80.84  100.46
  -1 -12  25   20.41   75.97
   5  12 -25  183.44   87.75
   5  12 -25   16.97  104.31
  -5 -12  25  -49.96   95.45
  -5 -12  25   67.47  140.99
   6  12 -25    8.34   79.18
   6  12 -25 -427.09  115.86
  -6 -12  25   -8.69   97.02
  -6 -12  25  -97.03  140.32
   7  12 -25    8.71   83.24
   7  12 -25    9.40  125.58
  -7 -12  25   18.10  101.25
  -7 -12  25  -67.10  156.48
 -13  -7  25 -380.95  252.58
 -13  -7  25    8.68   93.43
  13   6 -25   23.17  136.21
  13   6 -25   14.67   78.92
 -13  -6  25  186.94   96.45
 -13  -6  25 -406.72  206.54
  13   5 -25    6.95   71.06
  13   5 -25   11.04  130.04
 -13  -5  25   31.44   90.60
 -13  -5  25 -418.72  214.19
  13   4 -25   10.75  127.49
  13   4 -25   20.06   76.39
 -13  -4  25  -15.06   87.94
 -13  -4  25   12.85  201.45
  13   3 -25  -19.98   72.13
  13   3 -25   10.73  127.81
 -13  -3  25  167.39  197.82
  13   2 -25    6.84   72.64
  -1  13 -25   14.13   91.06
   1 -13  25   21.69  120.22
   0  13 -25   21.69   95.67
   0 -13  25 -154.86  130.03
   1  13 -25   14.80   93.68
  -1 -13  25    7.53  120.86
   2  13 -25    7.63   97.94
  -2 -13  25   23.10  125.79
   3  13 -25   15.74  102.76
  -3 -13  25   -8.12   87.20
  -3 -13  25  -47.42  130.79
   4  13 -25   -8.19  106.32
  -4 -13  25    8.52   99.95
  -4 -13  25    8.15  128.55
   5  13 -25  119.79  110.40
  -5 -13  25    8.93   95.82
  -5 -13  25   69.31  144.51
   6  13 -25    9.04  112.74
  -6 -13  25   18.09  147.69
  14   6 -25   11.96  155.94
 -14  -6  25  230.91  237.18
  14   5 -25   11.39  137.45
  14   5 -25   15.01   84.39
 -14  -5  25   49.79   99.71
 -14  -5  25   55.42  210.03
  14   4 -25   69.99   75.64
  14   4 -25  -11.10  127.94
 -14  -4  25  190.01  211.71
 -14  -4  25    8.06   97.11
  14   3 -25   28.02   68.12
 -14  -3  25   40.29  204.30
 -14  -3  25   -7.91   93.86
  15   4 -25   11.43  138.16
 -15  -4  25  467.77  239.26
  15   3 -25  -14.71   80.92
 -15  -3  25    8.41   95.03
   1   2 -26   25.94   51.22
   2   2 -26  100.62   62.89
  -2  -2  26   56.12  133.33
   3   2 -26  -64.85   50.58
  -3  -2  26   67.20  148.06
  -1   3 -26   14.42   49.85
   0   3 -26   87.57   85.86
   0   3 -26   39.55   57.92
   0  -3  26  400.82  141.45
   1   3 -26  -22.53   91.23
   1   3 -26   90.96   54.34
  -1  -3  26   25.51  134.08
   2   3 -26  -46.33   56.01
   2   3 -26  -85.04   92.96
  -2  -3  26   -8.74  133.17
   3   3 -26   79.63   95.63
   3   3 -26   -5.24   57.97
  -3  -3  26  116.95  139.81
   4   3 -26    5.34   57.95
   4   3 -26  131.46   95.06
  -4  -3  26  -55.74  140.53
   4   2 -26   22.07   63.64
  -4  -2  26  157.99  146.65
  -1   4 -26  -56.03   52.67
   1  -4  26   -7.61   82.80
   0   4 -26   14.44   52.82
   0   4 -26  -35.27   82.06
   0  -4  26   38.93  123.75
   1   4 -26   -7.30   89.96
   1   4 -26  -20.01   56.22
  -1  -4  26   88.38  137.41
   2   4 -26   98.09   89.49
   2   4 -26   -5.10   49.91
  -2  -4  26  -99.72  136.31
   3   4 -26    7.81   96.29
   3   4 -26   10.38   56.98
  -3  -4  26   86.01  142.26
   4   4 -26  -21.13   52.39
   4   4 -26    8.08   97.16
  -4  -4  26   53.47  136.60
   5   4 -26    8.37  103.21
   5   4 -26  -64.64   56.18
  -5  -4  26   55.57  144.83
   5   3 -26  152.83   95.88
   5   3 -26    5.44   60.47
  -5  -3  26    9.61  147.26
  -2   5 -26   -4.40   48.38
   5   2 -26  -52.88  100.49
   5   2 -26    5.64   57.06
   2  -5  26  -56.22   61.79
  -5  -2  26 -101.81  153.68
  -1   5 -26   -6.73   82.47
  -1   5 -26   79.13   50.67
   1  -5  26   -7.23  117.82
   1  -5  26   21.34   61.49
   0   5 -26   14.56   53.42
   0   5 -26    6.99   88.53
   0  -5  26   60.42   64.74
   0  -5  26 -135.00  125.69
   1   5 -26   65.72   91.65
   1   5 -26   -5.00   57.03
  -1  -5  26 -124.34  134.48
   2   5 -26  -25.63   57.50
   2   5 -26   -7.58   98.15
  -2  -5  26    8.00  124.33
   3   5 -26    5.23   58.99
   3   5 -26    7.85  101.74
  -3  -5  26    8.32  140.54
   4   5 -26   42.63   61.97
   4   5 -26   40.76  107.00
  -4  -5  26   25.97  139.73
   5   5 -26  144.05  113.28
   5   5 -26   32.62   63.09
  -5  -5  26  464.52  153.64
   6   4 -26    8.69  110.59
   6   4 -26    5.43   55.59
  -6  -4  26   19.30  149.85
   6   3 -26  -17.57  103.42
   6   3 -26 -116.83   61.33
  -6  -3  26  408.52  155.93
   6   2 -26    5.74   65.44
  -2   6 -26   13.66   48.34
  -2   6 -26   38.87   81.25
   2  -6  26  -56.98   60.60
   2  -6  26  128.51  113.36
  -6  -2  26 -431.12  167.12
  -1   6 -26  -47.38   84.74
  -1   6 -26  -14.16   48.86
   1  -6  26  204.84  108.65
   1  -6  26  120.76   67.40
   0   6 -26   14.10   83.95
   0   6 -26   44.68   54.04
   0  -6  26   87.23  121.61
   0  -6  26   22.86   73.81
   1   6 -26  -58.75   96.88
   1   6 -26   61.94   57.09
  -1  -6  26   45.45  124.49
  -1  -6  26   17.65   69.43
   2   6 -26    7.64   88.66
   2   6 -26  -37.25   52.37
  -2  -6  26   15.76  132.33
  -2  -6  26   24.04   74.38
   3   6 -26   96.30   62.48
   3   6 -26    7.93  104.08
  -3  -6  26  353.00  137.30
  -3  -6  26    6.10   69.27
   4   6 -26   43.78   63.92
   4   6 -26   -8.24  103.37
  -4  -6  26 -162.55  135.76
  -4  -6  26    6.20   69.12
   7   6 -26    9.36  119.58
  -7  -6  26 -360.06  162.35
  -7  -5  26   79.90  152.65
   7   2 -26    5.89   62.80
  -2   7 -26  -49.65   46.87
  -2   7 -26    6.57   84.19
  -7  -2  26   65.31  172.76
  -1   7 -26    6.86   88.40
  -1   7 -26  150.91   53.64
   1  -7  26  -54.87  107.65
   1  -7  26   27.67   67.08
   0   7 -26    5.18   56.45
   0   7 -26 -107.17   93.29
   0  -7  26   -5.82   66.76
   0  -7  26  200.64  116.82
   1   7 -26    5.37   56.97
   1   7 -26   96.33   95.94
  -1  -7  26   72.83   73.70
  -1  -7  26  186.79  125.86
   2   7 -26   46.20   97.56
   2   7 -26  100.88   59.44
  -2  -7  26   23.32  132.46
  -2  -7  26    6.27   69.16
   5   7 -26    6.12   72.11
  -5  -7  26  442.49  151.51
   6   7 -26    9.10  113.19
   6   7 -26    6.28   65.51
  -6  -7  26   13.72   79.58
  -6  -7  26  -46.50  152.14
   7   7 -26   19.14  119.65
  -7  -7  26   50.25  174.91
   8   7 -26    6.62   69.80
   8   7 -26   10.08  128.35
  -8  -7  26 -180.61   84.55
  -8  -7  26  106.70  175.39
   8   6 -26   -6.17   65.69
   8   6 -26   -9.80  123.82
  -8  -6  26 -109.17   82.43
  -8  -6  26  105.78  176.67
   8   5 -26    9.54  119.76
   8   5 -26   -5.86   53.30
  -8  -5  26   63.01  170.96
  -8  -5  26   -6.42   76.33
   8   4 -26 -264.59   65.88
   8   4 -26   -9.39  112.05
  -8  -4  26 -105.53  178.15
   3   8 -26   24.03   65.46
   4   8 -26    8.41  104.91
   4   8 -26   24.78   69.71
  -4  -8  26   51.06  136.53
  -4  -8  26   49.39   81.09
   5   8 -26    8.78  109.39
   5   8 -26   25.58   68.12
  -5  -8  26 -124.49  149.57
  -5  -8  26    7.22   80.29
   6   8 -26    9.19  117.39
   6   8 -26    6.58   71.94
  -6  -8  26   -7.42   89.42
  -6  -8  26  102.65  147.76
   7   8 -26    9.66  122.96
  -7  -8  26  231.01  171.47
  -7  -8  26   -7.61   90.11
   8   8 -26   10.19  129.55
   9   6 -26    6.37   72.76
   9   6 -26  -10.28  124.11
  -9  -6  26   14.17   89.77
  -9  -6  26   11.21  187.51
   9   5 -26    9.96  123.69
   9   5 -26    6.04   67.03
  -9  -5  26  110.80  180.08
  -9  -5  26  139.61   85.79
   9   4 -26   -5.94   60.69
   9   4 -26   -9.77  122.22
  -9  -4  26 -121.73  171.07
   9   3 -26   98.16  116.57
   9   3 -26  -17.94   64.66
  -9  -3  26   45.53  183.24
   9   2 -26  -62.56   67.82
  -9  -2  26   35.21  166.94
  -1   9 -26   49.68   89.76
  -1   9 -26   92.15   53.01
   1  -9  26  180.52  130.99
   1  -9  26   22.41   65.43
   0   9 -26    7.35   95.23
   0   9 -26   43.48   56.76
   0  -9  26   89.34   76.17
   0  -9  26  247.89  132.89
   1   9 -26   30.38   93.75
   1   9 -26   95.83   60.80
  -1  -9  26  155.73  132.18
  -1  -9  26  -12.63   69.48
   2   9 -26   29.67   59.07
   2   9 -26   -7.85   99.80
  -2  -9  26   19.91   77.57
  -2  -9  26    8.06  131.98
   3   9 -26   24.37  105.96
   3   9 -26  142.99   70.93
  -3  -9  26    6.93   82.41
  -3  -9  26  233.66  135.79
   4   9 -26  -84.32  108.62
   4   9 -26    6.48   66.27
  -4  -9  26  216.57  150.64
  -4  -9  26   -7.18   78.07
   5   9 -26    6.72   75.40
   5   9 -26   52.79  110.40
  -5  -9  26    7.41   84.68
  -5  -9  26   99.32  146.86
   6   9 -26  -92.48  122.00
   6   9 -26   27.79   74.75
  -6  -9  26   -7.63   91.72
  -6  -9  26 -434.61  162.55
   9   9 -26  -10.98  136.47
   9   9 -26    7.65   82.63
  -9  -9  26  -34.24  180.22
  -9  -9  26   -8.32  101.78
  10   9 -26   23.77   89.38
  10   9 -26  175.42  143.18
 -10  -9  26 -237.00  196.39
  10   8 -26    7.46   70.66
  10   8 -26  -11.53  141.92
 -10  -8  26   41.50   96.41
 -10  -8  26   49.92  206.98
  10   7 -26    7.15   72.68
 -10  -7  26   24.26  191.71
  10   5 -26    6.25   71.59
  10   5 -26  166.76  116.55
 -10  -5  26  -11.79  183.10
 -10  -5  26   90.45   83.70
  10   4 -26   -6.14   60.10
  10   4 -26 -314.56  124.00
 -10  -4  26  187.54  194.74
  10   3 -26   -6.22   66.02
  10   3 -26  -10.19  118.94
 -10  -3  26   11.91  176.39
  10   2 -26   -6.44   73.70
  -1  10 -26   27.66   55.59
  -1  10 -26  130.58  100.35
   1 -10  26  -14.98  128.54
   1 -10  26  -39.99   63.65
   0  10 -26  -63.84   61.43
   0  10 -26  112.26   97.80
   0 -10  26    6.14   67.09
   0 -10  26 -139.42  137.70
   1  10 -26  -61.44   62.83
   1  10 -26   53.92  101.43
  -1 -10  26    7.98  141.69
  -1 -10  26  -64.81   77.27
   2  10 -26  111.05  101.70
   2  10 -26   -6.48   72.81
  -2 -10  26   -6.85   83.13
  -2 -10  26  -49.32  129.98
   3  10 -26   -8.18  106.52
   3  10 -26   13.26   68.48
  -3 -10  26    8.49  133.20
  -3 -10  26   28.79   82.78
   4  10 -26    6.92   72.65
   4  10 -26    8.48  103.61
  -4 -10  26    7.51   83.45
  -4 -10  26  114.23  152.91
   5  10 -26    7.20   76.66
   5  10 -26   -8.83  107.35
  -5 -10  26    7.80   89.68
  -5 -10  26  146.19  138.83
   7  10 -26   62.01   80.79
  -7 -10  26  153.20  177.62
   8  10 -26   72.48  135.25
  -8 -10  26  108.12  176.94
   9  10 -26   -8.33   85.43
   9  10 -26   11.05  144.89
  -9 -10  26   -8.87  100.76
  -9 -10  26  149.52  189.85
  11   8 -26   12.25  149.08
  11   8 -26    7.74   82.88
 -11  -8  26   13.40  209.17
  11   7 -26   11.77  141.30
  11   7 -26    7.41   78.73
 -11  -7  26 -144.32  225.51
 -11  -7  26    8.06   92.38
  11   6 -26   11.25  136.59
  11   6 -26 -176.63   77.16
 -11  -6  26 -191.63   95.31
 -11  -6  26  -25.53  210.77
  11   2 -26   -6.68   77.33
  -1  11 -26    5.85   60.60
  -1  11 -26   44.53   92.31
   1 -11  26  -90.50   67.26
   1 -11  26  -82.97  129.21
   0  11 -26   -7.62   96.54
   0  11 -26   80.39   65.24
   0 -11  26   -7.75  133.41
   0 -11  26   64.20   75.75
   1  11 -26    7.82  100.16
   1  11 -26  -32.48   67.87
  -1 -11  26  -41.05   76.06
  -1 -11  26  -39.74  135.19
   2  11 -26   13.72   70.25
   2  11 -26  -32.13  108.24
  -2 -11  26   50.59   83.74
  -2 -11  26    8.16  131.71
   6  11 -26    9.32  117.16
   6  11 -26   -8.14   87.35
  -6 -11  26  126.89  165.97
  -6 -11  26    8.50   96.54
   7  11 -26   59.25   90.73
   7  11 -26  -39.24  130.62
  -7 -11  26   10.28  172.29
  -7 -11  26   -8.81   99.95
   8  11 -26  -10.38  134.83
  -8 -11  26   65.22  179.40
  12   7 -26  -74.36  141.17
 -12  -7  26   -8.56   91.30
 -12  -7  26  210.59  241.31
  12   6 -26   -7.36   82.60
  12   6 -26   11.79  134.93
 -12  -6  26   54.35  214.81
 -12  -6  26   88.45   97.86
  12   5 -26  -11.28  137.08
  12   5 -26   -6.93   77.98
 -12  -5  26 -278.47   95.63
 -12  -5  26  131.72  203.83
  12   4 -26   -6.70   68.74
  12   4 -26   11.01  132.36
 -12  -4  26 -142.80  202.83
 -12  -4  26   44.65   83.99
  12   3 -26    6.71   71.87
  12   3 -26   32.97  136.00
 -12  -3  26 -300.34  206.07
   3  12 -26   -7.64   75.62
   3  12 -26    8.35  102.14
  -3 -12  26  -74.88  142.63
  -3 -12  26    8.02   84.48
   4  12 -26   -8.64  104.62
   4  12 -26    8.02   82.87
  -4 -12  26    8.37   86.15
  -4 -12  26   35.48  147.28
   5  12 -26    9.02  115.50
   5  12 -26    8.41   86.89
  -5 -12  26 -245.27   99.56
  -5 -12  26   55.25  150.52
   6  12 -26    9.44  121.91
  -6 -12  26 -100.43  103.38
  -6 -12  26   28.83  164.06
  13   6 -26  -12.31  148.46
 -13  -6  26 -188.66  224.11
  13   5 -26   11.74  140.67
  13   5 -26    7.27   76.96
 -13  -5  26    8.20   97.07
 -13  -5  26  420.15  224.42
  13   4 -26   22.82  133.32
  13   4 -26  -98.05   77.12
 -13  -4  26   13.76  207.27
 -13  -4  26    7.87   89.21
  13   3 -26    7.00   74.72
 -13  -3  26 -368.29  215.09
   0  13 -26    7.74   99.33
   0 -13  26   -7.97  127.99
   1  13 -26    7.93  100.39
  -1 -13  26    8.13  138.87
   2  13 -26 -114.48  103.63
  -2 -13  26    8.32  135.46
  -2 -13  26   -8.07   88.85
   3  13 -26   42.21  111.91
  -3 -13  26   85.40  151.18
  -3 -13  26 -314.47  101.67
   4  13 -26 -350.76  117.22
  -4 -13  26   53.68   95.21
  -4 -13  26   35.24  145.09
   5  13 -26 -100.74  112.28
  14   4 -26   11.81  139.30
  14   4 -26    7.33   78.44
 -14  -4  26  187.57  214.91
  14   3 -26    7.35   79.24
  -1   2 -27    5.21   55.65
   0   2 -27  -26.77   58.71
   1   2 -27    5.49   61.97
  -2   2 -27    5.03   57.46
   2   2 -27  112.21   63.02
   3   2 -27    5.73   53.45
  -2   3 -27  126.79   59.23
  -3  -2  27   40.78  153.26
  -1   3 -27   15.19   52.65
   1  -3  27   69.56  127.50
   0   3 -27   31.11   91.68
   0   3 -27   46.91   56.65
   0  -3  27   62.41  143.99
   1   3 -27   74.62   53.71
   1   3 -27  -31.97   96.01
  -1  -3  27   45.76  143.87
   2   3 -27  -16.43   93.24
   2   3 -27   10.87   61.78
  -2  -3  27 -122.25  146.56
   3   3 -27    5.54   60.18
   3   3 -27   -8.47  103.80
  -3  -3  27    9.69  142.74
   4   3 -27 -112.74   63.44
   4   3 -27    8.75  106.76
  -4  -3  27 -279.90  151.06
  -2   4 -27   -9.47   52.17
  -2   4 -27  190.21   84.36
   4   2 -27    5.86   58.29
  -4  -2  27 -230.67  164.20
   2  -4  27  205.79  125.78
  -1   4 -27   93.64   54.84
  -1   4 -27  -36.29   86.37
   1  -4  27   97.67  122.59
   0   4 -27  -37.45   90.34
   0   4 -27   35.54   55.02
   0  -4  27    8.39  134.73
   1   4 -27   77.68   96.71
   1   4 -27   26.36   56.83
  -1  -4  27  120.39  141.43
   2   4 -27  -21.49   53.11
   2   4 -27    8.03   88.88
  -2  -4  27  195.65  148.38
   3   4 -27    5.47   59.87
   3   4 -27 -116.27  101.46
  -3  -4  27   -9.19  143.06
   4   4 -27   16.69   62.41
   4   4 -27   42.98  103.05
  -4  -4  27 -114.40  142.08
   5   3 -27   45.96   68.91
   5   3 -27  -18.08  114.14
  -5  -3  27  217.06  155.84
   5   2 -27 -131.70   63.17
  -2   5 -27  -41.12   84.29
  -2   5 -27  -42.02   49.86
  -5  -2  27   10.80  153.46
   2  -5  27   86.80   65.55
  -1   5 -27  -78.88   53.17
  -1   5 -27   -7.17   90.78
   1  -5  27   78.96   70.27
   1  -5  27  -54.61  131.48
   0   5 -27   66.64   56.20
   0   5 -27   67.01   91.46
   0  -5  27    5.79   66.40
   0  -5  27  -48.22  127.30
   1   5 -27   63.33   57.95
   1   5 -27  -23.19   93.29
  -1  -5  27   58.39  136.64
   2   5 -27  -26.99   60.13
   2   5 -27    8.02  100.65
  -2  -5  27    8.66  141.02
   3   5 -27  -16.64  107.40
   3   5 -27   43.99   64.29
  -3  -5  27  485.65  149.41
   6   5 -27    5.83   65.22
   6   5 -27    9.32  114.64
  -6  -5  27  539.93  167.27
  -1   6 -27  -10.03   54.04
  -1   6 -27  -14.41   89.69
   1  -6  27 -174.18  118.91
   1  -6  27 -140.00   75.87
   0   6 -27  -42.08   57.70
   0   6 -27  180.48   96.18
   0  -6  27   -6.04   65.43
   0  -6  27  -86.99  138.93
   1   6 -27   16.37   58.87
   1   6 -27  140.82   99.30
  -1  -6  27   24.81   75.06
  -1  -6  27   98.78  132.94
   5   6 -27   -9.14  114.61
   5   6 -27   11.74   66.74
  -5  -6  27    9.72  161.19
  -5  -6  27   -6.60   81.03
   6   6 -27    6.00   63.34
   6   6 -27   -9.53  117.57
  -6  -6  27   10.17  168.92
  -6  -6  27    6.74   83.48
   7   6 -27 -149.25  117.92
  -7  -6  27 -106.99  174.10
  -7  -6  27   -6.90   81.77
   7   5 -27   -9.71  118.33
  -7  -5  27  299.01  182.34
   7   4 -27    9.59  118.97
  -7  -4  27 -204.30  170.85
   7   3 -27   19.34  122.44
  -7  -3  27  222.77  175.98
   3   7 -27  -30.57   68.52
   3   7 -27    8.59  108.05
  -3  -7  27   -6.75   82.22
  -3  -7  27  -26.69  155.11
   4   7 -27    6.28   69.48
   4   7 -27   26.87  106.12
  -4  -7  27    9.27  151.00
  -4  -7  27 -151.21   78.32
   5   7 -27   46.63  116.48
   5   7 -27    6.43   71.17
  -5  -7  27    7.00   89.32
  -5  -7  27   77.70  150.82
   6   7 -27   -9.74  124.47
   6   7 -27    6.58   74.37
  -6  -7  27  112.02  167.66
  -6  -7  27    7.15   78.79
   7   7 -27   10.18  128.04
   7   7 -27   13.49   76.87
  -7  -7  27   -7.32   91.03
  -7  -7  27  322.67  184.63
   8   6 -27    6.45   67.12
   8   6 -27   10.41  125.77
  -8  -6  27   42.65   89.55
  -8  -6  27   56.46  182.89
   8   5 -27  131.78  123.13
   8   5 -27   18.42   65.06
  -8  -5  27    6.70   75.37
  -8  -5  27   11.22  164.96
   8   4 -27    6.05   62.98
   8   4 -27 -199.61  122.81
  -8  -4  27  215.22  178.96
   8   3 -27  -24.41   74.91
   8   3 -27  110.33  120.59
  -8  -3  27  289.86  180.60
   8   2 -27    6.42   70.51
  -8  -2  27 -466.51  193.40
  -1   8 -27  145.21   59.38
  -1   8 -27    7.42   95.21
   1  -8  27  -35.49   70.95
   1  -8  27   60.30  133.90
   0   8 -27  -11.04   57.73
   0   8 -27  -15.47  101.86
   0  -8  27   86.61  133.82
   0  -8  27  -38.05   71.74
   1   8 -27  -16.05  103.15
   1   8 -27  221.65   69.20
  -1  -8  27    6.72   79.84
  -1  -8  27    8.20  134.60
   2   8 -27   79.52   66.67
   2   8 -27 -258.17  108.76
  -2  -8  27 -301.64   86.83
  -2  -8  27 -102.33  154.71
   3   8 -27    8.63  111.99
   3   8 -27   12.66   68.22
  -3  -8  27   36.09   86.09
  -3  -8  27  443.08  144.47
   4   8 -27    6.54   69.48
   4   8 -27   -8.98  115.28
  -4  -8  27    7.39   87.66
  -4  -8  27   83.09  141.96
   5   8 -27    6.73   70.28
   5   8 -27    9.36  123.48
  -5  -8  27   45.25   92.90
  -5  -8  27  193.17  169.94
   6   8 -27    6.92   74.45
   6   8 -27  -19.62  114.64
  -6  -8  27   54.00   93.17
  -6  -8  27   40.56  171.40
   9   8 -27  -34.74  150.17
   9   8 -27   -7.56   80.67
  -9  -8  27 -471.16  214.54
  -9  -8  27    8.42  103.58
   9   5 -27  -88.61   71.40
   9   5 -27  368.62  126.86
  -9  -5  27   -6.94   84.13
  -9  -5  27   47.57  186.05
   9   4 -27   10.36  122.80
   9   4 -27   56.19   76.85
  -9  -4  27  344.17  186.05
   9   3 -27  -41.67  118.27
   9   3 -27    6.30   68.25
  -9  -3  27 -496.48  198.16
  -1   9 -27   10.84   57.62
  -1   9 -27   60.63  100.61
   1  -9  27   11.82   64.04
   1  -9  27 -115.92  125.61
   0   9 -27  165.44  101.04
   0   9 -27  109.65   61.01
   0  -9  27  -31.67   71.57
   0  -9  27  153.05  136.85
   1   9 -27  -29.92   60.80
   1   9 -27  -48.85  104.10
  -1  -9  27  -91.99  138.80
  -1  -9  27  -93.81   81.16
   2   9 -27   62.98   69.53
   2   9 -27    8.42  110.27
  -2  -9  27    7.03   83.49
  -2  -9  27  112.64  140.16
   3   9 -27   -6.58   70.34
   3   9 -27  -61.05  109.48
  -3  -9  27  197.43  152.14
  -3  -9  27   -7.31   84.54
   4   9 -27    6.85   72.16
   4   9 -27  144.70  121.18
  -4  -9  27   -7.57   89.04
  -4  -9  27  232.89  158.99
   5   9 -27  -14.17   74.59
   5   9 -27    9.42  123.42
  -5  -9  27    7.78   94.09
  -5  -9  27  271.63  160.13
   8   9 -27   21.99  146.10
  -8  -9  27  -11.57  210.01
   9   9 -27  -11.65  134.98
  -9  -9  27 -209.71  194.74
  10   8 -27 -355.25  155.75
 -10  -8  27 -318.74  232.35
  10   7 -27 -616.35  157.85
  10   7 -27  -29.46   78.91
 -10  -7  27  170.05  225.49
 -10  -7  27    8.03   99.09
  10   6 -27   -6.90   74.14
  10   6 -27  -11.39  144.80
 -10  -6  27  -12.78  211.28
 -10  -6  27 -152.99   99.41
  10   3 -27   10.82  119.72
  10   3 -27    6.55   69.10
 -10  -3  27 -316.40  188.49
  -1  10 -27   69.43  101.13
  -1  10 -27    5.76   58.79
   1 -10  27  231.80  139.01
   1 -10  27   84.66   69.91
   0  10 -27   15.87   90.11
   0  10 -27  -18.43   56.05
   0 -10  27  -32.59   65.49
   0 -10  27   91.13  136.62
   1  10 -27   13.02   62.67
   1  10 -27   -8.18  107.97
  -1 -10  27  145.41  154.61
  -1 -10  27  -54.94   78.42
   2  10 -27    8.43  106.46
   2  10 -27  107.11   71.41
  -2 -10  27 -238.09  146.91
  -2 -10  27   21.79   80.42
   3  10 -27    7.01   72.15
   3  10 -27   43.70  111.63
  -3 -10  27   22.85   85.63
  -3 -10  27  209.35  161.45
   6  10 -27    9.88  120.54
   6  10 -27    7.86   85.98
  -6 -10  27  176.21  104.28
  -6 -10  27  143.47  185.42
   7  10 -27   32.52   92.07
   7  10 -27 -343.61  131.41
  -7 -10  27    8.64   96.43
  -7 -10  27  -10.77  194.56
   8  10 -27   11.05  141.75
  -8 -10  27  417.30  198.82
  11   7 -27  -12.48  152.19
 -11  -7  27  -13.97  216.81
 -11  -7  27    8.37   76.03
  11   6 -27  -14.35   74.41
  11   6 -27   47.78  146.00
 -11  -6  27  516.33  226.40
 -11  -6  27  143.65  100.00
  11   5 -27  126.35  130.18
  11   5 -27   33.99   74.15
 -11  -5  27  -92.86  199.35
 -11  -5  27   91.48   93.38
  11   4 -27   11.24  132.09
  11   4 -27  -33.61   77.40
 -11  -4  27   13.14  196.55
   4  11 -27   15.79   76.69
   4  11 -27  172.76  115.02
  -4 -11  27    8.28   97.69
  -4 -11  27   95.14  154.72
   5  11 -27    8.24   89.81
   5  11 -27 -151.19  118.10
  -5 -11  27   -8.62   96.58
  -5 -11  27    9.88  172.08
   6  11 -27  -19.75  123.59
   6  11 -27    8.58   92.42
  -6 -11  27 -350.50  178.13
  -6 -11  27    8.93   99.54
   7  11 -27 -186.98  128.80
  12   6 -27 -187.76  157.62
 -12  -6  27 -174.56  238.88
  12   5 -27    7.24   80.01
  12   5 -27   11.99  141.50
 -12  -5  27  211.73  210.55
 -12  -5  27  -24.19   95.85
  12   4 -27    7.03   75.26
  12   4 -27   11.68  142.58
 -12  -4  27  181.08  214.24
 -12  -4  27 -101.30   93.13
 -12  -3  27  387.44  209.06
   0  12 -27   24.62  110.00
   0  12 -27   -6.95   65.86
   0 -12  27   -7.06   81.59
   0 -12  27  126.64  133.00
   1  12 -27 -243.92  110.29
   1  12 -27   80.03   76.27
  -1 -12  27   45.27   85.69
  -1 -12  27 -198.75  144.21
   2  12 -27   -8.63  107.63
   2  12 -27  -46.00   81.38
  -2 -12  27    8.02   87.29
  -2 -12  27   -8.85  148.63
   3  12 -27    8.07   85.81
   3  12 -27   53.32  113.31
  -3 -12  27  209.03  149.73
  -3 -12  27  -42.04   97.04
   4  12 -27  128.61  114.49
   4  12 -27  -93.24   85.76
  -4 -12  27   84.34  162.65
  -4 -12  27 -150.04  102.32
   5  12 -27   -8.89   66.12
   5  12 -27   -9.54  123.26
  -5 -12  27    9.72  166.06
  13   4 -27  121.37  151.78
  13   4 -27   -7.35   74.25
 -13  -4  27 -321.91  223.70
  13   3 -27    7.36   78.63
   0  13 -27  -83.02  107.88
   0 -13  27 -185.11  147.51
   1  13 -27   -8.51  110.03
  -1 -13  27   -8.60  130.28
   2  13 -27    8.74  105.17
  -2 -13  27 -126.84   94.91
  -2 -13  27   96.79  136.54
   3  13 -27    9.00  115.97
  -3 -13  27   99.37  152.07
  -3 -13  27    8.94   97.52
  -1   2 -28  -32.92   51.68
   0   2 -28   33.95   63.69
   1   2 -28  -17.42   50.85
   2   2 -28  154.56   67.57
  -2   2 -28  126.04   66.25
  -2   3 -28   15.37   55.18
   3   2 -28    6.08   67.09
  -1   3 -28   31.92   58.33
   1  -3  28   -9.24  139.88
   0   3 -28  104.13   63.38
   0  -3  28   -9.48  146.76
   1   3 -28  -84.98  100.86
   1   3 -28   28.10   61.53
  -1  -3  28  311.82  145.65
   2   3 -28   43.75  106.64
   2   3 -28  -34.41   52.86
  -2  -3  28 -160.47  162.26
   3   3 -28   -5.84   53.72
   3   3 -28    9.02  106.98
  -3  -3  28 -103.28  149.22
  -2   4 -28  187.13   91.63
  -1   4 -28   -5.19   54.23
  -1   4 -28   61.80   91.94
   1  -4  28   26.28  138.81
   0   4 -28   -7.98   96.77
   0   4 -28   21.39   55.27
   0  -4  28  -53.78  150.98
   1   4 -28   -5.55   54.72
   1   4 -28  -32.96  101.38
  -1  -4  28   18.50  148.49
   2   4 -28 -110.75  108.15
  -2  -4  28  286.70  163.08
   5   4 -28 -349.22  113.98
   5   4 -28   -5.97   62.86
  -5  -4  28   10.64  162.86
   4   5 -28    9.19  114.04
   4   5 -28    5.89   64.15
  -4  -5  28  -10.01  150.41
   5   5 -28 -239.88   77.46
   5   5 -28   38.17  121.42
  -5  -5  28 -385.49  190.41
   6   5 -28   42.85   70.07
   6   5 -28    9.92  116.77
  -6  -5  28   87.70  182.50
   6   4 -28   30.11   69.01
   6   4 -28    9.79  116.34
  -6  -4  28 -542.43  185.28
   6   3 -28    9.93  115.08
   6   3 -28    6.20   65.59
  -6  -3  28 -445.06  185.91
  -1   6 -28  -37.22   60.12
   1   6 -28   -5.76   63.16
   2   6 -28  -34.76   60.92
   2   6 -28 -233.67  108.42
  -2  -6  28    6.61   80.80
  -2  -6  28  238.36  157.25
   3   6 -28    8.99  113.64
   3   6 -28    5.92   67.62
  -3  -6  28    6.69   76.30
  -3  -6  28  133.70  155.38
   4   6 -28   -9.34  115.71
   4   6 -28    6.04   64.53
  -4  -6  28   61.07   82.69
  -4  -6  28   19.90  150.52
   5   6 -28   29.15  122.76
   5   6 -28   -6.16   62.04
  -5  -6  28 -291.02  157.95
  -5  -6  28    6.89   79.14
   6   6 -28  -10.13  125.04
   6   6 -28    6.29   71.08
  -6  -6  28   21.76  168.74
  -6  -6  28  -63.23   77.46
   7   6 -28    6.57   66.37
   7   6 -28 -136.70  124.21
  -7  -6  28   72.07   91.97
  -7  -6  28  276.66  192.15
   7   5 -28    6.27   66.54
  -7  -5  28   80.27  180.13
  -7  -5  28 -129.43   82.15
   7   4 -28   81.36  121.82
  -7  -4  28   11.54  168.88
   7   3 -28   10.28  123.33
  -7  -3  28 -201.48  179.41
  -1   7 -28  -66.32   57.09
  -1   7 -28   31.09   97.38
   1  -7  28  -24.45  137.18
   1  -7  28   74.81   66.15
   0   7 -28  -40.62  106.95
   0   7 -28  132.59   62.60
   0  -7  28  -50.58  135.02
   0  -7  28  -58.85   75.92
   1   7 -28   16.94  106.48
   1   7 -28  114.68   64.02
  -1  -7  28   13.56   80.90
  -1  -7  28   -8.80  146.15
   2   7 -28 -343.69  116.82
   2   7 -28  206.65   68.84
  -2  -7  28 -155.78  156.43
  -2  -7  28   27.81   78.89
   3   7 -28  -64.10  113.78
   3   7 -28   70.87   72.77
  -3  -7  28   14.15   84.54
  -3  -7  28  143.19  163.08
   4   7 -28    9.52  122.70
   4   7 -28   -6.60   70.79
  -4  -7  28  -50.37   78.75
  -4  -7  28   89.52  152.71
   5   7 -28    6.75   75.34
   5   7 -28  -49.50  131.47
  -5  -7  28  135.17  160.05
  -5  -7  28    7.32   79.56
   6   7 -28   10.32  130.41
   6   7 -28   -6.90   67.00
  -6  -7  28    7.45   92.42
  -6  -7  28  -98.29  167.00
   8   5 -28   -6.44   68.07
   8   5 -28   10.71  129.73
  -8  -5  28  -12.03  191.94
  -8  -5  28  189.47   88.36
   8   4 -28   19.09   67.39
   8   4 -28  -10.57  131.88
  -8  -4  28  -12.07  186.47
   8   3 -28   83.83   76.40
   8   3 -28 -415.78  127.28
  -8  -3  28 -234.41  185.13
  -1   8 -28   31.81  112.05
  -1   8 -28  -55.14   59.53
   1  -8  28   72.33  142.02
   1  -8  28    6.31   78.37
   0   8 -28   46.94   62.21
   0   8 -28   33.15  104.01
   0  -8  28  142.88  139.51
   0  -8  28  121.87   85.19
   1   8 -28  198.14   69.77
   1   8 -28  -86.09  109.28
  -1  -8  28    7.13   83.42
  -1  -8  28  139.85  154.98
   2   8 -28    8.92  116.12
   2   8 -28   12.89   74.89
  -2  -8  28   -9.10  140.97
  -2  -8  28   81.24   83.88
   3   8 -28    9.27  113.44
   3   8 -28   13.37   73.28
  -3  -8  28  128.47   92.03
  -3  -8  28    9.46  149.90
   4   8 -28   -9.62  120.17
   4   8 -28    6.89   73.56
  -4  -8  28  187.35  154.87
  -4  -8  28   23.15   92.81
   5   8 -28   60.32  123.18
   5   8 -28   -7.07   71.28
  -5  -8  28 -133.87  101.10
  -5  -8  28   10.30  166.09
   7   8 -28    7.44   79.11
  -7  -8  28   58.52  205.05
   8   8 -28   23.26  149.44
  -8  -8  28  371.57  221.44
   9   8 -28   12.26  160.33
   9   8 -28    7.86   74.63
  -9  -8  28 -330.54  209.59
  -9  -8  28   -8.74  101.04
   9   7 -28  -11.93  147.73
   9   7 -28   29.82   85.88
  -9  -7  28 -169.48   97.26
  -9  -7  28  222.28  227.62
   9   6 -28  -11.52  142.65
   9   6 -28   -6.97   76.43
  -9  -6  28  141.32  206.69
  -9  -6  28 -160.96   91.15
   9   3 -28   22.13  139.39
   9   3 -28   -6.66   71.57
  -9  -3  28  321.63  183.07
  -1   9 -28  -63.22   60.98
  -1   9 -28   40.45  105.44
   1  -9  28  212.06  129.50
   1  -9  28   62.92   68.96
   0   9 -28  -67.37  109.39
   0   9 -28  -18.01   65.66
   0  -9  28  -34.03  138.16
   0  -9  28  141.22   79.29
   1   9 -28   25.41   68.00
   1   9 -28  113.43  114.05
  -1  -9  28   53.03  154.77
  -1  -9  28  -35.53   84.95
   2   9 -28    6.68   61.46
   2   9 -28   -9.03  123.25
  -2  -9  28   82.47  153.46
  -2  -9  28   -7.43   88.80
   3   9 -28    6.97   78.42
   3   9 -28   -9.34  115.23
  -3  -9  28    9.51  156.86
  -3  -9  28   -7.72   89.72
   6   9 -28   10.55  132.26
   6   9 -28 -115.23   76.22
  -6  -9  28   66.92   96.97
  -6  -9  28   43.99  183.74
   7   9 -28   11.08  138.24
   7   9 -28   -7.90   88.26
  -7  -9  28 -220.47  185.83
  -7  -9  28 -265.41  103.63
   8   9 -28   23.45  151.50
  -8  -9  28   12.30  199.41
  10   7 -28   12.56  151.62
 -10  -7  28 -333.83  234.34
  10   6 -28   12.08  151.35
  10   6 -28    7.22   80.18
 -10  -6  28    7.98  105.05
 -10  -6  28  245.37  221.07
  10   5 -28   11.67  144.14
  10   5 -28    6.87   75.54
 -10  -5  28    7.56   79.97
 -10  -5  28  -93.57  193.38
  10   4 -28 -155.97   75.15
  10   4 -28   22.95  138.71
 -10  -4  28  -13.29  194.87
   4  10 -28    7.70   77.81
   4  10 -28   -9.70  121.41
  -4 -10  28  229.18  167.65
  -4 -10  28   -8.28   94.04
   5  10 -28  -87.86   86.76
   5  10 -28   10.10  122.97
  -5 -10  28   59.79  100.25
  -5 -10  28   84.36  174.72
   6  10 -28    8.25   86.27
   6  10 -28   10.56  135.25
  -6 -10  28    8.78   97.62
  -6 -10  28   22.03  184.29
   7  10 -28   11.14  143.96
  -7 -10  28   11.57  195.68
  11   6 -28 -151.36  150.68
 -11  -6  28   14.57  256.00
  11   5 -28 -135.38   74.04
  11   5 -28   12.16  139.88
 -11  -5  28   23.91   92.64
 -11  -5  28   14.22  236.86
  11   4 -28   14.13   79.30
  11   4 -28   11.93  142.70
 -11  -4  28  112.64  228.30
  11   3 -28   14.23   80.05
 -11  -3  28 -196.49  216.01
   0  11 -28   20.50   69.55
   0  11 -28  -25.70  105.15
   0 -11  28  -21.51   80.68
   0 -11  28   44.71  152.91
   1  11 -28  -72.64   74.87
   1  11 -28 -290.77  120.49
  -1 -11  28  -90.63   86.65
  -1 -11  28   -9.20  154.53
   2  11 -28   15.36   78.18
   2  11 -28    9.06  118.13
  -2 -11  28  -79.73   91.75
  -2 -11  28    9.46  167.19
   3  11 -28   -7.97   80.60
   3  11 -28    9.33  115.82
  -3 -11  28    8.37   91.09
  -3 -11  28 -108.73  167.84
   4  11 -28   -8.35   89.15
   4  11 -28    9.65  128.30
  -4 -11  28 -296.04  171.44
  -4 -11  28    8.73   97.44
   5  11 -28   80.70  123.65
   5  11 -28 -182.65   93.12
  -5 -11  28 -199.73  104.29
  -5 -11  28  402.54  172.03
  12   4 -28   12.43  156.86
 -12  -4  28  311.03  225.72
  12   3 -28    7.44   75.56
   0  12 -28   26.08  112.61
   0  12 -28  -87.51   77.87
   0 -12  28   52.10   83.11
   0 -12  28    9.23  152.53
   1  12 -28 -169.34  118.68
   1  12 -28   -7.66   75.06
  -1 -12  28    7.97   88.35
  -1 -12  28   -9.46  150.88
   2  12 -28   -9.15  114.97
   2  12 -28  -32.31   85.88
  -2 -12  28   97.01  160.53
  -2 -12  28    8.41   94.59
   3  12 -28    8.52   82.98
   3  12 -28   84.87  113.95
  -3 -12  28   89.70  155.54
  -3 -12  28    8.87  105.65
   4  12 -28   -9.75  123.96
  -4 -12  28  380.44  180.39
   0  13 -28    8.82  113.92
   0 -13  28   -9.17  143.30
   1  13 -28    9.05  118.60
  -1 -13  28  100.61   97.82
  -1 -13  28 -187.72  151.53
   2  13 -28   74.35  122.10
  -2 -13  28    9.61  154.27
  -2 -13  28    8.90   95.08
   3   3 -29  -12.33   68.74
   4   3 -29    6.29   65.26
   4   3 -29   49.42  119.58
  -4  -3  29  -90.72  166.12
   2   4 -29   72.54  113.13
   2   4 -29  -65.55   59.60
  -2  -4  29  132.74  151.80
   3   4 -29    6.07   61.75
   3   4 -29  -65.66  110.40
  -3  -4  29 -285.40  153.43
   4   4 -29    6.18   67.25
   4   4 -29   -9.70   99.49
  -4  -4  29 -142.26  157.46
   5   4 -29  190.93  120.73
   5   4 -29    6.21   65.34
  -5  -4  29   34.07  175.72
   5   3 -29   10.21  125.41
   5   3 -29   12.84   66.39
  -5  -3  29   11.73  170.39
  -1   5 -29   27.42   59.73
  -1   5 -29  144.12   99.75
   1  -5  29 -125.26   75.34
   1  -5  29   62.63  136.74
   0   5 -29   28.44   63.07
   0   5 -29 -100.28   99.64
   0  -5  29  -73.86  152.56
   0  -5  29   64.06   76.51
   1   5 -29  -46.78   60.35
   1   5 -29  -43.43  110.93
  -1  -5  29    9.60  153.67
   2   5 -29  -29.86   62.98
   2   5 -29    9.02  110.94
  -2  -5  29  -59.79  161.43
   3   5 -29   -6.08   56.36
   3   5 -29    9.36  117.63
  -3  -5  29 -155.25  168.49
   4   5 -29    6.19   68.39
   4   5 -29   -9.72  118.37
  -4  -5  29   10.76  165.01
   5   5 -29    6.30   73.32
   5   5 -29   10.09  127.02
  -5  -5  29  -44.81  170.90
   6   5 -29  -10.48  122.18
   6   5 -29    6.44   70.51
  -6  -5  29 -327.36  179.33
  -6  -5  29   97.68   87.09
   6   4 -29 -395.86  124.08
   6   4 -29    6.35   67.82
  -6  -4  29   35.45  168.87
   6   3 -29    6.56   71.11
   6   3 -29 -116.10  123.36
  -6  -3  29  -24.29  182.62
  -1   6 -29   44.95   56.24
  -1   6 -29  -24.22  100.69
   1  -6  29  -87.32  139.23
   1  -6  29   39.15   78.68
   0   6 -29   25.30  105.82
   0   6 -29  -29.33   64.98
   0  -6  29    9.12  155.46
   0  -6  29    6.71   77.52
   1   6 -29   12.13   65.82
   1   6 -29  -52.75  106.92
  -1  -6  29    9.51  155.37
  -1  -6  29   89.05   76.05
   2   6 -29   12.18   63.61
   2   6 -29    9.15  112.06
  -2  -6  29  188.17  166.87
  -2  -6  29  -27.75   84.96
   3   6 -29    9.51  116.22
   3   6 -29    6.22   65.70
  -3  -6  29 -206.09  174.96
  -3  -6  29 -168.37   83.76
   4   6 -29    6.34   73.56
   4   6 -29   39.52  122.90
  -4  -6  29   28.42   84.05
  -4  -6  29 -182.53  173.56
   5   6 -29    6.46   75.54
   5   6 -29  -10.27  123.40
  -5  -6  29  100.90  167.91
  -5  -6  29  158.55   84.95
   6   6 -29    6.59   74.35
   6   6 -29   10.70  143.29
  -6  -6  29 -161.66   90.86
  -6  -6  29   23.46  195.72
   7   5 -29   10.91  136.57
  -7  -5  29   12.24  200.10
   7   4 -29    6.53   72.50
   7   4 -29   10.82  128.34
  -7  -4  29   24.64  172.66
   7   3 -29   -6.63   73.20
   7   3 -29  -10.93  125.68
  -7  -3  29 -466.38  189.63
  -1   7 -29 -140.71   65.83
  -1   7 -29   49.45  102.14
   1  -7  29   -6.61   80.01
   1  -7  29 -209.34  148.22
   0   7 -29  -12.21   63.23
   0   7 -29  -94.97  102.66
   0  -7  29   69.07   79.37
   0  -7  29   73.00  152.31
   1   7 -29   36.02  107.12
   1   7 -29  -38.27   61.24
  -1  -7  29  -85.71   70.63
  -1  -7  29    9.54  171.57
   2   7 -29   19.80   73.25
   2   7 -29    9.37  120.13
  -2  -7  29 -196.94   87.90
  -2  -7  29  -99.40  171.10
   3   7 -29  -19.47  115.60
   3   7 -29  -27.13   72.48
  -3  -7  29 -361.84  182.92
  -3  -7  29    7.42   86.36
   4   7 -29  -10.12  117.80
   4   7 -29    6.94   75.57
  -4  -7  29   10.80  181.26
  -4  -7  29   15.06   94.56
   5   7 -29   10.54  129.21
   7   7 -29  -11.49  137.53
   7   7 -29   -7.39   80.38
  -7  -7  29   -7.95   89.17
  -7  -7  29 -174.11  203.98
   8   7 -29  -12.04  151.30
  -8  -7  29  170.65  226.05
   8   6 -29   11.68  148.13
  -8  -6  29 -259.36  216.30
  -8  -3  29   65.51  202.73
  -1   8 -29   23.43   60.16
  -1   8 -29  -93.03  105.87
   0   8 -29   97.44  111.60
   0   8 -29    6.23   57.62
   0  -8  29 -202.23  150.11
   0  -8  29   93.39   80.98
   1   8 -29    9.22  120.86
   1   8 -29  -32.80   72.39
  -1  -8  29   22.67   90.00
  -1  -8  29    9.59  153.99
   2   8 -29    6.82   67.33
   2   8 -29    9.58  119.52
  -2  -8  29   79.82  157.45
  -2  -8  29    7.76   87.64
   3   8 -29    9.95  125.73
  -3  -8  29    7.93   94.63
  -3  -8  29   20.76  167.06
   6   8 -29   15.22   86.09
   6   8 -29   22.43  141.44
  -6  -8  29  -94.94  193.47
  -6  -8  29   83.73   97.59
   7   8 -29   -7.79   80.82
   7   8 -29   11.74  149.41
  -7  -8  29 -197.10  105.85
  -7  -8  29   25.03  196.10
   8   8 -29   12.32  161.38
  -8  -8  29 -224.97  229.16
   9   7 -29  -12.66  185.42
  -9  -7  29  -28.08  230.02
   9   6 -29  -12.24  152.72
   9   6 -29    7.29   79.61
  -9  -6  29 -304.31  104.28
  -9  -6  29   13.80  215.73
   9   5 -29    6.97   79.15
   9   5 -29   95.01  143.67
  -9  -5  29   -7.62   90.35
  -9  -5  29  203.89  208.91
   9   4 -29   -6.93   73.27
   9   4 -29   11.71  138.69
  -9  -4  29  475.65  213.29
   4   9 -29   15.24   78.33
   4   9 -29  -10.35  126.98
  -4  -9  29 -217.19  103.07
  -4  -9  29  214.87  180.50
   5   9 -29   10.77  143.48
   5   9 -29    7.78   79.91
  -5  -9  29    8.56  102.89
  -5  -9  29  190.37  178.49
   6   9 -29   -7.99   82.48
   6   9 -29   11.28  144.38
  -6  -9  29 -258.26  187.56
  -6  -9  29    8.75  107.23
   7   9 -29   11.86  142.83
  -7  -9  29   98.91  204.75
  10   6 -29 -114.86  163.92
  10   5 -29   12.37  143.46
  10   5 -29    7.21   74.82
 -10  -5  29  229.21  210.36
 -10  -5  29    7.93   95.98
  10   4 -29   -7.14   81.09
  10   4 -29   12.18  144.86
 -10  -4  29  185.46  232.22
  10   3 -29    7.32   73.62
 -10  -3  29 -441.75  212.27
   0  10 -29  -62.01   76.97
   0  10 -29   27.31  122.07
   0 -10  29  -14.53   77.64
   0 -10  29   46.84  153.59
   1  10 -29    9.40  119.99
   1  10 -29   57.04   73.90
  -1 -10  29   -7.74   87.20
  -1 -10  29    9.70  146.26
   2  10 -29    9.70  129.17
   2  10 -29   52.38   79.98
  -2 -10  29   -8.16   85.85
  -2 -10  29 -160.47  167.51
   3  10 -29    7.82   81.30
   3  10 -29   10.04  130.92
  -3 -10  29   62.19  182.49
  -3 -10  29  -16.84  100.16
   4  10 -29   10.41  129.91
   4  10 -29    8.12   85.52
  -4 -10  29 -235.01  103.05
  -4 -10  29  -10.74  186.76
   5  10 -29  -32.46  137.76
   5  10 -29  -25.20   86.03
  -5 -10  29  100.51  179.20
  -5 -10  29    8.96   98.22
   6  10 -29   11.31  131.53
  11   4 -29  -25.40  151.94
 -11  -4  29 -539.80  220.83
  11   3 -29   -7.52   82.00
   0  11 -29  109.92  113.57
   0  11 -29   93.93   68.30
   0 -11  29  -68.19   90.06
   0 -11  29    9.57  159.44
   1  11 -29    9.42  120.89
   1  11 -29   -7.68   74.72
  -1 -11  29   -9.87  161.57
  -1 -11  29  143.72   89.98
   2  11 -29    8.01   84.73
   2  11 -29   19.43  121.97
  -2 -11  29   16.85   98.66
  -2 -11  29   60.96  174.70
   3  11 -29   10.01  120.21
   3  11 -29   -8.43   84.52
  -3 -11  29    8.84  105.04
  -3 -11  29   10.47  166.70
   4  11 -29   10.35  129.64
   4  11 -29   -8.81   81.62
  -4 -11  29  -43.24  181.11
  -4 -11  29 -331.63  115.54
   0  12 -29   82.92  125.94
   0  12 -29    7.60   73.18
   0 -12  29   23.60   85.84
   0 -12  29  233.79  170.53
   1  12 -29  -40.31   78.81
   1  12 -29   -9.46  120.56
  -1 -12  29  -30.01  160.21
  -1 -12  29   -8.43   96.70
   2  12 -29   -8.54   80.89
   2  12 -29   38.90  136.01
  -2 -12  29   20.54  182.85
  -2 -12  29   26.66  101.09
   3  12 -29  -10.01  133.39
   1  13 -29    9.58  128.74
  -1 -13  29   41.06  157.82
  -1   3 -30   58.57   64.09
   0   3 -30    6.06   65.00
   1   3 -30   -6.23   67.07
   2   3 -30  -25.52   70.00
  -2  -3  30  -90.42  169.86
   3   3 -30    6.52   71.45
  -3  -3  30   58.30  168.30
   4   3 -30    6.65   72.35
  -4  -3  30  216.71  167.00
  -1   4 -30  -22.93   58.81
   1  -4  30  -69.35  151.38
   0   4 -30  -70.94   65.14
   0   4 -30  -26.97  118.78
   0  -4  30  -10.25  149.95
   1   4 -30   30.30   65.02
   1   4 -30  -27.90  119.91
  -1  -4  30   53.03  161.04
   2   4 -30  123.72   65.32
   2   4 -30 -327.21  121.06
  -2  -4  30 -109.77  161.23
   3   4 -30    6.31   64.44
   3   4 -30    9.96  115.41
  -3  -4  30   22.72  173.71
   4   4 -30   10.32  118.12
   4   4 -30    6.43   73.84
  -4  -4  30  -70.65  174.32
   5   4 -30  -32.07  125.01
   5   4 -30   19.68   72.62
  -5  -4  30  244.21  193.64
   5   3 -30   54.31   73.12
  -5  -3  30  -12.45  181.44
  -1   5 -30  -28.81   62.35
  -1   5 -30   16.99   99.41
   1  -5  30  -13.16   79.29
   1  -5  30 -133.41  148.11
   0   5 -30 -150.25  110.11
   0   5 -30  -11.96   61.44
   0  -5  30   49.57  151.53
   0  -5  30   47.08   82.04
   1   5 -30    6.15   72.91
   1   5 -30    9.19  117.46
  -1  -5  30   20.61  150.88
  -1  -5  30   34.14   84.10
   2   5 -30  156.95   72.48
   2   5 -30   28.75  115.89
  -2  -5  30   96.36  171.70
   3   5 -30    6.40   71.54
   3   5 -30   -9.94  114.71
  -3  -5  30   22.10  163.92
   4   5 -30    6.51   72.25
   4   5 -30  -61.91  128.25
  -4  -5  30  252.88  189.48
   5   5 -30   10.71  129.40
   5   5 -30   -6.63   75.18
  -5  -5  30   59.82  181.82
   6   4 -30    6.71   71.31
   6   4 -30   11.07  138.54
  -6  -4  30   12.70  190.63
   6   3 -30    6.95   68.53
  -6  -3  30   25.79  189.04
  -1   6 -30  -34.00  104.50
  -1   6 -30   53.30   64.36
   0   6 -30    6.18   66.78
   0   6 -30  -53.37  108.10
   0  -6  30 -391.70  150.52
   0  -6  30    7.06   80.40
   1   6 -30    9.34  119.74
   1   6 -30   89.27   68.34
  -1  -6  30    7.19   79.96
  -1  -6  30  225.03  167.80
   2   6 -30   58.32  122.21
   2   6 -30 -307.39   74.71
  -2  -6  30  -29.10   84.10
  -2  -6  30  275.04  171.58
   3   6 -30  202.10  128.20
   3   6 -30    6.54   73.92
  -3  -6  30 -286.75   88.74
  -3  -6  30 -143.36  183.61
   4   6 -30   33.30   77.69
   4   6 -30  -10.50  123.21
  -4  -6  30   45.92  186.05
  -4  -6  30   52.08   96.21
   7   6 -30  -14.45   79.25
   7   6 -30  -11.88  147.12
  -7  -6  30 -212.94   94.16
  -7  -6  30   39.72  221.79
  -1   7 -30   80.63   64.54
   0   7 -30    6.44   65.43
   0   7 -30    9.15  119.40
   0  -7  30 -189.45   85.97
   0  -7  30    9.83  160.61
   1   7 -30    6.72   72.38
   1   7 -30   -9.55  118.15
  -1  -7  30 -132.30  170.86
  -1  -7  30  -67.58   86.63
   2   7 -30    9.95  125.06
  -2  -7  30   10.62  173.24
  -2  -7  30    7.65   88.20
   6   7 -30  140.09  140.81
   6   7 -30    7.58   78.55
  -6  -7  30    8.13   96.14
  -6  -7  30   12.63  207.08
   7   7 -30    7.75   81.78
   7   7 -30   24.41  148.37
  -7  -7  30  -13.40  218.72
  -7  -7  30    8.30   88.70
   8   7 -30 -190.71  160.04
  -8  -7  30   14.14  235.04
   8   6 -30   12.34  155.98
  -8  -6  30   27.85  240.00
   8   5 -30   12.05  137.69
  -8  -5  30  110.19  217.86
   8   4 -30   11.95  153.63
  -8  -4  30  179.76  226.75
   4   8 -30  -10.96  140.66
   4   8 -30  -68.60   80.18
  -4  -8  30 -236.43  111.42
  -4  -8  30  -11.59  181.51
   5   8 -30   -7.81   82.41
   5   8 -30   11.41  140.02
  -5  -8  30 -193.66  206.88
  -5  -8  30 -145.99  101.25
   6   8 -30  -11.89  149.49
   6   8 -30   -7.99   82.81
  -6  -8  30 -411.12  199.29
  -6  -8  30   43.70  106.46
   7   8 -30   12.46  152.44
  -7  -8  30  -13.54  214.53
   9   5 -30    7.34   78.46
   9   5 -30   12.58  153.41
  -9  -5  30 -224.06   97.56
  -9  -5  30  144.88  217.27
   9   4 -30  -37.33  152.80
   9   4 -30    7.32   76.84
  -9  -4  30   14.48  219.30
   0   9 -30  148.39   70.80
   0   9 -30    9.60  112.82
   0  -9  30  -29.47  165.92
   0  -9  30    7.56   88.58
   1   9 -30    9.97  122.89
   1   9 -30   71.32   78.03
  -1  -9  30  163.70  178.10
  -1  -9  30  -87.40   95.71
   2   9 -30  -10.32  136.83
   2   9 -30   -7.47   80.98
  -2  -9  30  -82.90  103.19
  -2  -9  30   10.64  172.42
   3   9 -30    7.77   84.06
   3   9 -30   10.70  142.13
  -3  -9  30 -121.47  183.84
  -3  -9  30    8.55   95.15
   4   9 -30 -222.26  144.18
   4   9 -30   -7.95   84.01
  -4  -9  30 -201.74  106.91
  -4  -9  30   80.45  201.23
   5   9 -30   11.57  141.18
   5   9 -30   40.85   89.69
  -5  -9  30  171.99  208.51
  -5  -9  30 -385.69  111.00
   6   9 -30  -12.11  153.20
  10   4 -30   12.96  150.20
 -10  -4  30 -121.45  223.45
   0  10 -30   -9.70  121.61
   0  10 -30    7.30   74.34
   0 -10  30 -101.12  176.38
   0 -10  30   15.41   90.37
   1  10 -30  -30.14   83.53
  -1 -10  30   -8.20   98.72
  -1 -10  30 -514.82  191.77
   2  10 -30    7.91   83.28
   2  10 -30   10.37  139.60
  -2 -10  30    8.61  100.96
  -2 -10  30 -287.63  189.93
   3  10 -30 -557.43  140.81
   3  10 -30    8.25   93.86
  -3 -10  30  -79.80  106.35
  -3 -10  30   11.25  194.35
   4  10 -30   11.11  141.76
  -4 -10  30   35.00  202.01
  -4 -10  30   -9.15  103.63
   0  11 -30   -9.80  128.21
   0  11 -30   45.84   77.32
   0 -11  30  103.21   90.94
   0 -11  30 -164.11  172.41
   1  11 -30   65.04   89.91
   1  11 -30   10.09  128.88
  -1 -11  30    8.44   93.55
  -1 -11  30   95.41  180.07
   2  11 -30   -8.48   92.07
   2  11 -30  -10.40  131.61
  -2 -11  30    8.91   95.46
  -2 -11  30   76.51  181.60
   3  11 -30   32.25  136.77
  -3 -11  30 -349.32  189.18
   0  12 -30  128.21   79.93
   1  12 -30   20.21  124.96
  -1 -12  30  203.90  172.79
  -1 -12  30    8.85   95.71
  -1   3 -31   67.57   72.70
   0   3 -31  -63.62   71.06
   1   3 -31  196.68   74.29
   2   3 -31   47.07   74.10
   3   3 -31    6.88   81.52
   4   3 -31    7.04   75.99
  -1   4 -31   78.08   65.22
   0   4 -31   74.57   70.26
   1   4 -31   -9.87  126.50
   1   4 -31   -6.37   70.77
  -1  -4  31   78.87  177.18
   2   4 -31    6.52   69.30
   2   4 -31  -10.22  119.40
  -2  -4  31  116.76  173.07
   3   4 -31    6.65   77.46
   3   4 -31  -10.58  128.05
  -3  -4  31 -145.19  180.80
   4   4 -31   -6.79   78.37
   4   4 -31 -131.53  137.16
  -4  -4  31   12.54  189.74
  -1   5 -31  163.19   68.56
   0   5 -31   37.63   67.85
   0   5 -31    9.38  114.98
   0  -5  31   49.39   85.47
   0  -5  31 -253.42  164.61
   1   5 -31  -12.90   68.55
   1   5 -31    9.76  122.08
  -1  -5  31  -57.32   90.19
  -1  -5  31  274.54  170.03
   2   5 -31   10.14  119.43
   2   5 -31   -6.60   73.81
  -2  -5  31 -319.66  170.92
  -3  -5  31   59.34  184.92
   6   5 -31   -7.14   74.09
   6   5 -31 -307.06  142.94
  -6  -5  31   30.85   95.49
  -6  -5  31  147.46  208.18
   5   6 -31  -11.55  150.37
   5   6 -31 -285.11   87.95
  -5  -6  31  128.80  210.47
  -5  -6  31    7.93   94.37
   6   6 -31   12.02  152.25
   6   6 -31   -7.27   89.01
  -6  -6  31   26.94  214.46
  -6  -6  31  274.30   98.63
   7   6 -31  150.49  174.38
  -7  -6  31   14.12  221.63
  -7  -6  31    8.27  102.51
   7   5 -31  -21.93   82.36
   7   5 -31  -12.30  151.91
  -7  -5  31   14.02  214.09
  -7  -5  31 -197.65   85.49
   7   4 -31    7.29   76.00
   7   4 -31   12.23  149.36
  -7  -4  31  -14.10  206.99
   3   7 -31    7.48   73.88
   3   7 -31   10.92  131.08
  -3  -7  31 -369.88  196.18
  -3  -7  31    8.14  101.94
   4   7 -31 -102.30  132.32
   4   7 -31   22.93   80.45
  -4  -7  31   24.89  194.95
  -4  -7  31  148.46   94.18
   5   7 -31  165.60  142.81
   5   7 -31   -7.79   84.58
  -5  -7  31  100.38   98.24
  -5  -7  31 -130.05  210.31
   6   7 -31    7.95   81.36
   6   7 -31   12.33  163.45
  -6  -7  31 -708.15  228.86
  -6  -7  31   -8.50  102.74
   8   5 -31  -12.82  153.10
  -8  -5  31 -661.75  226.76
   8   4 -31   12.72  153.59
  -8  -4  31  -73.61  224.68
   0   8 -31  198.47  122.16
   0   8 -31  118.43   75.21
   0  -8  31   24.17   97.19
   0  -8  31  116.62  188.84
   1   8 -31  -29.13   78.16
   1   8 -31   20.73  129.58
  -1  -8  31 -108.62   95.88
  -1  -8  31  166.57  172.13
   2   8 -31   10.79  138.72
   2   8 -31   -7.57   86.56
  -2  -8  31 -289.46  186.21
  -2  -8  31 -153.87  103.02
   3   8 -31    7.81   83.97
   3   8 -31   11.22  138.44
  -3  -8  31  108.58  203.76
   4   8 -31   11.66  141.84
   4   8 -31   72.11   91.02
  -4  -8  31   12.57  203.55
  -4  -8  31  158.77  103.31
   5   8 -31   12.14  141.89
   5   8 -31    8.19   85.11
  -5  -8  31   26.26  215.48
  -5  -8  31   -8.96  107.51
   0   9 -31  -20.37  141.40
   0   9 -31   35.68   74.34
   0  -9  31   -8.00   97.29
   0  -9  31   64.51  174.11
   1   9 -31   10.62  128.83
   1   9 -31   90.43   75.66
  -1  -9  31  -50.35   95.64
  -1  -9  31 -324.82  194.67
   2   9 -31  -86.78   86.45
   2   9 -31   11.03  136.54
  -2  -9  31   17.45  100.44
  -2  -9  31   58.31  192.66
   3   9 -31  -40.55   93.04
   3   9 -31   11.44  149.24
  -3  -9  31 -233.75  111.64
  -3  -9  31   12.12  193.44
   4   9 -31  -11.87  143.55
  -4  -9  31   25.19  216.13
  -4  -9  31   27.60  112.70
   0  10 -31  114.07  141.84
   0  10 -31  -38.57   81.84
   1  10 -31  111.46   84.11
   1  10 -31 -461.19  142.71
  -1 -10  31  147.53   98.16
  -1 -10  31  -78.32  175.72
   2  10 -31    8.35   93.67
   2  10 -31  -11.10  134.58
  -2 -10  31  -27.01  103.67
  -2 -10  31  162.41  200.39
   3  10 -31   22.97  143.89
  -3 -10  31   74.65  110.32
  -3 -10  31   36.04  205.03
   1  11 -31   10.80  140.91
  -1 -11  31 -347.90  195.06
  -1 -11  31   17.84  100.93
  -1   3 -32  -44.37   69.41
   0   3 -32   53.42   72.15
   1   3 -32   89.65   81.94
   5   4 -32  -12.07  140.46
   5   4 -32   -7.34   79.55
  -5  -4  32   13.86  202.71
   3   5 -32  -21.24   74.66
   4   5 -32  -11.63  140.04
   4   5 -32    7.22   80.12
  -4  -5  32   -7.83   93.11
  -4  -5  32 -263.47  194.15
   5   5 -32   12.08  151.21
   5   5 -32   -7.37   78.04
  -5  -5  32    7.96   95.33
  -5  -5  32  192.09  209.74
   6   5 -32   -7.53   84.43
   6   5 -32  100.54  156.91
  -6  -5  32   28.62  230.85
  -6  -5  32 -284.56   94.88
   6   4 -32   12.52  155.74
   6   4 -32    7.53   83.72
  -6  -4  32  187.32  209.57
   0   6 -32   20.41   63.38
   0   6 -32   -9.93  131.21
   0  -6  32   11.16  180.84
   0  -6  32  -23.30   86.06
   1   6 -32  -10.42  130.34
   1   6 -32    7.03   75.85
  -1  -6  32   11.67  188.73
  -1  -6  32  158.29   94.85
   2   6 -32   10.86  138.43
   2   6 -32    7.20   79.97
  -2  -6  32   56.07  102.71
  -2  -6  32   12.11  192.14
   3   6 -32   67.88  155.73
   3   6 -32   57.67   81.84
  -3  -6  32 -277.90  209.86
  -3  -6  32  -24.28   95.85
   4   6 -32   -7.35   82.08
   4   6 -32 -258.97  139.07
  -4  -6  32   40.99   98.49
  -4  -6  32  -26.33  214.01
   5   6 -32    7.49   91.83
   5   6 -32   12.25  145.57
  -5  -6  32  -49.92  103.45
  -5  -6  32 -123.74  231.18
   6   6 -32  -12.77  163.03
  -6  -6  32   14.37  229.64
   7   5 -32   13.09  168.15
  -7  -5  32  104.74  244.15
   7   4 -32   -7.72   77.00
  -7  -4  32 -195.04  217.20
   0   7 -32   49.92   71.18
   0   7 -32   40.49  130.94
   0  -7  32  112.19  184.26
   0  -7  32  -32.20   88.54
   1   7 -32   42.65  144.62
   1   7 -32  -52.02   80.10
  -1  -7  32 -272.73   98.24
  -1  -7  32   23.55  186.17
   2   7 -32 -122.46  131.14
   2   7 -32    7.66   80.23
  -2  -7  32  -12.21  194.28
  -2  -7  32  -92.41   98.00
   3   7 -32 -115.97  142.74
   3   7 -32   -7.86   87.33
  -3  -7  32    8.52   93.72
  -3  -7  32   25.51  205.93
   4   7 -32  -12.07  156.40
   4   7 -32    8.02   83.79
  -4  -7  32   -8.64  103.71
  -4  -7  32 -186.14  213.59
   5   7 -32   12.57  149.95
  -5  -7  32   13.90  213.64
   0   8 -32   22.01   80.72
   0   8 -32   72.99  123.06
   0  -8  32   67.84  100.08
   0  -8  32  341.56  192.67
   1   8 -32   68.96   85.31
   1   8 -32   10.98  136.66
  -1  -8  32   11.95  200.44
  -1  -8  32   43.89  108.11
   2   8 -32   11.44  137.18
   2   8 -32  -23.87   86.77
  -2  -8  32 -222.65  210.29
  -2  -8  32   35.86  109.98
   3   8 -32    8.20   89.87
   3   8 -32   11.92  144.07
  -3  -8  32  193.23  207.82
  -3  -8  32 -209.39  108.79
   4   8 -32   12.39  154.99
  -4  -8  32 -349.26  215.05
   0   9 -32  105.47   76.81
   1   9 -32   11.24  133.43
   1   9 -32   15.90   84.50
  -1  -9  32    8.85  101.89
  -1  -9  32   96.87  206.89
   2   9 -32    8.31   87.79
   2   9 -32   11.68  141.58
  -2  -9  32    9.17  103.74
  -2  -9  32   12.63  215.60
   3   9 -32  -12.13  150.57
  -3  -9  32   12.97  206.99
  -3  -9  32    9.43   99.93
   1  10 -32    8.40   88.90
   1  10 -32   11.50  152.60
  -1 -10  32   85.65  196.19
  -1 -10  32    9.16  105.36
   2  10 -32   11.91  150.76
   0   4 -33  116.07   73.59
   1   4 -33   56.39   77.38
   2   4 -33    7.25   79.43
   3   4 -33 -111.41   81.26
  -3  -4  33  -13.64  206.08
   4   4 -33    7.60   79.17
  -4  -4  33   56.65  204.40
   5   4 -33  -15.57   79.03
  -5  -4  33   88.31  217.79
   0   5 -33   94.47  126.46
   0   5 -33 -116.88   74.17
   0  -5  33   11.98  175.14
   0  -5  33  -69.71   93.83
   1   5 -33   14.20   72.53
   1   5 -33   10.95  138.66
  -1  -5  33  112.63  196.55
  -1  -5  33   86.71   95.27
   2   5 -33    7.29   81.83
   2   5 -33   11.41  141.18
  -2  -5  33 -208.64  205.10
  -2  -5  33  -48.00   96.89
   3   5 -33  118.72  144.87
   3   5 -33   -7.45   76.35
  -3  -5  33   13.59  203.40
  -3  -5  33    8.12   96.99
   4   5 -33   12.34  154.79
   4   5 -33   -7.61   81.64
  -4  -5  33 -311.19  225.98
  -4  -5  33   16.49   96.06
   5   5 -33   25.66  146.02
   5   5 -33    7.78   83.15
  -5  -5  33 -162.17  220.64
  -5  -5  33    8.40   99.03
  -6  -4  33  -76.58  227.31
   0   6 -33  -35.65   77.02
   0   6 -33  -21.01  130.42
   0  -6  33   11.85  184.52
   0  -6  33 -211.45  100.08
   1   6 -33  -11.00  124.92
   1   6 -33   36.83   78.46
  -1  -6  33   -8.29   88.89
  -1  -6  33   99.27  198.52
   2   6 -33    7.56   81.71
   2   6 -33  -11.48  137.44
  -2  -6  33    8.40   92.55
  -2  -6  33  155.77  213.26
   3   6 -33   11.97  143.06
   3   6 -33   -7.73   76.80
  -3  -6  33   34.02  101.63
  -3  -6  33 -270.98  232.77
   4   6 -33   12.47  152.63
   4   6 -33   -7.73   90.51
  -4  -6  33  -14.13  214.39
  -4  -6  33   25.82   97.56
   0   7 -33    7.48   77.87
   1   7 -33  -11.21  134.35
   1   7 -33   54.52   89.76
  -1  -7  33 -425.20  200.49
  -1  -7  33    8.66   98.89
   2   7 -33  -11.73  142.52
   2   7 -33   -8.04   87.36
  -2  -7  33   78.60  211.19
  -2  -7  33   -8.80   99.16
   3   7 -33    8.24   89.66
   3   7 -33 -318.10  157.61
  -3  -7  33    8.93  106.08
  -3  -7  33   68.43  226.87
   4   7 -33  -12.75  158.21
  -4  -7  33  -71.39  233.22
   1   8 -33    8.05   85.13
   1   8 -33  196.30  136.40
  -1  -8  33   63.56  215.43
  -1  -8  33  110.49  109.95
   2   8 -33  -12.06  148.87
   2   8 -33 -100.25   83.05
  -2  -8  33    9.39  109.16
  -2  -8  33 -292.61  216.11
   3   8 -33   12.56  147.82
  -3  -8  33 -152.85  231.53
   1   9 -33   11.90  135.53
  -1  -9  33 -323.13  224.64
  -1  -9  33    9.30  109.93
   0   4 -34  107.14   76.30
   1   4 -34   81.45   78.92
   2   4 -34   91.58   84.18
   3   4 -34 -509.74  126.62
   0   5 -34  -14.37   76.80
   1   5 -34  141.32   78.83
  -1  -5  34  -13.25  195.74
  -1  -5  34    8.27  103.73
   2   5 -34 -191.45   83.19
   2   5 -34   12.10  145.84
  -2  -5  34    8.41  101.39
  -2  -5  34   69.26  202.77
   3   5 -34   -7.85   84.39
   3   5 -34  -12.60  155.97
  -3  -5  34  158.95  227.13
  -3  -5  34   -8.55  104.70
   4   5 -34  196.77  161.19
  -4  -5  34 -557.59  232.55
   1   6 -34   11.64  133.18
   1   6 -34  -54.00   84.31
  -1  -6  34 -226.01  218.10
  -1  -6  34   26.06  103.54
   2   6 -34    7.93   82.80
   2   6 -34   12.17  149.60
  -2  -6  34    8.81  100.64
  -2  -6  34   96.76  224.44
   3   6 -34   12.71  146.87
  -3  -6  34  -14.44  228.47
   1   7 -34   16.31   85.87
   1   7 -34   11.85  136.30
  -1  -7  34   40.13  219.90
  -1  -7  34 -163.19  109.72
   2   7 -34  -49.62  152.53
  -2  -7  34    9.22  101.80
  -2  -7  34   13.94  227.75
   1   8 -34   12.14  152.51
  -1  -8  34  449.32  214.94
  -1  -8  34    9.65  113.27
   0   4 -35   29.91   75.41
   1   5 -35   -7.79   86.07
  -1  -5  35   17.34  101.36
   2   5 -35   48.25   73.94
  -2  -5  35    8.84  106.53
  -2  -5  35   88.01  230.28
   1   6 -35   12.30  142.95
  -1  -6  35  197.56  222.53
  -1  -6  35    9.09  103.11
   1   7 -35 -649.42  173.91
  -1  -7  35 -170.45  242.54
   0   0   0    0.00    0.00
;
_shelx_hkl_checksum              45361
_shelx_fab_checksum              63733
_shelx_fab_file
;
    0    2    0   -137.96      0.00
    1    2    0    262.82      0.00
    1    3    0     -4.26      0.00
    2    3    0    183.13      0.00
    0    4    0     17.42      0.00
    1    4    0     64.61      0.00
    2    4    0     51.17      0.00
    3    4    0     12.57      0.00
    1    5    0    -39.42      0.00
    2    5    0     23.47      0.00
    3    5    0     12.31      0.00
    0    6    0     23.50      0.00
    1    6    0    -43.48      0.00
    2    6    0     55.31      0.00
    3    6    0     -8.16      0.00
    4    6    0    -28.76      0.00
    1    7    0      7.09      0.00
    2    7    0    -25.73      0.00
    3    7    0     66.90      0.00
    4    7    0     27.56      0.00
    0    8    0    -23.63      0.00
    4    8    0     21.50      0.00
    5    8    0    -14.35      0.00
    1    9    0      6.87      0.00
    2    9    0     14.17      0.00
    3    9    0     -0.02      0.00
    4    9    0     -0.96      0.00
    5    9    0     14.68      0.00
    0   10    0      9.50      0.00
    1   10    0    -10.20      0.00
    2   10    0    -11.86      0.00
    3   10    0      2.66      0.00
    4   10    0      0.55      0.00
    5   10    0     -5.09      0.00
    6   10    0     21.15      0.00
    1   11    0      3.43      0.00
    2   11    0    -11.86      0.00
    3   11    0      9.32      0.00
    6   11    0     18.84      0.00
    3   12    0     -0.76      0.00
    4   12    0     18.78      0.00
    5   12    0    -13.95      0.00
    6   12    0      1.02      0.00
    1   13    0     16.58      0.00
    2   13    0      3.19      0.00
    3   13    0      3.74      0.00
    4   13    0     26.18      0.00
    5   13    0    -39.57      0.00
    0   14    0      0.09      0.00
    1   14    0    -21.22      0.00
    2   14    0     25.49      0.00
    3   14    0      2.97      0.00
    6   14    0    -17.94      0.00
    7   14    0     19.35      0.00
    2   15    0     -5.58      0.00
    3   15    0     -0.45      0.00
    4   15    0     13.58      0.00
    5   15    0    -13.40      0.00
    6   15    0     10.97      0.00
    7   15    0     -8.11      0.00
    0   16    0     -2.79      0.00
    1   16    0      2.67      0.00
    2   16    0      2.46      0.00
    3   16    0     -0.88      0.00
    4   16    0     -5.70      0.00
    7   16    0      6.72      0.00
    3   17    0      2.60      0.00
    4   17    0      0.82      0.00
    5   17    0     -2.01      0.00
    6   17    0     -9.61      0.00
    7   17    0     -9.34      0.00
    0   18    0     -8.90      0.00
    1   18    0      4.01      0.00
    2   18    0      0.72      0.00
    3   18    0      3.95      0.00
    4   18    0    -16.53      0.00
    5   18    0     -5.65      0.00
    7   18    0     14.03      0.00
    3   19    0     -1.63      0.00
    4   19    0     -5.66      0.00
    5   19    0     -4.68      0.00
    6   19    0     -3.02      0.00
    7   19    0      2.77      0.00
    0   20    0      3.37      0.00
    1   20    0     -4.32      0.00
    2   20    0     -3.77      0.00
    3   20    0    -19.01      0.00
    4   20    0     21.00      0.00
    5   20    0     -0.67      0.00
    6   20    0    -11.75      0.00
    1    2    1     47.82      0.00
    0    3    1    -75.40      0.00
    1    3    1    142.33      0.00
    2    3    1     29.64      0.00
    1    4    1     14.94      0.00
    2    4    1     30.72      0.00
    3    4    1     22.67      0.00
    0    5    1      8.59      0.00
    1    5    1      2.01      0.00
    2    5    1     41.58      0.00
    3    5    1    -27.69      0.00
    1    6    1     10.20      0.00
    2    6    1    -42.07      0.00
    3    6    1     22.34      0.00
    4    6    1     32.13      0.00
    0    7    1    -14.15      0.00
    1    7    1    -13.68      0.00
    2    7    1      8.18      0.00
    3    7    1     16.53      0.00
    4    8    1     -1.15      0.00
    5    8    1     23.55      0.00
    0    9    1     11.18      0.00
    1    9    1      7.47      0.00
    2    9    1    -10.92      0.00
    3    9    1      1.72      0.00
    4    9    1     23.12      0.00
    5    9    1     -6.99      0.00
    1   10    1      6.29      0.00
    2   10    1      8.53      0.00
    3   10    1     -3.81      0.00
    4   10    1      8.18      0.00
    5   10    1      1.80      0.00
    0   11    1     -6.80      0.00
    1   11    1      1.23      0.00
    2   11    1    -11.50      0.00
    3   11    1     -5.25      0.00
    6   11    1      3.04      0.00
    3   12    1      9.88      0.00
    4   12    1      3.67      0.00
    5   12    1      9.17      0.00
    6   12    1     11.77      0.00
    0   13    1      7.82      0.00
    1   13    1      8.29      0.00
    2   13    1     -6.86      0.00
    3   13    1     -0.61      0.00
    4   13    1    -15.32      0.00
    5   13    1      8.72      0.00
    6   13    1     -2.23      0.00
    1   14    1     11.78      0.00
    2   14    1    -13.91      0.00
    3   14    1     -2.67      0.00
    6   14    1     -1.76      0.00
    7   14    1    -17.18      0.00
    2   15    1    -13.55      0.00
    3   15    1     -4.77      0.00
    4   15    1     -7.57      0.00
    5   15    1      2.66      0.00
    6   15    1     -5.40      0.00
    7   15    1    -12.02      0.00
    1   16    1     -9.94      0.00
    2   16    1     -2.41      0.00
    3   16    1      3.24      0.00
    4   16    1     -5.59      0.00
    7   16    1     23.00      0.00
    3   17    1     -5.22      0.00
    4   17    1    -13.82      0.00
    5   17    1      6.67      0.00
    6   17    1    -15.72      0.00
    7   17    1     -2.90      0.00
    1   18    1      7.88      0.00
    2   18    1     -7.38      0.00
    3   18    1      8.83      0.00
    4   18    1      0.08      0.00
    5   18    1      5.19      0.00
    7   18    1      7.39      0.00
    3   19    1      8.01      0.00
    4   19    1      2.61      0.00
    5   19    1     -6.34      0.00
    6   19    1     -8.36      0.00
    7   19    1     28.23      0.00
    1   20    1     -0.21      0.00
    2   20    1      4.45      0.00
    3   20    1      0.56      0.00
    4   20    1     10.79      0.00
    5   20    1     -6.19      0.00
    6   20    1    -14.16      0.00
    1    1    2   -576.93      0.00
    0    2    2      5.02      0.00
    1    2    2   -105.96      0.00
    2    2    2     40.16      0.00
    1    3    2      8.44      0.00
    2    3    2    -51.83      0.00
    3    3    2    -60.48      0.00
    0    4    2     17.73      0.00
    1    4    2     39.30      0.00
    2    4    2    -31.56      0.00
    3    4    2    -25.89      0.00
    1    5    2     -3.77      0.00
    2    5    2    -28.68      0.00
    3    5    2    -13.46      0.00
    0    6    2    -28.78      0.00
    1    6    2    -12.46      0.00
    2    6    2     33.61      0.00
    3    6    2     -9.89      0.00
    4    6    2     -5.67      0.00
    1    7    2    -47.36      0.00
    2    7    2      9.85      0.00
    3    7    2     15.79      0.00
    4    8    2      6.28      0.00
    5    8    2     -4.44      0.00
    1    9    2      2.88      0.00
    2    9    2     -4.32      0.00
    3    9    2     -8.81      0.00
    4    9    2      2.98      0.00
    5    9    2      8.04      0.00
    6    9    2      3.30      0.00
    0   10    2      3.01      0.00
    1   10    2      1.04      0.00
    2   10    2      4.14      0.00
    3   10    2     -3.07      0.00
    4   10    2     -6.80      0.00
    5   10    2      7.60      0.00
    1   11    2     -3.83      0.00
    2   11    2     -1.03      0.00
    3   11    2      1.63      0.00
    6   11    2     -8.66      0.00
    3   12    2     -4.18      0.00
    4   12    2      3.72      0.00
    5   12    2     21.36      0.00
    6   12    2     -5.26      0.00
    7   12    2     -1.84      0.00
    1   13    2     -6.46      0.00
    2   13    2      0.67      0.00
    3   13    2     -0.80      0.00
    4   13    2     22.96      0.00
    5   13    2     -6.94      0.00
    6   13    2      8.92      0.00
    0   14    2    -24.04      0.00
    1   14    2     23.97      0.00
    2   14    2      7.91      0.00
    3   14    2      5.45      0.00
    6   14    2     -9.83      0.00
    7   14    2      3.04      0.00
    1   15    2     -2.19      0.00
    2   15    2      7.59      0.00
    3   15    2     -0.89      0.00
    4   15    2      4.39      0.00
    5   15    2     -0.89      0.00
    6   15    2     -1.71      0.00
    7   15    2     22.36      0.00
    0   16    2     -1.76      0.00
    1   16    2    -10.14      0.00
    2   16    2     -7.36      0.00
    3   16    2     -2.21      0.00
    4   16    2    -10.03      0.00
    7   16    2    -10.34      0.00
    3   17    2     -3.24      0.00
    4   17    2      9.95      0.00
    5   17    2     14.45      0.00
    6   17    2     -0.18      0.00
    7   17    2     22.91      0.00
    0   18    2      0.56      0.00
    1   18    2      4.09      0.00
    2   18    2      5.76      0.00
    3   18    2     -8.52      0.00
    4   18    2     -2.24      0.00
    5   18    2      6.53      0.00
    7   18    2     -7.07      0.00
    3   19    2    -18.56      0.00
    4   19    2      6.81      0.00
    5   19    2      7.30      0.00
    6   19    2     -4.35      0.00
    7   19    2     22.87      0.00
    0   20    2      5.42      0.00
    1   20    2      2.69      0.00
    2   20    2      1.86      0.00
    3   20    2      1.65      0.00
    4   20    2      1.04      0.00
    5   20    2      0.38      0.00
    6   20    2     -5.99      0.00
    0    1    3    137.51      0.00
    1    2    3    -94.55      0.00
    0    3    3    111.24      0.00
    1    3    3    -94.18      0.00
    2    3    3    -14.30      0.00
    1    4    3    -40.47      0.00
    2    4    3    -39.04      0.00
    3    4    3    -28.62      0.00
    0    5    3     11.22      0.00
    1    5    3      2.79      0.00
    2    5    3    -81.28      0.00
    3    5    3    -11.90      0.00
    1    6    3      7.64      0.00
    2    6    3     16.23      0.00
    3    6    3     11.56      0.00
    4    6    3    -11.65      0.00
    5    6    3      8.64      0.00
    0    7    3      0.67      0.00
    1    7    3      8.32      0.00
    2    7    3     11.67      0.00
    3    7    3      1.81      0.00
    5    7    3    -17.80      0.00
    3    8    3     -4.89      0.00
    4    8    3     -3.53      0.00
    5    8    3     10.44      0.00
    6    8    3      3.60      0.00
    0    9    3      9.93      0.00
    1    9    3     -2.27      0.00
    2    9    3     10.91      0.00
    3    9    3     -6.64      0.00
    4    9    3     -4.80      0.00
    5    9    3      7.69      0.00
    6    9    3     12.50      0.00
    1   10    3      8.23      0.00
    2   10    3      5.37      0.00
    3   10    3     -3.12      0.00
    4   10    3     -4.10      0.00
    5   10    3      7.97      0.00
    0   11    3    -27.44      0.00
    1   11    3      3.27      0.00
    2   11    3      2.51      0.00
    3   11    3      3.32      0.00
    6   11    3     -3.60      0.00
    7   11    3      0.47      0.00
    2   12    3      1.31      0.00
    3   12    3      2.70      0.00
    4   12    3      6.53      0.00
    5   12    3      3.47      0.00
    6   12    3     -7.16      0.00
    7   12    3      0.34      0.00
    0   13    3    -15.48      0.00
    1   13    3    -10.76      0.00
    2   13    3     -0.64      0.00
    3   13    3     -9.39      0.00
    4   13    3     -5.04      0.00
    5   13    3     -1.65      0.00
    1   14    3    -14.79      0.00
    2   14    3     -7.65      0.00
    6   14    3     21.09      0.00
    7   14    3     -7.56      0.00
    0   15    3     -4.78      0.00
    1   15    3     -0.85      0.00
    2   15    3     -2.86      0.00
    3   15    3     15.17      0.00
    4   15    3    -12.73      0.00
    5   15    3     16.20      0.00
    6   15    3      6.35      0.00
    7   15    3      5.55      0.00
    1   16    3     -2.55      0.00
    2   16    3      1.50      0.00
    3   16    3      6.01      0.00
    4   16    3      0.39      0.00
    7   16    3      1.08      0.00
    8   16    3      6.68      0.00
    2   17    3    -10.62      0.00
    3   17    3      0.59      0.00
    4   17    3     12.91      0.00
    5   17    3      8.67      0.00
    6   17    3     -8.54      0.00
    7   17    3     27.23      0.00
    1   18    3     -5.94      0.00
    2   18    3      9.41      0.00
    3   18    3     14.60      0.00
    4   18    3     -9.56      0.00
    5   18    3      0.50      0.00
    7   18    3     13.42      0.00
    8   18    3     18.54      0.00
    3   19    3     -4.12      0.00
    4   19    3      0.70      0.00
    5   19    3     -3.96      0.00
    6   19    3      5.38      0.00
    7   19    3     13.81      0.00
    1   20    3      6.25      0.00
    2   20    3     -2.70      0.00
    3   20    3      4.77      0.00
    4   20    3     -0.85      0.00
    5   20    3      1.78      0.00
    6   20    3     -0.95      0.00
    7   20    3     15.07      0.00
    0    0    4     -6.06      0.00
    1    1    4     62.72      0.00
    0    2    4     77.76      0.00
    1    2    4     -5.15      0.00
    2    2    4      1.93      0.00
    1    3    4     44.89      0.00
    2    3    4     11.45      0.00
    3    3    4    -47.85      0.00
    0    4    4    -75.19      0.00
    1    4    4    -14.83      0.00
    2    4    4     13.69      0.00
    3    4    4     22.22      0.00
    4    4    4      1.08      0.00
    1    5    4    -59.29      0.00
    2    5    4    -33.62      0.00
    3    5    4     14.57      0.00
    4    5    4    -13.23      0.00
    5    5    4      5.07      0.00
    0    6    4     32.61      0.00
    1    6    4     12.53      0.00
    2    6    4    -17.26      0.00
    3    6    4     15.29      0.00
    4    6    4      5.93      0.00
    1    7    4     -3.14      0.00
    2    7    4     15.81      0.00
    3    7    4     -5.04      0.00
    5    7    4     -6.70      0.00
    6    7    4      3.90      0.00
    3    8    4      5.63      0.00
    4    8    4      3.86      0.00
    5    8    4      0.49      0.00
    6    8    4     -5.57      0.00
    1    9    4     11.19      0.00
    2    9    4    -17.22      0.00
    3    9    4      9.49      0.00
    4    9    4     -0.71      0.00
    5    9    4     -9.30      0.00
    6    9    4     16.45      0.00
    7    9    4     10.84      0.00
    0   10    4     -6.97      0.00
    1   10    4      9.50      0.00
    2   10    4     11.19      0.00
    3   10    4     -0.94      0.00
    4   10    4     -2.70      0.00
    5   10    4      3.96      0.00
    7   10    4     15.95      0.00
    1   11    4     -8.74      0.00
    2   11    4      2.81      0.00
    3   11    4     10.55      0.00
    5   11    4     -8.38      0.00
    6   11    4     -1.23      0.00
    7   11    4      6.39      0.00
    1   12    4      7.87      0.00
    2   12    4      0.30      0.00
    3   12    4      4.73      0.00
    4   12    4     -1.34      0.00
    5   12    4     -5.75      0.00
    6   12    4     -1.53      0.00
    7   12    4     -3.19      0.00
    1   13    4      7.08      0.00
    2   13    4      5.14      0.00
    3   13    4     -3.66      0.00
    4   13    4     -9.47      0.00
    5   13    4      5.78      0.00
    0   14    4     -3.04      0.00
    1   14    4      1.71      0.00
    2   14    4     -9.08      0.00
    6   14    4     -2.05      0.00
    7   14    4      5.36      0.00
    8   14    4     -9.82      0.00
    1   15    4      7.02      0.00
    2   15    4     -8.92      0.00
    3   15    4     -2.37      0.00
    4   15    4     11.96      0.00
    5   15    4      2.93      0.00
    6   15    4      2.94      0.00
    7   15    4    -10.97      0.00
    0   16    4     -1.50      0.00
    1   16    4      8.59      0.00
    2   16    4      9.29      0.00
    3   16    4      2.80      0.00
    4   16    4      3.67      0.00
    6   16    4    -10.03      0.00
    7   16    4     11.79      0.00
    8   16    4    -12.96      0.00
    2   17    4     -8.85      0.00
    3   17    4     -5.63      0.00
    4   17    4     -6.78      0.00
    5   17    4     -8.68      0.00
    6   17    4     -0.85      0.00
    7   17    4    -18.42      0.00
    0   18    4     -3.16      0.00
    1   18    4      3.21      0.00
    2   18    4      0.65      0.00
    3   18    4    -10.23      0.00
    4   18    4     -2.76      0.00
    7   18    4     -7.45      0.00
    2   19    4    -13.74      0.00
    3   19    4      0.09      0.00
    4   19    4     -3.14      0.00
    5   19    4     -8.31      0.00
    6   19    4     -2.32      0.00
    7   19    4     10.89      0.00
    0   20    4     -7.11      0.00
    1   20    4      0.21      0.00
    2   20    4      7.28      0.00
    3   20    4     -1.05      0.00
    4   20    4      5.51      0.00
    5   20    4     -3.85      0.00
    6   20    4    -20.00      0.00
    0    1    5    -55.52      0.00
    1    2    5     74.39      0.00
    0    3    5     53.79      0.00
    1    3    5    -57.96      0.00
    2    3    5     59.88      0.00
    1    4    5     11.85      0.00
    2    4    5     -1.57      0.00
    3    4    5    -47.46      0.00
    0    5    5    -10.18      0.00
    1    5    5      1.51      0.00
    2    5    5     40.92      0.00
    3    5    5    -11.68      0.00
    4    5    5      8.61      0.00
    1    6    5     19.34      0.00
    2    6    5     22.10      0.00
    3    6    5     -0.40      0.00
    4    6    5     -0.16      0.00
    0    7    5     14.52      0.00
    1    7    5     11.86      0.00
    2    7    5      9.75      0.00
    5    7    5      2.83      0.00
    6    7    5     -1.32      0.00
    2    8    5      2.11      0.00
    3    8    5     -3.37      0.00
    4    8    5     -7.88      0.00
    5    8    5     -1.83      0.00
    6    8    5     14.12      0.00
    7    8    5      0.04      0.00
    0    9    5     -3.40      0.00
    1    9    5      0.79      0.00
    2    9    5      6.83      0.00
    3    9    5    -17.41      0.00
    4    9    5      1.87      0.00
    5    9    5      1.90      0.00
    6    9    5     -8.30      0.00
    1   10    5    -11.18      0.00
    2   10    5      1.52      0.00
    3   10    5      4.81      0.00
    4   10    5      1.45      0.00
    5   10    5     -9.65      0.00
    7   10    5     -5.13      0.00
    0   11    5    -20.42      0.00
    1   11    5      2.79      0.00
    2   11    5      4.37      0.00
    5   11    5      6.53      0.00
    6   11    5     -1.76      0.00
    7   11    5     -7.16      0.00
    1   12    5      1.48      0.00
    2   12    5      3.57      0.00
    3   12    5     -2.41      0.00
    4   12    5     10.76      0.00
    5   12    5      1.02      0.00
    6   12    5     -7.44      0.00
    7   12    5    -11.45      0.00
    0   13    5      1.14      0.00
    1   13    5     -0.88      0.00
    2   13    5    -13.18      0.00
    3   13    5      1.73      0.00
    4   13    5      4.24      0.00
    5   13    5      0.35      0.00
    1   14    5      7.24      0.00
    5   14    5    -15.61      0.00
    6   14    5      1.73      0.00
    7   14    5     17.74      0.00
    8   14    5      0.37      0.00
    0   15    5      8.32      0.00
    1   15    5      3.55      0.00
    2   15    5    -10.43      0.00
    3   15    5      4.31      0.00
    4   15    5     -0.90      0.00
    5   15    5     16.96      0.00
    6   15    5      5.55      0.00
    1   16    5     -3.00      0.00
    2   16    5     -4.99      0.00
    3   16    5     -1.28      0.00
    4   16    5     -2.52      0.00
    6   16    5    -11.96      0.00
    7   16    5      8.16      0.00
    0   17    5      1.67      0.00
    1   17    5      3.34      0.00
    2   17    5      1.66      0.00
    3   17    5      2.87      0.00
    4   17    5     -1.38      0.00
    5   17    5     -0.53      0.00
    6   17    5      9.91      0.00
    1   18    5     -4.18      0.00
    2   18    5     -6.01      0.00
    3   18    5      1.29      0.00
    4   18    5     -1.39      0.00
    2   19    5     -0.49      0.00
    3   19    5     12.61      0.00
    4   19    5      3.17      0.00
    5   19    5     12.79      0.00
    6   19    5    -16.87      0.00
    1   20    5     -3.89      0.00
    2   20    5     -2.82      0.00
    3   20    5    -19.78      0.00
    4   20    5     20.53      0.00
    5   20    5      6.09      0.00
    0    0    6    -73.30      0.00
    1    1    6     21.05      0.00
    0    2    6    -54.88      0.00
    1    2    6    -34.82      0.00
    2    2    6    -24.44      0.00
    1    3    6     67.56      0.00
    2    3    6    -30.73      0.00
    3    3    6     53.76      0.00
    0    4    6     83.51      0.00
    1    4    6    -54.13      0.00
    2    4    6      6.28      0.00
    3    4    6     38.43      0.00
    4    4    6     54.65      0.00
    1    5    6     -3.09      0.00
    2    5    6    -16.78      0.00
    3    5    6     -8.58      0.00
    4    5    6    -13.23      0.00
    5    5    6     16.54      0.00
    0    6    6     27.73      0.00
    1    6    6      8.47      0.00
    2    6    6    -13.96      0.00
    3    6    6     20.37      0.00
    4    6    6     -4.21      0.00
    6    6    6      0.22      0.00
    1    7    6      1.05      0.00
    2    7    6      8.95      0.00
    4    7    6    -16.90      0.00
    5    7    6     -7.73      0.00
    6    7    6     -3.03      0.00
    7    7    6     -9.83      0.00
    0    8    6     -2.13      0.00
    1    8    6     -1.20      0.00
    2    8    6     -8.18      0.00
    3    8    6    -12.70      0.00
    4    8    6     -0.07      0.00
    5    8    6      0.31      0.00
    6    8    6    -11.05      0.00
    7    8    6      4.68      0.00
    1    9    6     -2.76      0.00
    2    9    6     -4.84      0.00
    3    9    6     13.78      0.00
    4    9    6     -6.30      0.00
    5    9    6     -1.78      0.00
    6    9    6     20.74      0.00
    0   10    6    -12.57      0.00
    1   10    6     -3.16      0.00
    2   10    6     -5.16      0.00
    3   10    6     13.27      0.00
    4   10    6      1.37      0.00
    7   10    6    -20.19      0.00
    8   10    6      0.83      0.00
    1   11    6     -7.84      0.00
    5   11    6      1.13      0.00
    6   11    6     -5.19      0.00
    7   11    6     -7.01      0.00
    8   11    6     10.80      0.00
    0   12    6     -1.47      0.00
    1   12    6     -6.60      0.00
    2   12    6     -1.18      0.00
    3   12    6     11.63      0.00
    4   12    6     -7.74      0.00
    5   12    6     -1.40      0.00
    6   12    6     15.71      0.00
    7   12    6      1.83      0.00
    1   13    6      0.70      0.00
    2   13    6    -14.39      0.00
    3   13    6     13.68      0.00
    4   13    6     -5.52      0.00
    5   13    6      9.18      0.00
    7   13    6    -20.71      0.00
    5   14    6     -8.22      0.00
    6   14    6     16.44      0.00
    7   14    6     -1.25      0.00
    1   15    6     14.95      0.00
    2   15    6     -6.05      0.00
    3   15    6      2.42      0.00
    4   15    6      4.90      0.00
    5   15    6     10.17      0.00
    6   15    6     -5.45      0.00
    0   16    6    -13.16      0.00
    1   16    6      4.92      0.00
    2   16    6      7.41      0.00
    3   16    6      3.79      0.00
    6   16    6      8.13      0.00
    1   17    6    -10.41      0.00
    2   17    6    -11.44      0.00
    3   17    6      0.44      0.00
    4   17    6      2.20      0.00
    5   17    6     -3.72      0.00
    6   17    6     -6.32      0.00
    0   18    6     -0.39      0.00
    1   18    6      2.86      0.00
    2   18    6     -5.28      0.00
    3   18    6      5.20      0.00
    4   18    6      5.81      0.00
    6   18    6     13.99      0.00
    1   19    6     -4.90      0.00
    2   19    6      4.90      0.00
    3   19    6     -6.72      0.00
    4   19    6     -2.56      0.00
    5   19    6     11.31      0.00
    6   19    6     11.79      0.00
    0   20    6     13.58      0.00
    1   20    6      8.07      0.00
    2   20    6      5.43      0.00
    3   20    6     15.31      0.00
    4   20    6      8.66      0.00
    0    1    7    -17.95      0.00
    1    2    7    -37.16      0.00
    0    3    7     17.45      0.00
    1    3    7     33.07      0.00
    2    3    7    -53.77      0.00
    1    4    7     33.60      0.00
    2    4    7      4.92      0.00
    3    4    7    -14.62      0.00
    0    5    7    -91.43      0.00
    1    5    7     19.42      0.00
    2    5    7     15.54      0.00
    3    5    7    -28.06      0.00
    4    5    7     -0.62      0.00
    1    6    7     -2.92      0.00
    2    6    7      0.72      0.00
    3    6    7     -5.59      0.00
    5    6    7     -1.20      0.00
    4    7    7    -10.34      0.00
    5    7    7      6.28      0.00
    6    7    7    -11.75      0.00
    1    8    7    -15.13      0.00
    2    8    7    -17.74      0.00
    3    8    7      2.30      0.00
    4    8    7    -14.40      0.00
    5    8    7      3.35      0.00
    6    8    7     -3.22      0.00
    7    8    7     -4.66      0.00
    0    9    7     -0.08      0.00
    1    9    7     -1.50      0.00
    2    9    7      2.55      0.00
    3    9    7      3.09      0.00
    4    9    7      3.54      0.00
    5    9    7      1.97      0.00
    6    9    7     -2.43      0.00
    8    9    7     -8.71      0.00
    1   10    7    -11.94      0.00
    2   10    7     14.63      0.00
    3   10    7      1.63      0.00
    4   10    7      1.88      0.00
    6   10    7      4.11      0.00
    7   10    7     -0.35      0.00
    8   10    7     -5.04      0.00
    4   11    7     -1.23      0.00
    5   11    7      2.73      0.00
    6   11    7     -8.75      0.00
    7   11    7      2.74      0.00
    8   11    7     -4.83      0.00
    1   12    7     -5.77      0.00
    2   12    7     -5.11      0.00
    3   12    7     -2.70      0.00
    4   12    7     -7.45      0.00
    5   12    7     -2.92      0.00
    6   12    7      6.13      0.00
    0   13    7     -9.27      0.00
    1   13    7     -0.41      0.00
    2   13    7      1.93      0.00
    3   13    7      7.77      0.00
    4   13    7     13.18      0.00
    7   13    7     19.12      0.00
    4   14    7      5.32      0.00
    5   14    7     -1.81      0.00
    6   14    7     -0.27      0.00
    7   14    7     -4.47      0.00
    0   15    7     10.27      0.00
    1   15    7     -1.93      0.00
    2   15    7     -7.74      0.00
    3   15    7     -3.53      0.00
    4   15    7      1.59      0.00
    5   15    7     -5.61      0.00
    6   15    7     -1.60      0.00
    1   16    7      9.08      0.00
    2   16    7     -3.49      0.00
    5   16    7     -5.31      0.00
    6   16    7    -29.78      0.00
    7   16    7     17.36      0.00
    0   17    7      3.90      0.00
    1   17    7     -9.28      0.00
    2   17    7      6.93      0.00
    3   17    7     -6.85      0.00
    4   17    7     -4.87      0.00
    5   17    7     20.07      0.00
    6   17    7      3.81      0.00
    1   18    7     -8.52      0.00
    2   18    7     -7.60      0.00
    3   18    7     -0.31      0.00
    6   18    7     -6.60      0.00
    0   19    7      9.91      0.00
    1   19    7     -2.97      0.00
    2   19    7      2.93      0.00
    3   19    7     -6.26      0.00
    4   19    7     15.68      0.00
    5   19    7      3.27      0.00
    6   19    7    -10.51      0.00
    1   20    7      5.07      0.00
    2   20    7      4.69      0.00
    3   20    7    -12.49      0.00
    0    0    8    -39.63      0.00
    1    1    8      0.05      0.00
    0    2    8     40.25      0.00
    1    2    8     47.42      0.00
    2    2    8     -1.46      0.00
    1    3    8    -34.44      0.00
    2    3    8    -44.15      0.00
    3    3    8    -92.24      0.00
    0    4    8   -132.33      0.00
    1    4    8    -10.20      0.00
    2    4    8     -1.55      0.00
    3    4    8    -10.93      0.00
    4    4    8    -40.78      0.00
    1    5    8    -27.71      0.00
    2    5    8     18.51      0.00
    3    5    8      2.55      0.00
    4    5    8      2.19      0.00
    0    6    8     -2.43      0.00
    1    6    8     -1.93      0.00
    2    6    8     24.95      0.00
    5    6    8    -11.18      0.00
    6    6    8     -7.01      0.00
    3    7    8    -12.80      0.00
    4    7    8     -8.49      0.00
    5    7    8     -5.90      0.00
    6    7    8     11.05      0.00
    7    7    8    -15.60      0.00
    0    8    8      3.23      0.00
    1    8    8    -17.70      0.00
    2    8    8     -0.62      0.00
    3    8    8    -21.15      0.00
    4    8    8      6.45      0.00
    5    8    8      1.33      0.00
    6    8    8     -2.82      0.00
    7    8    8      7.54      0.00
    1    9    8     -9.71      0.00
    2    9    8      4.17      0.00
    3    9    8      7.70      0.00
    4    9    8      0.57      0.00
    5    9    8      9.37      0.00
    7    9    8     -8.51      0.00
    8    9    8     14.31      0.00
    0   10    8      2.74      0.00
    1   10    8     10.94      0.00
    2   10    8     -1.32      0.00
    3   10    8      1.80      0.00
    6   10    8     -1.21      0.00
    7   10    8      1.51      0.00
    8   10    8    -13.59      0.00
    3   11    8      3.31      0.00
    4   11    8      2.07      0.00
    5   11    8     -4.46      0.00
    6   11    8      5.88      0.00
    7   11    8     -6.27      0.00
    8   11    8    -11.10      0.00
    0   12    8    -18.02      0.00
    1   12    8      0.34      0.00
    2   12    8      1.41      0.00
    3   12    8     -2.77      0.00
    4   12    8     -4.08      0.00
    5   12    8     -9.80      0.00
    6   12    8      4.30      0.00
    8   12    8     17.52      0.00
    1   13    8     -8.94      0.00
    2   13    8     -1.14      0.00
    3   13    8      0.17      0.00
    4   13    8     -1.81      0.00
    7   13    8     19.91      0.00
    4   14    8      1.92      0.00
    5   14    8      5.59      0.00
    6   14    8    -11.30      0.00
    7   14    8     18.99      0.00
    1   15    8      2.36      0.00
    2   15    8     -0.94      0.00
    3   15    8     -7.21      0.00
    4   15    8      2.01      0.00
    5   15    8     -4.17      0.00
    0   16    8      7.35      0.00
    1   16    8      3.04      0.00
    5   16    8      2.20      0.00
    6   16    8      1.53      0.00
    7   16    8      4.33      0.00
    1   17    8     -3.33      0.00
    2   17    8      1.98      0.00
    3   17    8     -1.34      0.00
    4   17    8     -4.07      0.00
    5   17    8     12.93      0.00
    6   17    8    -27.33      0.00
    0   18    8     11.92      0.00
    1   18    8      7.97      0.00
    2   18    8     10.80      0.00
    6   18    8     10.94      0.00
    7   18    8     39.98      0.00
    1   19    8     -5.54      0.00
    2   19    8     -5.78      0.00
    3   19    8      6.18      0.00
    4   19    8     16.89      0.00
    5   19    8     -7.35      0.00
    6   19    8     19.97      0.00
    0   20    8      4.25      0.00
    1   20    8     -4.63      0.00
    2   20    8     11.27      0.00
    0    1    9    -12.89      0.00
    1    2    9      3.92      0.00
    0    3    9     31.48      0.00
    1    3    9    -10.14      0.00
    2    3    9     -0.49      0.00
    1    4    9     26.21      0.00
    2    4    9      1.83      0.00
    3    4    9     13.43      0.00
    0    5    9    -47.41      0.00
    1    5    9     -2.46      0.00
    2    5    9     -7.98      0.00
    3    5    9      8.73      0.00
    1    6    9     -1.30      0.00
    4    6    9    -23.18      0.00
    5    6    9     -8.58      0.00
    1    7    9    -19.93      0.00
    2    7    9     -2.55      0.00
    3    7    9    -11.24      0.00
    4    7    9     -0.90      0.00
    5    7    9     10.81      0.00
    6    7    9      2.27      0.00
    1    8    9     -8.30      0.00
    2    8    9    -19.51      0.00
    3    8    9     -1.49      0.00
    4    8    9      4.81      0.00
    5    8    9     13.08      0.00
    6    8    9     12.61      0.00
    0    9    9      8.89      0.00
    1    9    9     -2.02      0.00
    2    9    9      2.85      0.00
    3    9    9     14.87      0.00
    4    9    9      3.32      0.00
    5    9    9      0.53      0.00
    7    9    9     -5.39      0.00
    8    9    9     -2.08      0.00
    1   10    9     -2.04      0.00
    2   10    9      9.59      0.00
    3   10    9      0.08      0.00
    5   10    9     -0.05      0.00
    6   10    9     10.49      0.00
    7   10    9     -3.51      0.00
    8   10    9     -1.73      0.00
    2   11    9     -7.20      0.00
    3   11    9      5.62      0.00
    4   11    9      2.91      0.00
    5   11    9      0.85      0.00
    6   11    9     -4.54      0.00
    7   11    9     -2.16      0.00
    1   12    9    -14.12      0.00
    2   12    9      5.04      0.00
    3   12    9     -4.77      0.00
    4   12    9    -12.35      0.00
    5   12    9      4.34      0.00
    6   12    9     -1.70      0.00
    9   12    9    -18.93      0.00
    0   13    9      0.22      0.00
    1   13    9      4.71      0.00
    2   13    9      4.95      0.00
    3   13    9     10.60      0.00
    6   13    9      1.63      0.00
    7   13    9    -15.50      0.00
    3   14    9     -0.06      0.00
    4   14    9      9.09      0.00
    5   14    9     -0.94      0.00
    6   14    9      2.81      0.00
    7   14    9     -1.71      0.00
    0   15    9      5.69      0.00
    1   15    9      1.32      0.00
    2   15    9      8.15      0.00
    3   15    9    -10.75      0.00
    4   15    9     -5.52      0.00
    5   15    9      6.87      0.00
    7   15    9     11.16      0.00
    4   16    9      8.12      0.00
    5   16    9     10.30      0.00
    6   16    9     -6.18      0.00
    7   16    9     11.95      0.00
    0   17    9     -7.83      0.00
    1   17    9      3.19      0.00
    2   17    9     -7.49      0.00
    3   17    9     10.91      0.00
    4   17    9     -5.48      0.00
    5   17    9     -1.77      0.00
    6   17    9     -8.58      0.00
    1   18    9      2.21      0.00
    5   18    9     -3.96      0.00
    6   18    9     -0.76      0.00
    7   18    9    -16.34      0.00
    0   19    9     -7.46      0.00
    1   19    9     -7.45      0.00
    2   19    9      0.40      0.00
    3   19    9      6.89      0.00
    4   19    9      8.37      0.00
    5   19    9      2.62      0.00
    1   20    9     -1.88      0.00
    2   20    9     43.49      0.00
    1    1   10    -51.54      0.00
    1    2   10      6.65      0.00
    2    2   10    -24.71      0.00
    1    3   10    -11.74      0.00
    2    3   10     -9.93      0.00
    3    3   10     -7.21      0.00
    0    4   10     18.56      0.00
    1    4   10      2.82      0.00
    2    4   10     26.61      0.00
    3    4   10      7.02      0.00
    1    5   10     13.53      0.00
    2    5   10     -0.18      0.00
    5    5   10     -0.52      0.00
    3    6   10    -31.44      0.00
    4    6   10     -5.92      0.00
    5    6   10     -0.65      0.00
    6    6   10    -27.29      0.00
    1    7   10      1.07      0.00
    2    7   10     -7.18      0.00
    3    7   10    -11.92      0.00
    4    7   10     -4.97      0.00
    5    7   10     12.14      0.00
    6    7   10      8.60      0.00
    7    7   10      1.68      0.00
    0    8   10    -21.87      0.00
    1    8   10     -9.28      0.00
    2    8   10     -1.41      0.00
    3    8   10      7.74      0.00
    4    8   10      3.20      0.00
    5    8   10      8.95      0.00
    6    8   10      8.89      0.00
    8    8   10     -1.76      0.00
    1    9   10     -7.43      0.00
    2    9   10     11.32      0.00
    3    9   10      3.54      0.00
    4    9   10     12.44      0.00
    7    9   10      7.40      0.00
    8    9   10    -11.27      0.00
    9    9   10     18.12      0.00
    0   10   10      1.87      0.00
    1   10   10     -3.46      0.00
    5   10   10      1.99      0.00
    6   10   10     -8.26      0.00
    7   10   10      3.95      0.00
    8   10   10     23.02      0.00
    1   11   10     -4.52      0.00
    2   11   10     -1.51      0.00
    3   11   10      1.29      0.00
    4   11   10      5.57      0.00
    5   11   10      2.11      0.00
    6   11   10    -14.73      0.00
    7   11   10      0.45      0.00
    9   11   10    -27.20      0.00
    0   12   10      9.23      0.00
    1   12   10     14.58      0.00
    2   12   10     -2.35      0.00
    3   12   10     -2.96      0.00
    4   12   10     -2.16      0.00
    5   12   10     -5.59      0.00
    8   12   10      2.23      0.00
    9   12   10    -11.77      0.00
    1   13   10     -0.53      0.00
    2   13   10     -8.41      0.00
    6   13   10     -6.25      0.00
    7   13   10      7.35      0.00
    8   13   10     -9.39      0.00
    0   14   10      0.12      0.00
    1   14   10     10.43      0.00
    2   14   10     12.46      0.00
    3   14   10      3.23      0.00
    4   14   10      0.46      0.00
    5   14   10      3.32      0.00
    6   14   10    -21.03      0.00
    7   14   10      8.04      0.00
    1   15   10     -8.48      0.00
    2   15   10     18.63      0.00
    3   15   10     -7.22      0.00
    4   15   10     -7.87      0.00
    7   15   10    -16.81      0.00
    8   15   10      5.74      0.00
    3   16   10     -6.92      0.00
    4   16   10     -9.75      0.00
    5   16   10      7.89      0.00
    6   16   10      4.38      0.00
    7   16   10      9.79      0.00
    1   17   10      1.81      0.00
    2   17   10     15.80      0.00
    3   17   10     -6.00      0.00
    4   17   10      7.39      0.00
    5   17   10     -0.74      0.00
    7   17   10      6.41      0.00
    4   18   10    -16.80      0.00
    5   18   10     -1.56      0.00
    6   18   10     -9.60      0.00
    7   18   10      1.30      0.00
    1   19   10    -10.75      0.00
    2   19   10      6.67      0.00
    3   19   10      8.85      0.00
    4   19   10     -0.74      0.00
    5   19   10      0.66      0.00
    1   20   10      3.86      0.00
    0    1   11     16.56      0.00
    1    2   11     48.51      0.00
    0    3   11    -25.58      0.00
    1    3   11      0.56      0.00
    2    3   11      1.26      0.00
    1    4   11    -14.06      0.00
    2    4   11      5.97      0.00
    3    4   11     -3.43      0.00
    4    5   11     -7.94      0.00
    1    6   11      7.23      0.00
    2    6   11    -17.66      0.00
    3    6   11     -9.90      0.00
    4    6   11    -11.20      0.00
    5    6   11    -14.21      0.00
    0    7   11     -9.88      0.00
    1    7   11     -9.62      0.00
    2    7   11     -9.79      0.00
    3    7   11     -4.45      0.00
    4    7   11     10.36      0.00
    5    7   11     -2.14      0.00
    6    7   11      3.23      0.00
    1    8   11      6.31      0.00
    2    8   11      7.89      0.00
    3    8   11      4.93      0.00
    4    8   11     19.26      0.00
    5    8   11     13.97      0.00
    7    8   11     -6.01      0.00
    0    9   11    -14.16      0.00
    1    9   11      6.59      0.00
    2    9   11      4.01      0.00
    3    9   11      6.62      0.00
    6    9   11      1.41      0.00
    7    9   11     10.91      0.00
    8    9   11     -9.82      0.00
    4   10   11      1.81      0.00
    5   10   11     -6.71      0.00
    6   10   11     -5.88      0.00
    7   10   11     -5.80      0.00
    8   10   11    -20.50      0.00
    0   11   11      1.25      0.00
    1   11   11      4.45      0.00
    2   11   11     -1.68      0.00
    3   11   11     -1.19      0.00
    4   11   11      9.39      0.00
    5   11   11      2.42      0.00
    6   11   11     -8.12      0.00
    9   11   11      7.17      0.00
   10   11   11    -14.11      0.00
    1   12   11      6.31      0.00
    2   12   11     -2.35      0.00
    3   12   11     -6.66      0.00
    4   12   11    -11.05      0.00
    7   12   11      5.06      0.00
    8   12   11      7.68      0.00
    9   12   11     13.88      0.00
    5   13   11      6.66      0.00
    6   13   11     -6.42      0.00
    7   13   11     -6.73      0.00
    8   13   11     -5.92      0.00
   10   13   11    -14.85      0.00
    1   14   11    -17.99      0.00
    2   14   11    -19.64      0.00
    3   14   11     -5.48      0.00
    4   14   11    -16.30      0.00
    5   14   11     -1.25      0.00
    6   14   11     -3.30      0.00
    8   14   11      0.78      0.00
    0   15   11      6.75      0.00
    1   15   11      6.07      0.00
    2   15   11    -11.71      0.00
    3   15   11     -4.70      0.00
    4   15   11    -11.84      0.00
    6   15   11      9.05      0.00
    7   15   11      1.45      0.00
    8   15   11      6.64      0.00
    1   16   11      7.06      0.00
    2   16   11     -7.39      0.00
    3   16   11    -13.73      0.00
    4   16   11     11.24      0.00
    5   16   11      5.64      0.00
    6   16   11    -12.65      0.00
    7   16   11    -25.62      0.00
    0   17   11     -9.76      0.00
    1   17   11     18.58      0.00
    2   17   11     -3.54      0.00
    3   17   11    -11.57      0.00
    4   17   11     -2.78      0.00
    7   17   11     -0.66      0.00
    8   17   11      2.02      0.00
    3   18   11     -0.07      0.00
    4   18   11      6.43      0.00
    5   18   11     19.11      0.00
    6   18   11     -1.54      0.00
    7   18   11     -4.53      0.00
    0   19   11      3.90      0.00
    1   19   11    -10.29      0.00
    2   19   11    -10.28      0.00
    3   19   11      8.72      0.00
    4   19   11    -29.35      0.00
    5   19   11     -2.14      0.00
    0    0   12     36.10      0.00
    1    1   12      2.43      0.00
    0    2   12      3.46      0.00
    1    2   12      3.26      0.00
    2    2   12     15.47      0.00
    1    3   12    -14.25      0.00
    2    3   12     14.70      0.00
    0    4   12    -17.03      0.00
    1    4   12      9.34      0.00
    4    4   12     -2.05      0.00
    2    5   12     -5.58      0.00
    3    5   12     -0.99      0.00
    4    5   12     -1.29      0.00
    5    5   12      1.66      0.00
    0    6   12      9.35      0.00
    1    6   12      4.51      0.00
    2    6   12      0.28      0.00
    3    6   12    -12.62      0.00
    4    6   12     -3.66      0.00
    5    6   12     -0.68      0.00
    6    6   12     -6.29      0.00
    1    7   12     -8.00      0.00
    2    7   12    -11.78      0.00
    3    7   12     -3.04      0.00
    4    7   12      3.84      0.00
    5    7   12     -5.01      0.00
    6    7   12      4.76      0.00
    0    8   12     -0.19      0.00
    1    8   12     -2.86      0.00
    2    8   12      3.43      0.00
    3    8   12      3.98      0.00
    4    8   12     11.47      0.00
    5    8   12      4.45      0.00
    7    8   12     14.24      0.00
    8    8   12     -9.31      0.00
    1    9   12     11.00      0.00
    2    9   12     -1.91      0.00
    5    9   12     -0.39      0.00
    6    9   12     -5.71      0.00
    7    9   12     -0.23      0.00
    8    9   12     -2.87      0.00
    2   10   12      1.35      0.00
    3   10   12      0.74      0.00
    4   10   12     -1.71      0.00
    5   10   12      4.58      0.00
    6   10   12      4.92      0.00
    7   10   12     -9.84      0.00
    9   10   12      4.07      0.00
   10   10   12      1.57      0.00
    1   11   12     -2.50      0.00
    2   11   12      6.50      0.00
    3   11   12     -3.77      0.00
    4   11   12      1.24      0.00
    5   11   12     -0.61      0.00
    6   11   12      0.42      0.00
    8   11   12     25.10      0.00
    9   11   12     -5.78      0.00
   10   11   12     -1.82      0.00
    0   12   12     11.02      0.00
    1   12   12      8.70      0.00
    2   12   12      8.49      0.00
    3   12   12      3.29      0.00
    7   12   12     -9.57      0.00
    8   12   12     -5.49      0.00
    9   12   12      1.18      0.00
    4   13   12      5.77      0.00
    5   13   12      1.07      0.00
    6   13   12     -8.56      0.00
    7   13   12      5.09      0.00
    9   13   12     -3.10      0.00
   10   13   12      4.36      0.00
    0   14   12     -3.54      0.00
    1   14   12      5.49      0.00
    2   14   12      8.59      0.00
    3   14   12     -7.93      0.00
    4   14   12      4.93      0.00
    5   14   12     -9.34      0.00
    6   14   12     -1.20      0.00
    8   14   12     20.08      0.00
    1   15   12    -19.75      0.00
    2   15   12     -4.91      0.00
    5   15   12      0.73      0.00
    6   15   12     -6.50      0.00
    7   15   12     13.88      0.00
    8   15   12      2.93      0.00
    0   16   12     -5.11      0.00
    1   16   12    -12.76      0.00
    2   16   12     -2.54      0.00
    3   16   12     -1.52      0.00
    4   16   12      7.54      0.00
    5   16   12      4.24      0.00
    6   16   12     19.09      0.00
    1   17   12      9.93      0.00
    2   17   12    -10.86      0.00
    3   17   12     18.09      0.00
    6   17   12     -1.46      0.00
    7   17   12     -8.30      0.00
    8   17   12     -4.23      0.00
    0   18   12     10.77      0.00
    1   18   12     -9.39      0.00
    2   18   12    -13.97      0.00
    3   18   12    -13.45      0.00
    4   18   12     -6.36      0.00
    5   18   12     -3.08      0.00
    6   18   12     -8.58      0.00
    7   18   12     -3.58      0.00
    8   18   12     -7.11      0.00
    1   19   12     16.81      0.00
    2   19   12      3.60      0.00
    3   19   12     -0.45      0.00
    4   19   12     15.30      0.00
    0    1   13      6.09      0.00
    1    2   13     -3.99      0.00
    0    3   13    -16.15      0.00
    3    4   13      1.25      0.00
    0    5   13     22.88      0.00
    1    5   13      1.80      0.00
    2    5   13      6.26      0.00
    3    5   13     14.82      0.00
    4    5   13     -6.31      0.00
    1    6   13     -7.60      0.00
    2    6   13     -5.43      0.00
    3    6   13      0.13      0.00
    4    6   13     -2.91      0.00
    5    6   13     -4.38      0.00
    0    7   13      9.82      0.00
    1    7   13     -1.87      0.00
    2    7   13      2.36      0.00
    3    7   13      1.08      0.00
    4    7   13      0.85      0.00
    5    7   13     -1.01      0.00
    1    8   13      3.11      0.00
    2    8   13      1.73      0.00
    3    8   13      3.41      0.00
    4    8   13     -2.35      0.00
    6    8   13      9.01      0.00
    7    8   13      2.40      0.00
    4    9   13     -2.23      0.00
    5    9   13     -0.87      0.00
    6    9   13     -7.59      0.00
    7    9   13     -2.70      0.00
    8    9   13     -7.40      0.00
    1   10   13     -9.98      0.00
    2   10   13      9.31      0.00
    3   10   13      5.41      0.00
    4   10   13      2.37      0.00
    5   10   13      1.57      0.00
    6   10   13      3.48      0.00
    7   10   13      0.29      0.00
    9   10   13      0.93      0.00
    0   11   13     12.78      0.00
    1   11   13      1.77      0.00
    2   11   13     -9.35      0.00
    3   11   13     -0.30      0.00
    4   11   13    -11.26      0.00
    5   11   13     -7.78      0.00
    8   11   13     -9.91      0.00
    9   11   13      5.41      0.00
   10   11   13    -12.18      0.00
    1   12   13      5.29      0.00
    2   12   13    -10.63      0.00
    6   12   13     13.86      0.00
    7   12   13     14.82      0.00
    8   12   13     -1.46      0.00
    9   12   13     -6.64      0.00
   10   12   13    -12.25      0.00
    2   13   13     18.53      0.00
    3   13   13    -15.52      0.00
    4   13   13      9.63      0.00
    5   13   13      0.99      0.00
    6   13   13     -2.76      0.00
    7   13   13      0.82      0.00
    9   13   13     -4.15      0.00
   10   13   13      5.88      0.00
    1   14   13      8.53      0.00
    2   14   13     -1.35      0.00
    3   14   13    -18.24      0.00
    4   14   13     14.27      0.00
    5   14   13      3.91      0.00
    7   14   13    -11.76      0.00
    8   14   13     14.86      0.00
    0   15   13    -22.61      0.00
    4   15   13    -19.09      0.00
    5   15   13      5.23      0.00
    6   15   13     -3.06      0.00
    7   15   13     14.42      0.00
    8   15   13     31.51      0.00
    1   16   13      9.64      0.00
    2   16   13    -10.65      0.00
    3   16   13     -0.43      0.00
    4   16   13      3.02      0.00
    5   16   13      7.87      0.00
    6   16   13      9.71      0.00
    8   16   13    -19.88      0.00
    0   17   13     -2.96      0.00
    1   17   13     -1.33      0.00
    2   17   13     -8.29      0.00
    6   17   13     -8.92      0.00
    7   17   13     -8.50      0.00
    8   17   13     -7.66      0.00
    1   18   13      5.48      0.00
    2   18   13      4.40      0.00
    3   18   13      3.52      0.00
    4   18   13      0.67      0.00
    5   18   13      8.48      0.00
    6   18   13     -6.46      0.00
    7   18   13      3.82      0.00
    8   18   13     19.91      0.00
    0   19   13     16.14      0.00
    1   19   13     13.02      0.00
    2   19   13      2.02      0.00
    3   19   13    -12.22      0.00
    2    3   14     -4.99      0.00
    3    3   14     -2.36      0.00
    0    4   14     -4.87      0.00
    1    4   14     -4.04      0.00
    2    4   14    -11.46      0.00
    3    4   14     -6.34      0.00
    4    4   14      3.37      0.00
    1    5   14      8.11      0.00
    2    5   14     -3.83      0.00
    3    5   14     -4.60      0.00
    4    5   14      0.65      0.00
    5    5   14     -0.32      0.00
    0    6   14     -9.59      0.00
    1    6   14      3.61      0.00
    2    6   14     -7.44      0.00
    3    6   14     -9.62      0.00
    4    6   14     -3.40      0.00
    5    6   14      2.03      0.00
    1    7   14     -2.36      0.00
    2    7   14     -8.02      0.00
    3    7   14     -0.79      0.00
    4    7   14     -2.89      0.00
    7    7   14      2.60      0.00
    0    8   14     14.20      0.00
    1    8   14     -1.27      0.00
    2    8   14      3.77      0.00
    5    8   14     -7.68      0.00
    6    8   14     -3.34      0.00
    7    8   14     11.27      0.00
    3    9   14      2.40      0.00
    4    9   14      9.00      0.00
    5    9   14     -3.97      0.00
    6    9   14     10.06      0.00
    7    9   14     -5.45      0.00
    9    9   14     17.91      0.00
    0   10   14     -4.74      0.00
    1   10   14     -3.35      0.00
    2   10   14      2.78      0.00
    3   10   14      1.73      0.00
    4   10   14     -5.36      0.00
    5   10   14      3.40      0.00
    6   10   14      1.79      0.00
    8   10   14     -1.58      0.00
    9   10   14     -3.64      0.00
   10   10   14      7.22      0.00
    1   11   14     -4.94      0.00
    2   11   14     -8.65      0.00
    3   11   14    -14.13      0.00
    4   11   14      6.70      0.00
    7   11   14    -10.14      0.00
    8   11   14     -4.33      0.00
    9   11   14     -8.07      0.00
    5   12   14      4.04      0.00
    6   12   14     -9.88      0.00
    7   12   14     -2.56      0.00
    8   12   14      7.78      0.00
   10   12   14     -7.22      0.00
   11   12   14    -16.22      0.00
    1   13   14    -11.85      0.00
    2   13   14      2.50      0.00
    3   13   14    -10.50      0.00
    4   13   14     13.82      0.00
    5   13   14     -4.22      0.00
    6   13   14      5.15      0.00
    8   13   14      3.79      0.00
    9   13   14     -3.84      0.00
   10   13   14    -22.67      0.00
    0   14   14     -4.10      0.00
    1   14   14      6.68      0.00
    2   14   14     -2.50      0.00
    3   14   14    -12.89      0.00
    4   14   14      1.07      0.00
    6   14   14     -0.10      0.00
    7   14   14     -0.50      0.00
    8   14   14     -4.33      0.00
    3   15   14      0.20      0.00
    4   15   14    -22.21      0.00
    5   15   14     -9.32      0.00
    6   15   14     12.17      0.00
    7   15   14     -3.29      0.00
    0   16   14      9.22      0.00
    1   16   14      5.77      0.00
    2   16   14    -15.56      0.00
    3   16   14      2.73      0.00
    4   16   14    -15.22      0.00
    5   16   14      1.98      0.00
    8   16   14     21.58      0.00
    5   17   14    -10.81      0.00
    6   17   14     -0.18      0.00
    7   17   14     -4.89      0.00
    8   17   14     39.79      0.00
    0   18   14     -5.96      0.00
    1   18   14     13.96      0.00
    2   18   14     -7.39      0.00
    3   18   14     -3.55      0.00
    4   18   14     -2.52      0.00
    5   18   14     -2.99      0.00
    6   18   14     -5.03      0.00
    7   18   14      1.31      0.00
    8   18   14      5.92      0.00
    1    2   15     11.59      0.00
    0    3   15      1.48      0.00
    1    3   15    -16.82      0.00
    2    3   15     -3.10      0.00
    1    4   15      7.32      0.00
    2    4   15     -7.24      0.00
    3    4   15     -6.22      0.00
    0    5   15      5.74      0.00
    1    5   15     -3.63      0.00
    2    5   15     -6.42      0.00
    3    5   15     -5.53      0.00
    4    5   15      8.15      0.00
    1    6   15    -10.44      0.00
    2    6   15      4.93      0.00
    3    6   15     -1.81      0.00
    4    6   15     -4.09      0.00
    5    6   15      5.35      0.00
    0    7   15      4.40      0.00
    1    7   15      1.00      0.00
    2    7   15      9.52      0.00
    3    7   15     -7.08      0.00
    6    7   15     -1.55      0.00
    4    8   15     -2.89      0.00
    5    8   15     11.61      0.00
    6    8   15     10.07      0.00
    0    9   15     10.49      0.00
    1    9   15     -5.60      0.00
    2    9   15      8.93      0.00
    3    9   15     -0.10      0.00
    4    9   15      4.38      0.00
    5    9   15     -1.17      0.00
    6    9   15    -10.98      0.00
    7    9   15     -5.96      0.00
    1   10   15     13.70      0.00
    2   10   15      4.59      0.00
    3   10   15     17.36      0.00
    4   10   15     -1.50      0.00
    5   10   15      1.64      0.00
    8   10   15     -8.58      0.00
    9   10   15      5.05      0.00
    0   11   15    -14.56      0.00
    1   11   15      6.14      0.00
    2   11   15     17.01      0.00
    3   11   15      7.90      0.00
    6   11   15      8.76      0.00
    7   11   15      0.88      0.00
    8   11   15     -2.00      0.00
    9   11   15      2.34      0.00
   10   11   15      9.19      0.00
    4   12   15     -2.41      0.00
    5   12   15    -10.93      0.00
    6   12   15      2.31      0.00
    7   12   15     -9.80      0.00
    9   12   15     -9.22      0.00
   10   12   15     -6.74      0.00
   11   12   15    -21.38      0.00
    0   13   15     -7.31      0.00
    1   13   15      1.71      0.00
    2   13   15     12.43      0.00
    3   13   15      1.29      0.00
    4   13   15     -2.01      0.00
    5   13   15      2.09      0.00
    6   13   15      0.12      0.00
    8   13   15     13.51      0.00
    9   13   15      4.66      0.00
   10   13   15    -15.59      0.00
    1   14   15     -2.87      0.00
    2   14   15     -8.68      0.00
    3   14   15    -11.73      0.00
    6   14   15     12.67      0.00
    7   14   15      7.85      0.00
    8   14   15      0.79      0.00
   10   14   15     36.46      0.00
   11   14   15    -13.68      0.00
    0   15   15     -5.02      0.00
    1   15   15     -5.22      0.00
    2   15   15    -16.04      0.00
    3   15   15      5.18      0.00
    4   15   15      5.93      0.00
    5   15   15      7.33      0.00
    6   15   15     -3.00      0.00
    7   15   15     -7.41      0.00
    1   16   15      5.54      0.00
    2   16   15     -6.56      0.00
    3   16   15     -7.02      0.00
    4   16   15      4.43      0.00
    7   16   15     -1.72      0.00
    3   17   15     -8.40      0.00
    4   17   15     -5.74      0.00
    5   17   15      4.71      0.00
    6   17   15     -2.60      0.00
    7   17   15     -7.27      0.00
    1   18   15     -8.19      0.00
    2   18   15    -11.12      0.00
    3   18   15     -4.45      0.00
    4   18   15     13.94      0.00
    5   18   15      9.33      0.00
    6   18   15     19.28      0.00
    7   18   15     -1.13      0.00
    0    0   16     -8.04      0.00
    1    1   16     22.48      0.00
    0    2   16     13.18      0.00
    1    2   16     -0.07      0.00
    2    2   16     36.99      0.00
    1    3   16     16.56      0.00
    2    3   16     -8.34      0.00
    3    3   16      9.67      0.00
    0    4   16     14.60      0.00
    1    4   16    -17.26      0.00
    2    4   16     -4.08      0.00
    3    4   16     11.19      0.00
    4    4   16      8.01      0.00
    1    5   16      6.43      0.00
    2    5   16      3.17      0.00
    3    5   16     -1.60      0.00
    4    5   16     -1.55      0.00
    5    5   16      0.72      0.00
    0    6   16     -7.49      0.00
    1    6   16      6.14      0.00
    2    6   16    -10.78      0.00
    3    6   16      4.89      0.00
    6    6   16      5.98      0.00
    1    7   16      5.99      0.00
    5    7   16     -3.91      0.00
    6    7   16      3.37      0.00
    2    8   16      7.65      0.00
    3    8   16      0.60      0.00
    4    8   16     -9.44      0.00
    5    8   16     -4.61      0.00
    7    8   16      4.13      0.00
    1    9   16      0.18      0.00
    2    9   16     -1.09      0.00
    3    9   16      2.98      0.00
    4    9   16    -13.86      0.00
    6    9   16     -5.33      0.00
    8    9   16     -1.05      0.00
    9    9   16      2.80      0.00
    0   10   16      6.07      0.00
    1   10   16     -8.98      0.00
    2   10   16     -5.85      0.00
    3   10   16     -0.31      0.00
    4   10   16      2.28      0.00
    7   10   16      0.50      0.00
    8   10   16     -4.22      0.00
    9   10   16     16.68      0.00
    1   11   16     13.07      0.00
    5   11   16      8.41      0.00
    6   11   16      5.70      0.00
    7   11   16      5.42      0.00
    8   11   16     -7.27      0.00
   10   11   16     -3.13      0.00
   11   11   16     13.70      0.00
    0   12   16     11.54      0.00
    1   12   16    -10.08      0.00
    2   12   16      8.41      0.00
    3   12   16     12.44      0.00
    4   12   16     11.01      0.00
    5   12   16     -8.72      0.00
    6   12   16      0.50      0.00
    7   12   16      3.88      0.00
    9   12   16      7.41      0.00
   10   12   16     11.78      0.00
   11   12   16      3.69      0.00
    1   13   16      2.68      0.00
    2   13   16      4.07      0.00
    3   13   16     -2.02      0.00
    4   13   16      5.36      0.00
    5   13   16     12.15      0.00
    7   13   16     11.40      0.00
    8   13   16      0.36      0.00
    9   13   16      5.12      0.00
   11   13   16    -15.25      0.00
    0   14   16     -1.61      0.00
    4   14   16      9.72      0.00
    5   14   16    -12.13      0.00
    6   14   16     -6.06      0.00
    7   14   16      0.93      0.00
    8   14   16      4.43      0.00
   10   14   16     -6.39      0.00
   11   14   16     20.24      0.00
    1   15   16     -6.98      0.00
    2   15   16      9.14      0.00
    3   15   16     -8.90      0.00
    4   15   16      6.07      0.00
    5   15   16      6.43      0.00
    6   15   16      9.05      0.00
    0   16   16     -7.69      0.00
    1   16   16     14.58      0.00
    2   16   16    -11.76      0.00
    3   16   16     -0.54      0.00
    6   16   16      2.97      0.00
    1   17   16    -11.85      0.00
    2   17   16      7.41      0.00
    3   17   16     -8.26      0.00
    4   17   16     -6.95      0.00
    5   17   16      5.06      0.00
    6   17   16     -4.69      0.00
    0   18   16    -13.60      0.00
    1   18   16      4.58      0.00
    2   18   16     -6.02      0.00
    3   18   16    -10.28      0.00
    4   18   16     -3.18      0.00
    5   18   16     -5.24      0.00
    6   18   16     -2.49      0.00
    0    1   17      4.15      0.00
    1    2   17      4.45      0.00
    0    3   17      4.60      0.00
    1    3   17    -17.47      0.00
    2    3   17     -5.97      0.00
    1    4   17      7.32      0.00
    2    4   17    -11.79      0.00
    3    4   17     -1.43      0.00
    0    5   17      5.82      0.00
    1    5   17     -4.32      0.00
    2    5   17    -13.92      0.00
    3    5   17      4.31      0.00
    4    5   17     -3.80      0.00
    1    6   17    -19.65      0.00
    2    6   17      5.61      0.00
    5    6   17     -1.78      0.00
    3    7   17    -17.74      0.00
    4    7   17     -6.10      0.00
    5    7   17     -4.87      0.00
    1    8   17    -14.96      0.00
    2    8   17     -2.40      0.00
    3    8   17    -10.38      0.00
    4    8   17     -1.60      0.00
    6    8   17     -3.49      0.00
    0    9   17     -0.26      0.00
    1    9   17      2.12      0.00
    2    9   17      1.71      0.00
    3    9   17     -0.85      0.00
    4    9   17      3.90      0.00
    5    9   17     -5.63      0.00
    8    9   17     -2.91      0.00
    1   10   17    -10.45      0.00
    2   10   17     -7.01      0.00
    3   10   17     -8.81      0.00
    6   10   17    -16.55      0.00
    7   10   17      0.77      0.00
    8   10   17      7.76      0.00
    9   10   17     -2.71      0.00
    4   11   17     -3.94      0.00
    5   11   17      5.15      0.00
    6   11   17      5.79      0.00
    7   11   17     -8.78      0.00
    8   11   17      2.87      0.00
    9   11   17     -4.81      0.00
   10   11   17     -1.89      0.00
    1   12   17     -6.58      0.00
    2   12   17     -2.30      0.00
    3   12   17     -9.37      0.00
    4   12   17     -6.15      0.00
    5   12   17      5.60      0.00
    6   12   17     -2.94      0.00
    8   12   17     -8.38      0.00
    9   12   17     13.13      0.00
   10   12   17     -7.70      0.00
    0   13   17     12.01      0.00
    1   13   17     -5.85      0.00
    2   13   17     -4.52      0.00
    3   13   17     -2.02      0.00
    4   13   17     10.04      0.00
    6   13   17     19.48      0.00
    7   13   17     -0.54      0.00
    8   13   17      1.75      0.00
    9   13   17     -9.25      0.00
   11   13   17    -11.41      0.00
    2   14   17     -5.24      0.00
    3   14   17     11.65      0.00
    4   14   17      7.75      0.00
    5   14   17     -2.93      0.00
    6   14   17      7.06      0.00
    7   14   17      2.55      0.00
    9   14   17      5.00      0.00
   10   14   17     -2.74      0.00
   11   14   17      6.69      0.00
    0   15   17      5.32      0.00
    1   15   17      7.59      0.00
    2   15   17     -1.81      0.00
    3   15   17    -30.21      0.00
    4   15   17     13.02      0.00
    5   15   17    -18.85      0.00
    1   16   17     -6.76      0.00
    5   16   17     -2.99      0.00
    0   17   17     -3.75      0.00
    1   17   17     -1.64      0.00
    2   17   17      2.55      0.00
    3   17   17     -7.79      0.00
    4   17   17      0.64      0.00
    5   17   17     -1.96      0.00
    1   18   17      6.23      0.00
    2   18   17     -5.34      0.00
    3   18   17      0.32      0.00
    4   18   17     10.69      0.00
    5   18   17      0.12      0.00
    1    1   18      4.87      0.00
    0    2   18     -1.77      0.00
    1    2   18      3.81      0.00
    2    2   18     10.09      0.00
    1    3   18    -18.83      0.00
    2    3   18     -9.98      0.00
    3    3   18    -14.11      0.00
    0    4   18      2.53      0.00
    1    4   18     -0.88      0.00
    2    4   18    -28.17      0.00
    3    4   18    -15.14      0.00
    1    5   18    -14.30      0.00
    2    5   18      0.15      0.00
    5    5   18     -0.09      0.00
    3    6   18    -24.24      0.00
    4    6   18     -2.26      0.00
    5    6   18     -0.87      0.00
    1    7   18      3.23      0.00
    2    7   18     -3.31      0.00
    3    7   18     -3.19      0.00
    4    7   18     -5.17      0.00
    6    7   18     11.24      0.00
    7    7   18      3.68      0.00
    0    8   18     -2.21      0.00
    1    8   18     -1.73      0.00
    2    8   18     -2.59      0.00
    3    8   18      4.69      0.00
    4    8   18      7.27      0.00
    5    8   18      7.33      0.00
    6    8   18      0.43      0.00
    8    8   18     10.27      0.00
    1    9   18     -6.13      0.00
    2    9   18     -7.70      0.00
    3    9   18      1.45      0.00
    4    9   18      0.40      0.00
    7    9   18      3.69      0.00
    8    9   18      2.90      0.00
    9    9   18     -7.58      0.00
    0   10   18      9.33      0.00
    1   10   18     -7.53      0.00
    5   10   18      5.19      0.00
    6   10   18      4.18      0.00
    7   10   18      9.19      0.00
    8   10   18      4.88      0.00
   10   10   18     -3.75      0.00
    1   11   18     -7.03      0.00
    2   11   18      1.70      0.00
    3   11   18      2.17      0.00
    4   11   18      4.61      0.00
    5   11   18      6.53      0.00
    6   11   18     -5.23      0.00
    7   11   18     -1.40      0.00
    9   11   18     -7.17      0.00
   10   11   18     -7.97      0.00
   11   11   18    -12.42      0.00
    0   12   18     -5.35      0.00
    1   12   18      7.80      0.00
    2   12   18     -8.03      0.00
    3   12   18     19.73      0.00
    4   12   18    -20.71      0.00
    5   12   18     14.75      0.00
    7   12   18     -4.35      0.00
    8   12   18      3.95      0.00
    9   12   18      5.91      0.00
   10   12   18      0.33      0.00
   11   12   18     -4.19      0.00
   12   12   18     -1.92      0.00
    1   13   18      4.74      0.00
    2   13   18     15.59      0.00
    5   13   18      7.42      0.00
    6   13   18      5.20      0.00
    7   13   18     -9.42      0.00
    8   13   18      4.52      0.00
   10   13   18     -6.55      0.00
   11   13   18     -8.11      0.00
   12   13   18     -7.09      0.00
    0   14   18      8.33      0.00
    1   14   18     -0.92      0.00
    2   14   18      1.99      0.00
    3   14   18     -5.12      0.00
    4   14   18      2.99      0.00
    5   14   18      9.51      0.00
    6   14   18    -16.29      0.00
    9   14   18      8.87      0.00
   10   14   18     -6.03      0.00
   11   14   18     -5.80      0.00
    1   15   18      2.21      0.00
    2   15   18     -3.95      0.00
    3   15   18      2.10      0.00
    4   15   18      7.86      0.00
    3   16   18     -3.73      0.00
    4   16   18     -7.33      0.00
    1   17   18     14.48      0.00
    2   17   18     -7.61      0.00
    3   17   18      1.65      0.00
    4   17   18     -3.11      0.00
    0   18   18     -0.62      0.00
    1   18   18     -7.13      0.00
    2   18   18      4.43      0.00
    3   18   18      8.54      0.00
    4   18   18      7.44      0.00
    0    1   19     14.45      0.00
    1    2   19      0.06      0.00
    0    3   19    -13.87      0.00
    1    3   19     -6.97      0.00
    2    3   19    -20.99      0.00
    1    4   19    -13.05      0.00
    3    5   19    -13.67      0.00
    4    5   19    -14.53      0.00
    1    6   19      8.75      0.00
    2    6   19     -7.15      0.00
    3    6   19     -4.80      0.00
    4    6   19      1.01      0.00
    0    7   19    -16.75      0.00
    1    7   19    -11.34      0.00
    2    7   19      1.50      0.00
    3    7   19     -9.09      0.00
    4    7   19      8.24      0.00
    5    7   19      7.97      0.00
    6    7   19      9.04      0.00
    1    8   19    -11.59      0.00
    2    8   19      7.04      0.00
    3    8   19      6.25      0.00
    4    8   19    -28.72      0.00
    7    8   19     -0.60      0.00
    0    9   19     12.75      0.00
    1    9   19    -13.17      0.00
    2    9   19     -8.21      0.00
    6    9   19      5.49      0.00
    7    9   19    -14.49      0.00
    8    9   19      2.12      0.00
    3   10   19      5.91      0.00
    4   10   19      4.34      0.00
    5   10   19      5.16      0.00
    6   10   19     -9.08      0.00
    7   10   19     12.62      0.00
    9   10   19      3.21      0.00
    0   11   19      6.49      0.00
    1   11   19     14.43      0.00
    2   11   19     16.58      0.00
    3   11   19     -1.17      0.00
    4   11   19    -12.16      0.00
    5   11   19     -0.40      0.00
    6   11   19     -1.55      0.00
    8   11   19      3.57      0.00
    9   11   19      4.95      0.00
   10   11   19      1.40      0.00
    1   12   19      8.21      0.00
    2   12   19     -3.50      0.00
    3   12   19      0.40      0.00
    4   12   19      0.10      0.00
    6   12   19      9.47      0.00
    7   12   19     -7.65      0.00
    8   12   19      5.23      0.00
    9   12   19      5.20      0.00
   11   12   19     12.31      0.00
    3   13   19     -1.27      0.00
    4   13   19     10.40      0.00
    5   13   19      6.91      0.00
    6   13   19      5.79      0.00
    7   13   19      4.97      0.00
    8   13   19    -14.61      0.00
   10   13   19    -11.62      0.00
   11   13   19     23.80      0.00
   12   13   19     36.15      0.00
    1   14   19      0.22      0.00
    2   14   19     13.82      0.00
    3   14   19      5.50      0.00
    4   14   19     10.19      0.00
    5   14   19    -15.05      0.00
    6   14   19      9.99      0.00
    8   14   19      7.89      0.00
    9   14   19      9.96      0.00
   10   14   19      6.54      0.00
   11   14   19     -4.51      0.00
    0   15   19      5.00      0.00
    1   15   19     -3.43      0.00
    2   15   19    -17.50      0.00
    1   16   19    -13.12      0.00
    2   16   19      5.82      0.00
    3   16   19      2.45      0.00
    0   17   19     -6.65      0.00
    1   17   19     -6.76      0.00
    2   17   19      3.04      0.00
    3   17   19      2.76      0.00
    1   18   19      7.36      0.00
    2   18   19     12.42      0.00
    3   18   19    -13.60      0.00
    1    1   20     16.95      0.00
    2    4   20    -18.32      0.00
    3    4   20      1.43      0.00
    4    4   20     18.67      0.00
    1    5   20     -6.92      0.00
    2    5   20    -10.79      0.00
    3    5   20    -20.56      0.00
    4    5   20      5.78      0.00
    0    6   20     -3.19      0.00
    1    6   20     -5.06      0.00
    2    6   20     -3.60      0.00
    3    6   20     -5.56      0.00
    5    6   20      1.49      0.00
    6    6   20     -2.13      0.00
    1    7   20     -4.54      0.00
    2    7   20    -13.86      0.00
    3    7   20     -7.51      0.00
    4    7   20     22.53      0.00
    5    7   20      6.66      0.00
    0    8   20    -25.32      0.00
    1    8   20      2.98      0.00
    2    8   20     21.62      0.00
    3    8   20     -3.83      0.00
    6    8   20      6.17      0.00
    7    8   20     -7.10      0.00
    8    8   20     10.93      0.00
    4    9   20     -7.45      0.00
    5    9   20      7.13      0.00
    6    9   20      1.28      0.00
    7    9   20     -5.83      0.00
    8    9   20    -13.01      0.00
    0   10   20     10.85      0.00
    1   10   20      4.57      0.00
    2   10   20      2.83      0.00
    3   10   20     11.58      0.00
    4   10   20     -7.95      0.00
    5   10   20    -13.27      0.00
    6   10   20     17.66      0.00
    8   10   20    -25.07      0.00
    9   10   20     -1.30      0.00
   10   10   20     21.69      0.00
    1   11   20      8.10      0.00
    2   11   20     -4.79      0.00
    3   11   20     -2.78      0.00
    4   11   20     -0.41      0.00
    5   11   20      6.04      0.00
    7   11   20      9.08      0.00
    8   11   20      3.98      0.00
    9   11   20     -5.35      0.00
   11   11   20     -5.66      0.00
    0   12   20     16.30      0.00
    1   12   20    -10.53      0.00
    2   12   20     -0.16      0.00
    5   12   20      5.01      0.00
    6   12   20     -0.43      0.00
    7   12   20      8.80      0.00
    8   12   20      8.22      0.00
   10   12   20    -15.15      0.00
   11   12   20      6.33      0.00
   12   12   20     10.59      0.00
    1   13   20      5.91      0.00
    2   13   20     -1.38      0.00
    3   13   20      3.82      0.00
    4   13   20      3.28      0.00
    5   13   20      9.39      0.00
    6   13   20    -10.01      0.00
    7   13   20      7.43      0.00
    9   13   20     14.44      0.00
   10   13   20      8.42      0.00
   11   13   20      0.24      0.00
    0   14   20      6.72      0.00
    1   14   20      7.31      0.00
    2   14   20     -2.05      0.00
    3   14   20      6.15      0.00
    4   14   20      6.05      0.00
    7   14   20      1.21      0.00
    8   14   20      8.34      0.00
    9   14   20     -0.27      0.00
   10   14   20     -6.06      0.00
    8   15   20     -7.97      0.00
    9   15   20      2.61      0.00
    0   16   20      5.21      0.00
    1   16   20     10.75      0.00
    1   17   20     -3.10      0.00
    2   17   20     18.90      0.00
    1    2   21      1.95      0.00
    0    3   21     -4.31      0.00
    1    3   21      2.94      0.00
    2    3   21    -13.61      0.00
    1    4   21     -3.27      0.00
    2    4   21      3.75      0.00
    3    4   21     -8.88      0.00
    0    5   21     -1.32      0.00
    1    5   21     -3.44      0.00
    2    5   21      0.15      0.00
    3    5   21      2.74      0.00
    1    6   21      0.74      0.00
    2    6   21    -17.68      0.00
    3    6   21     -2.75      0.00
    4    6   21      8.04      0.00
    5    6   21     -3.49      0.00
    0    7   21    -10.54      0.00
    1    7   21     13.00      0.00
    2    7   21     -7.41      0.00
    3    7   21     10.75      0.00
    6    7   21     14.20      0.00
    5    8   21     -2.62      0.00
    6    8   21      0.01      0.00
    7    8   21     10.97      0.00
    2    9   21     -7.22      0.00
    3    9   21      3.11      0.00
    4    9   21     -2.22      0.00
    5    9   21      1.70      0.00
    6    9   21      0.29      0.00
    7    9   21    -15.68      0.00
    1   10   21      6.30      0.00
    2   10   21      3.58      0.00
    3   10   21     -4.55      0.00
    4   10   21    -14.01      0.00
    5   10   21      7.14      0.00
    8   10   21      1.95      0.00
    9   10   21      1.48      0.00
    0   11   21     -3.91      0.00
    1   11   21     -5.54      0.00
    2   11   21     -1.76      0.00
    3   11   21    -11.65      0.00
    6   11   21      2.61      0.00
    7   11   21     -0.48      0.00
    8   11   21     -4.16      0.00
    9   11   21      2.11      0.00
    3   12   21      5.38      0.00
    4   12   21      4.71      0.00
    5   12   21      2.38      0.00
    6   12   21    -10.61      0.00
    7   12   21      1.80      0.00
   10   12   21     -9.96      0.00
   11   12   21     -9.65      0.00
    0   13   21    -13.77      0.00
    1   13   21     -6.22      0.00
    2   13   21     -3.74      0.00
    3   13   21    -10.25      0.00
    4   13   21     -8.48      0.00
    5   13   21    -11.66      0.00
    6   13   21     11.35      0.00
    8   13   21     -0.69      0.00
    9   13   21    -12.41      0.00
   10   13   21      2.55      0.00
   11   13   21     -6.16      0.00
    1   14   21     -0.78      0.00
    2   14   21      2.95      0.00
    3   14   21    -11.43      0.00
    6   14   21     12.99      0.00
    7   14   21     -0.89      0.00
    8   14   21     -0.78      0.00
    9   14   21      6.99      0.00
   10   14   21     -7.19      0.00
    1   15   21     34.15      0.00
    6   15   21    -16.70      0.00
    7   15   21      1.52      0.00
    8   15   21     -8.21      0.00
    9   15   21     10.78      0.00
    1   16   21    -15.10      0.00
    0   17   21     -9.46      0.00
    1   17   21     -8.38      0.00
    1    1   22     14.77      0.00
    0    2   22     -1.44      0.00
    1    2   22     -1.05      0.00
    2    2   22     -5.65      0.00
    1    3   22    -15.10      0.00
    2    3   22     -3.54      0.00
    3    3   22      2.49      0.00
    0    4   22     -5.87      0.00
    1    4   22      2.89      0.00
    2    4   22     -8.14      0.00
    3    4   22     12.46      0.00
    4    4   22     12.09      0.00
    1    5   22     -4.26      0.00
    2    5   22      4.26      0.00
    3    5   22      7.25      0.00
    4    5   22    -10.92      0.00
    0    6   22    -17.79      0.00
    1    6   22      5.41      0.00
    2    6   22      6.22      0.00
    3    6   22     -4.96      0.00
    6    6   22      3.29      0.00
    5    7   22     -0.72      0.00
    6    7   22     -2.58      0.00
    7    7   22      5.44      0.00
    2    8   22     -4.17      0.00
    3    8   22     -1.06      0.00
    4    8   22     -8.93      0.00
    5    8   22      4.67      0.00
    6    8   22     17.68      0.00
    7    8   22     -3.49      0.00
    1    9   22      3.70      0.00
    2    9   22     -3.77      0.00
    3    9   22     -4.35      0.00
    4    9   22      1.82      0.00
    5    9   22     -3.99      0.00
    6    9   22     -1.71      0.00
    8    9   22      1.98      0.00
    9    9   22     12.79      0.00
    0   10   22     -0.09      0.00
    1   10   22      6.42      0.00
    2   10   22      5.88      0.00
    3   10   22     -9.89      0.00
    4   10   22      5.67      0.00
    6   10   22    -21.59      0.00
    7   10   22     10.89      0.00
    8   10   22     21.36      0.00
    9   10   22     -1.72      0.00
    4   11   22      3.41      0.00
    5   11   22     -1.95      0.00
    6   11   22      2.88      0.00
    7   11   22      7.61      0.00
    8   11   22      4.61      0.00
   10   11   22     -0.21      0.00
   11   11   22     -0.80      0.00
    0   12   22     -8.94      0.00
    1   12   22     -1.99      0.00
    2   12   22      9.59      0.00
    3   12   22      3.85      0.00
    4   12   22     11.02      0.00
    5   12   22     -0.46      0.00
    6   12   22      4.13      0.00
    9   12   22     14.84      0.00
   10   12   22     -7.05      0.00
   11   12   22     -5.94      0.00
    1   13   22      6.50      0.00
    2   13   22     10.30      0.00
    3   13   22      4.43      0.00
    4   13   22      4.00      0.00
    7   13   22      6.30      0.00
    8   13   22      6.58      0.00
    9   13   22      4.31      0.00
   10   13   22      8.12      0.00
    4   14   22    -24.88      0.00
    5   14   22      6.19      0.00
    6   14   22     -7.04      0.00
    7   14   22     -3.90      0.00
    8   14   22      6.12      0.00
    9   14   22    -37.52      0.00
    5   15   22     -9.65      0.00
    6   15   22     -1.05      0.00
    7   15   22     -5.12      0.00
    8   15   22     -3.82      0.00
    0    1   23     -3.56      0.00
    1    2   23     -3.34      0.00
    0    3   23     -1.86      0.00
    1    3   23     -4.70      0.00
    2    3   23      0.42      0.00
    1    4   23     -1.20      0.00
    2    4   23      0.62      0.00
    3    4   23    -13.16      0.00
    0    5   23     20.98      0.00
    1    5   23      2.41      0.00
    2    5   23     18.20      0.00
    5    6   23    -13.36      0.00
    3    7   23     -0.17      0.00
    4    7   23      7.05      0.00
    5    7   23    -20.84      0.00
    6    7   23     -5.24      0.00
    1    8   23     -0.46      0.00
    2    8   23      2.00      0.00
    3    8   23      7.60      0.00
    4    8   23      8.78      0.00
    5    8   23     -5.19      0.00
    6    8   23      0.10      0.00
    0    9   23    -13.93      0.00
    1    9   23     -0.50      0.00
    2    9   23      1.85      0.00
    3    9   23    -16.04      0.00
    4    9   23    -20.36      0.00
    5    9   23    -13.12      0.00
    7    9   23     -4.38      0.00
    8    9   23     13.08      0.00
    1   10   23      3.18      0.00
    2   10   23      4.18      0.00
    5   10   23      6.64      0.00
    6   10   23     12.15      0.00
    7   10   23      1.70      0.00
    8   10   23      1.26      0.00
    1   11   23     -1.61      0.00
    2   11   23     13.99      0.00
    3   11   23      0.64      0.00
    4   11   23     -4.29      0.00
    5   11   23     -2.55      0.00
    6   11   23    -13.27      0.00
    7   11   23     -0.42      0.00
    9   11   23     -2.33      0.00
   10   11   23      1.06      0.00
    1   12   23     -3.69      0.00
    2   12   23     -3.52      0.00
    3   12   23     -8.73      0.00
    4   12   23      6.09      0.00
    5   12   23      7.80      0.00
    8   12   23      1.84      0.00
    9   12   23      1.23      0.00
   10   12   23      2.20      0.00
    2   13   23      1.05      0.00
    3   13   23      0.59      0.00
    6   13   23      4.85      0.00
    7   13   23      3.97      0.00
    8   13   23     -4.61      0.00
    9   13   23      3.44      0.00
    2   14   23     -2.43      0.00
    3   14   23      0.46      0.00
    4   14   23      6.18      0.00
    5   14   23     -8.48      0.00
    6   14   23     10.35      0.00
    7   14   23      8.31      0.00
    8   14   23      7.05      0.00
    3   15   23     -8.20      0.00
    4   15   23      9.43      0.00
    5   15   23      7.57      0.00
    6   15   23     -6.32      0.00
    7   15   23      7.86      0.00
    1    1   24      1.58      0.00
    0    2   24     22.41      0.00
    1    2   24    -16.19      0.00
    2    2   24    -13.19      0.00
    1    3   24     -8.12      0.00
    2    3   24     -9.10      0.00
    0    4   24     13.05      0.00
    1    4   24      8.09      0.00
    4    5   24     11.43      0.00
    5    5   24    -14.17      0.00
    2    6   24    -23.14      0.00
    3    6   24     -1.51      0.00
    4    6   24     -0.75      0.00
    5    6   24      4.36      0.00
    6    6   24     -9.84      0.00
    1    7   24     13.83      0.00
    2    7   24     -5.16      0.00
    3    7   24     18.49      0.00
    4    7   24     11.12      0.00
    5    7   24     -7.60      0.00
    6    7   24     -2.43      0.00
    0    8   24     -3.02      0.00
    1    8   24      7.12      0.00
    2    8   24      4.61      0.00
    3    8   24      3.92      0.00
    4    8   24     -7.34      0.00
    5    8   24     -3.52      0.00
    7    8   24      0.18      0.00
    8    8   24      6.56      0.00
    1    9   24      0.82      0.00
    2    9   24      8.85      0.00
    3    9   24      0.13      0.00
    5    9   24     -0.33      0.00
    6    9   24      1.77      0.00
    7    9   24      9.45      0.00
    8    9   24     -4.85      0.00
    3   10   24    -14.15      0.00
    4   10   24     -0.61      0.00
    5   10   24     14.19      0.00
    6   10   24     -0.06      0.00
    7   10   24      0.90      0.00
   10   10   24      1.24      0.00
    1   11   24      5.84      0.00
    2   11   24     -1.88      0.00
    3   11   24      0.00      0.00
    4   11   24     11.04      0.00
    5   11   24     18.85      0.00
    6   11   24     -3.79      0.00
    8   11   24     -6.48      0.00
    9   11   24      5.82      0.00
   10   11   24      9.23      0.00
    0   12   24     11.83      0.00
    1   12   24      1.46      0.00
    2   12   24      6.00      0.00
    3   12   24     -2.21      0.00
    4   12   24     15.72      0.00
    7   12   24     -0.02      0.00
    8   12   24     -1.71      0.00
    9   12   24     -6.39      0.00
    4   13   24      1.65      0.00
    5   13   24      0.30      0.00
    6   13   24      7.81      0.00
    7   13   24     -4.49      0.00
    8   13   24     -3.34      0.00
    2   14   24      4.98      0.00
    3   14   24      3.87      0.00
    4   14   24     -7.50      0.00
    5   14   24     -1.27      0.00
    6   14   24      3.88      0.00
    7   14   24    -10.02      0.00
    3   15   24      3.44      0.00
    4   15   24      4.51      0.00
    5   15   24     -3.12      0.00
    6   15   24      6.17      0.00
    3    4   25     -6.32      0.00
    0    5   25     21.50      0.00
    1    5   25     11.80      0.00
    2    5   25      4.35      0.00
    3    5   25     10.01      0.00
    4    5   25      6.37      0.00
    1    6   25     18.73      0.00
    2    6   25     13.02      0.00
    3    6   25     -5.42      0.00
    4    6   25     20.95      0.00
    5    6   25      0.06      0.00
    0    7   25      5.97      0.00
    1    7   25      8.79      0.00
    2    7   25     -0.74      0.00
    3    7   25      4.56      0.00
    4    7   25      0.56      0.00
    5    7   25      6.07      0.00
    1    8   25     -0.68      0.00
    2    8   25      2.07      0.00
    3    8   25    -20.38      0.00
    6    8   25      0.37      0.00
    7    8   25    -15.79      0.00
    3    9   25     -3.45      0.00
    4    9   25     -2.87      0.00
    5    9   25    -13.17      0.00
    6    9   25     -4.89      0.00
    7    9   25     -2.35      0.00
    8    9   25      9.26      0.00
    1   10   25      0.88      0.00
    2   10   25      5.31      0.00
    3   10   25      5.50      0.00
    4   10   25     -8.17      0.00
    5   10   25    -11.23      0.00
    6   10   25     -4.70      0.00
    9   10   25      1.91      0.00
    0   11   25    -14.84      0.00
    1   11   25      3.00      0.00
    2   11   25     -6.81      0.00
    3   11   25      5.35      0.00
    4   11   25     -9.90      0.00
    5   11   25     -6.31      0.00
    7   11   25     -2.03      0.00
    8   11   25      1.80      0.00
    9   11   25      5.56      0.00
    1   12   25     11.96      0.00
    5   12   25     12.56      0.00
    6   12   25      2.31      0.00
    7   12   25     -0.72      0.00
    8   12   25     -0.20      0.00
    0   13   25      7.83      0.00
    1   13   25      5.08      0.00
    2   13   25     -6.70      0.00
    3   13   25     -7.71      0.00
    4   13   25     -4.59      0.00
    5   13   25     -3.75      0.00
    6   13   25      3.44      0.00
    7   13   25      8.37      0.00
    3   14   25     -0.50      0.00
    4   14   25     -8.81      0.00
    5   14   25      4.71      0.00
    6   14   25    -11.61      0.00
    3   15   25      5.11      0.00
    4   15   25     24.13      0.00
    1    2   26     -8.20      0.00
    2    2   26     -2.02      0.00
    1    3   26     -6.94      0.00
    2    3   26      6.59      0.00
    3    3   26     -4.94      0.00
    0    4   26    -11.38      0.00
    1    4   26     11.20      0.00
    2    4   26      9.33      0.00
    3    4   26    -12.44      0.00
    4    4   26      8.63      0.00
    1    5   26      2.54      0.00
    2    5   26      7.96      0.00
    3    5   26      8.85      0.00
    4    5   26      2.79      0.00
    5    5   26     19.22      0.00
    0    6   26      9.29      0.00
    1    6   26     -4.42      0.00
    2    6   26     -7.81      0.00
    3    6   26     -6.01      0.00
    4    6   26      1.05      0.00
    1    7   26     -2.60      0.00
    2    7   26     -0.11      0.00
    5    7   26     12.53      0.00
    6    7   26      1.88      0.00
    7    7   26     10.37      0.00
    3    8   26     -7.48      0.00
    4    8   26    -15.46      0.00
    5    8   26     -4.59      0.00
    6    8   26    -14.19      0.00
    7    8   26     -2.98      0.00
    8    8   26     -4.17      0.00
    1    9   26      1.52      0.00
    2    9   26      2.07      0.00
    3    9   26      4.27      0.00
    4    9   26     -6.04      0.00
    5    9   26      0.80      0.00
    6    9   26     -6.50      0.00
    9    9   26     -0.61      0.00
    0   10   26     -6.76      0.00
    1   10   26     -7.37      0.00
    2   10   26     -5.65      0.00
    3   10   26     -2.30      0.00
    4   10   26    -12.04      0.00
    5   10   26      5.79      0.00
    7   10   26     16.01      0.00
    8   10   26     19.17      0.00
    9   10   26      2.41      0.00
    1   11   26      3.80      0.00
    2   11   26     -0.37      0.00
    6   11   26     -3.15      0.00
    7   11   26     -5.46      0.00
    8   11   26      5.92      0.00
    3   12   26      1.76      0.00
    4   12   26     -5.78      0.00
    5   12   26     -5.86      0.00
    6   12   26     -8.55      0.00
    7   12   26     -6.32      0.00
    1   13   26     -7.80      0.00
    2   13   26     -1.27      0.00
    3   13   26    -12.59      0.00
    4   13   26      1.34      0.00
    5   13   26     -0.08      0.00
    6   13   26     10.65      0.00
    3   14   26      3.01      0.00
    4   14   26      2.03      0.00
    1    2   27    -31.24      0.00
    0    3   27    -10.30      0.00
    1    3   27     -3.27      0.00
    2    3   27     -8.67      0.00
    1    4   27      7.01      0.00
    2    4   27     -9.81      0.00
    3    4   27    -12.08      0.00
    0    5   27      4.45      0.00
    1    5   27      3.87      0.00
    2    5   27    -17.05      0.00
    3    5   27    -13.55      0.00
    1    6   27    -13.33      0.00
    5    6   27      7.66      0.00
    3    7   27      5.01      0.00
    4    7   27    -14.65      0.00
    5    7   27    -13.41      0.00
    6    7   27    -15.43      0.00
    1    8   27     -0.07      0.00
    2    8   27      6.40      0.00
    3    8   27      4.67      0.00
    4    8   27     -6.80      0.00
    5    8   27     -7.99      0.00
    6    8   27      5.38      0.00
    0    9   27     10.55      0.00
    1    9   27      3.76      0.00
    2    9   27     -4.95      0.00
    3    9   27     -1.40      0.00
    4    9   27      3.26      0.00
    5    9   27      9.53      0.00
    8    9   27     -3.73      0.00
    1   10   27      8.21      0.00
    2   10   27      3.78      0.00
    3   10   27     -8.59      0.00
    6   10   27     -2.04      0.00
    7   10   27     -8.07      0.00
    8   10   27     -8.87      0.00
    4   11   27      8.80      0.00
    5   11   27      5.65      0.00
    6   11   27      1.34      0.00
    7   11   27     -6.66      0.00
    1   12   27      1.49      0.00
    2   12   27    -11.45      0.00
    3   12   27     17.12      0.00
    4   12   27     -8.38      0.00
    5   12   27     -8.20      0.00
    6   12   27      1.93      0.00
    0   13   27      2.43      0.00
    1   13   27      1.95      0.00
    2   13   27     -5.36      0.00
    3   13   27     -8.97      0.00
    4   13   27    -12.23      0.00
    0    2   28    -29.03      0.00
    1    2   28      5.92      0.00
    2    2   28      6.77      0.00
    1    3   28     -3.11      0.00
    2    3   28     25.52      0.00
    3    3   28     -0.62      0.00
    0    4   28     -6.62      0.00
    1    4   28     -0.92      0.00
    2    4   28     20.75      0.00
    4    5   28      5.68      0.00
    5    5   28     -4.95      0.00
    1    6   28     10.79      0.00
    2    6   28     -9.05      0.00
    3    6   28     19.70      0.00
    4    6   28     -9.66      0.00
    5    6   28      9.26      0.00
    6    6   28    -10.60      0.00
    1    7   28     -2.01      0.00
    2    7   28     11.05      0.00
    3    7   28     -1.69      0.00
    4    7   28     -4.11      0.00
    5    7   28     -9.72      0.00
    6    7   28      7.34      0.00
    0    8   28      6.40      0.00
    1    8   28    -11.44      0.00
    2    8   28     -8.18      0.00
    3    8   28      3.28      0.00
    4    8   28    -10.10      0.00
    5    8   28     13.52      0.00
    7    8   28      8.57      0.00
    8    8   28     36.21      0.00
    1    9   28      2.04      0.00
    2    9   28     -7.29      0.00
    3    9   28     -2.18      0.00
    6    9   28    -12.00      0.00
    7    9   28     -7.35      0.00
    8    9   28     -5.77      0.00
    4   10   28    -11.25      0.00
    5   10   28     -8.13      0.00
    6   10   28      2.73      0.00
    7   10   28     -9.51      0.00
    1   11   28      4.04      0.00
    2   11   28     -3.94      0.00
    3   11   28     -4.56      0.00
    4   11   28     -8.93      0.00
    5   11   28    -11.21      0.00
    6   11   28     -8.04      0.00
    0   12   28      7.26      0.00
    1   12   28     -8.34      0.00
    2   12   28      1.39      0.00
    3   12   28      7.36      0.00
    4   12   28     21.79      0.00
    1   13   28      5.24      0.00
    2   13   28    -11.32      0.00
    2    4   29      9.30      0.00
    3    4   29      0.94      0.00
    0    5   29     -5.69      0.00
    1    5   29     13.43      0.00
    2    5   29      1.37      0.00
    3    5   29     17.71      0.00
    4    5   29      6.38      0.00
    1    6   29     -1.18      0.00
    2    6   29      0.55      0.00
    3    6   29     -1.14      0.00
    4    6   29      8.49      0.00
    5    6   29      9.38      0.00
    0    7   29     -0.71      0.00
    1    7   29      6.36      0.00
    2    7   29     -7.73      0.00
    3    7   29      8.18      0.00
    4    7   29     -2.94      0.00
    5    7   29     -3.05      0.00
    1    8   29    -11.66      0.00
    2    8   29     -2.92      0.00
    3    8   29     -4.05      0.00
    6    8   29     -7.06      0.00
    7    8   29     -7.66      0.00
    4    9   29     -6.16      0.00
    5    9   29     10.73      0.00
    6    9   29    -12.12      0.00
    7    9   29      2.53      0.00
    1   10   29      8.65      0.00
    2   10   29     -2.55      0.00
    3   10   29    -10.29      0.00
    4   10   29     -7.21      0.00
    5   10   29      5.16      0.00
    6   10   29    -10.26      0.00
    0   11   29    -14.65      0.00
    1   11   29     11.04      0.00
    2   11   29      6.42      0.00
    3   11   29     -7.17      0.00
    4   11   29     -9.40      0.00
    1   12   29      4.32      0.00
    2   12   29      4.94      0.00
    3   12   29     -1.59      0.00
    1   13   29      9.34      0.00
    1    3   30     11.78      0.00
    2    3   30      6.47      0.00
    3    3   30     -7.89      0.00
    0    4   30      3.11      0.00
    1    4   30     11.56      0.00
    2    4   30      9.91      0.00
    3    4   30     -8.86      0.00
    4    4   30      8.67      0.00
    1    5   30      4.60      0.00
    2    5   30    -14.86      0.00
    3    5   30     -3.14      0.00
    4    5   30    -10.02      0.00
    5    5   30     13.07      0.00
    0    6   30      5.01      0.00
    1    6   30    -11.67      0.00
    2    6   30      0.73      0.00
    3    6   30      6.89      0.00
    4    6   30     15.46      0.00
    1    7   30     -4.70      0.00
    2    7   30      5.68      0.00
    6    7   30     -1.16      0.00
    7    7   30    -10.94      0.00
    4    8   30    -10.73      0.00
    5    8   30     -9.32      0.00
    6    8   30     -5.61      0.00
    7    8   30     -5.05      0.00
    1    9   30     12.60      0.00
    2    9   30     -0.13      0.00
    3    9   30    -13.75      0.00
    4    9   30     -6.65      0.00
    5    9   30     -3.72      0.00
    6    9   30     -6.27      0.00
    0   10   30      8.96      0.00
    1   10   30     -1.43      0.00
    2   10   30     -5.92      0.00
    3   10   30     -6.92      0.00
    4   10   30     -6.27      0.00
    1   11   30    -11.90      0.00
    2   11   30     -2.31      0.00
    3   11   30     -3.47      0.00
    0   12   30    -19.14      0.00
    1   12   30     15.79      0.00
    0    3   31      4.04      0.00
    1    3   31    -25.75      0.00
    2    3   31     -7.90      0.00
    1    4   31     -6.63      0.00
    2    4   31      0.78      0.00
    3    4   31     13.80      0.00
    0    5   31      6.51      0.00
    1    5   31     -9.91      0.00
    2    5   31      9.27      0.00
    3    5   31    -10.23      0.00
    5    6   31     -0.69      0.00
    3    7   31      7.87      0.00
    4    7   31      9.54      0.00
    5    7   31     -4.96      0.00
    6    7   31      3.10      0.00
    1    8   31      1.35      0.00
    2    8   31      5.04      0.00
    3    8   31      6.60      0.00
    4    8   31     12.95      0.00
    5    8   31     -1.10      0.00
    0    9   31      0.58      0.00
    1    9   31     -2.17      0.00
    2    9   31      2.50      0.00
    3    9   31     -2.50      0.00
    4    9   31      6.79      0.00
    1   10   31     10.07      0.00
    2   10   31      6.32      0.00
    3   10   31     11.72      0.00
    1   11   31     -0.72      0.00
    1    3   32      3.69      0.00
    3    5   32      8.61      0.00
    4    5   32      2.98      0.00
    5    5   32     -9.30      0.00
    0    6   32      0.54      0.00
    1    6   32     -6.53      0.00
    2    6   32     -8.91      0.00
    3    6   32     14.69      0.00
    4    6   32      4.91      0.00
    5    6   32      1.65      0.00
    6    6   32      8.58      0.00
    1    7   32      0.66      0.00
    2    7   32      4.92      0.00
    3    7   32     -4.59      0.00
    4    7   32     -4.53      0.00
    5    7   32    -10.62      0.00
    0    8   32    -14.72      0.00
    1    8   32    -15.97      0.00
    2    8   32      1.26      0.00
    3    8   32     -2.16      0.00
    4    8   32     -2.16      0.00
    1    9   32     -3.71      0.00
    2    9   32     -0.93      0.00
    3    9   32      2.80      0.00
    1   10   32     12.12      0.00
    2   10   32      1.12      0.00
    1    4   33     -2.11      0.00
    2    4   33      9.45      0.00
    3    4   33     16.98      0.00
    0    5   33     12.36      0.00
    1    5   33     -2.29      0.00
    2    5   33     11.20      0.00
    3    5   33     -2.12      0.00
    4    5   33     11.87      0.00
    1    6   33     -9.29      0.00
    2    6   33     -1.06      0.00
    3    6   33      4.84      0.00
    4    6   33      1.02      0.00
    0    7   33      6.41      0.00
    1    7   33      7.08      0.00
    2    7   33     -0.26      0.00
    3    7   33     -0.87      0.00
    4    7   33      6.15      0.00
    1    8   33    -12.46      0.00
    2    8   33      3.04      0.00
    3    8   33      3.17      0.00
    1    9   33      3.25      0.00
    0    4   34    -10.81      0.00
    1    4   34    -16.84      0.00
    2    4   34     -8.19      0.00
    3    4   34      6.09      0.00
    1    5   34     -7.78      0.00
    2    5   34     12.52      0.00
    3    5   34      5.59      0.00
    4    5   34      3.28      0.00
    1    6   34      6.86      0.00
    2    6   34     -5.77      0.00
    3    6   34      1.30      0.00
    1    7   34     13.18      0.00
    2    7   34      7.39      0.00
    1    8   34    -25.09      0.00
    1    5   35     -1.31      0.00
    2    5   35     -4.00      0.00
    1    6   35     -7.91      0.00
    1    7   35      6.89      0.00
    1    1    0    -87.93      0.00
    2    2    0    177.97      0.00
    3    3    0    144.13      0.00
    4    4    0      2.60      0.00
    4    5    0     44.75      0.00
    5    5    0     69.98      0.00
    5    6    0    -35.70      0.00
    6    6    0     45.69      0.00
    5    7    0    -47.49      0.00
    6    7    0     -1.86      0.00
    7    7    0     10.74      0.00
    1    8    0    -53.63      0.00
    2    8    0     47.67      0.00
    3    8    0      9.10      0.00
    6    8    0     -9.13      0.00
    7    8    0      1.76      0.00
    8    8    0    -27.03      0.00
    6    9    0      4.69      0.00
    7    9    0    -17.26      0.00
    8    9    0    -13.76      0.00
    9    9    0     24.56      0.00
    7   10    0     19.82      0.00
    8   10    0      9.79      0.00
    9   10    0     -9.66      0.00
   10   10    0    -12.31      0.00
    4   11    0    -12.96      0.00
    5   11    0      8.25      0.00
    7   11    0      8.05      0.00
    8   11    0     -9.41      0.00
    9   11    0      5.06      0.00
   10   11    0     10.27      0.00
   11   11    0     11.00      0.00
    0   12    0     -3.90      0.00
    1   12    0     -2.92      0.00
    2   12    0     -2.28      0.00
    7   12    0    -16.87      0.00
    8   12    0     23.76      0.00
    9   12    0      8.60      0.00
   10   12    0    -16.48      0.00
   11   12    0     -4.49      0.00
   12   12    0     22.23      0.00
    6   13    0    -18.47      0.00
    7   13    0     57.79      0.00
    8   13    0    -18.74      0.00
    9   13    0    -17.75      0.00
   10   13    0      2.06      0.00
   11   13    0      3.35      0.00
   12   13    0      1.31      0.00
   13   13    0     27.00      0.00
    4   14    0     -6.43      0.00
    5   14    0    -26.49      0.00
    8   14    0    -14.26      0.00
    9   14    0    -18.53      0.00
   10   14    0     11.60      0.00
   11   14    0     -4.17      0.00
   12   14    0     -6.97      0.00
   13   14    0      3.12      0.00
   14   14    0     -9.30      0.00
    1   15    0      4.99      0.00
    8   15    0      7.19      0.00
    9   15    0     26.74      0.00
   10   15    0      5.13      0.00
   11   15    0    -15.55      0.00
   12   15    0     -6.09      0.00
   13   15    0      3.12      0.00
   14   15    0     -9.23      0.00
   15   15    0      3.81      0.00
    5   16    0     -0.54      0.00
    6   16    0     -0.97      0.00
    8   16    0    -35.69      0.00
    9   16    0     -4.12      0.00
   10   16    0     -0.98      0.00
   11   16    0     -2.60      0.00
   12   16    0     -3.62      0.00
   13   16    0      8.98      0.00
   14   16    0     -4.29      0.00
    1   17    0    -11.82      0.00
    2   17    0     51.83      0.00
    8   17    0     29.69      0.00
    9   17    0     -4.64      0.00
   10   17    0    -30.74      0.00
   11   17    0     -8.72      0.00
   12   17    0     -9.77      0.00
   13   17    0     -1.75      0.00
    6   18    0    -24.47      0.00
    8   18    0    -11.11      0.00
    9   18    0     34.05      0.00
   10   18    0      0.00      0.00
   11   18    0      2.10      0.00
    1   19    0      3.64      0.00
    2   19    0     -6.62      0.00
    8   19    0     -6.91      0.00
    9   19    0     -0.29      0.00
   10   19    0      0.53      0.00
    7   20    0      5.41      0.00
    0    1    1   -177.98      0.00
    4    5    1    -54.36      0.00
    5    6    1      6.87      0.00
    4    7    1    -42.41      0.00
    5    7    1      1.86      0.00
    6    7    1     -8.92      0.00
    1    8    1    -31.42      0.00
    2    8    1    -10.20      0.00
    3    8    1    -19.18      0.00
    6    8    1      1.95      0.00
    7    8    1     -4.84      0.00
    6    9    1    -21.25      0.00
    7    9    1    -10.12      0.00
    8    9    1     16.60      0.00
    6   10    1     13.99      0.00
    7   10    1    -13.90      0.00
    8   10    1     12.83      0.00
    9   10    1     -1.10      0.00
    4   11    1    -22.25      0.00
    5   11    1      1.76      0.00
    7   11    1    -22.25      0.00
    8   11    1     -8.97      0.00
    9   11    1    -16.42      0.00
   10   11    1     -0.79      0.00
    1   12    1     10.59      0.00
    2   12    1     -2.43      0.00
    7   12    1     15.30      0.00
    8   12    1      3.19      0.00
    9   12    1     -3.37      0.00
   10   12    1    -14.41      0.00
   11   12    1      0.93      0.00
    7   13    1     -6.38      0.00
    8   13    1    -11.16      0.00
    9   13    1     14.13      0.00
   10   13    1     -3.47      0.00
   11   13    1    -10.89      0.00
   12   13    1      0.30      0.00
    4   14    1    -18.12      0.00
    5   14    1     19.45      0.00
    8   14    1      6.83      0.00
    9   14    1      5.68      0.00
   10   14    1      0.54      0.00
   11   14    1      3.82      0.00
   12   14    1      7.13      0.00
   13   14    1      2.89      0.00
    0   15    1      9.59      0.00
    1   15    1    -12.95      0.00
    8   15    1      2.87      0.00
    9   15    1      4.45      0.00
   10   15    1     -0.27      0.00
   11   15    1     -4.54      0.00
   12   15    1     -5.98      0.00
   13   15    1     -2.80      0.00
   14   15    1     -2.60      0.00
    5   16    1     30.44      0.00
    6   16    1     -7.11      0.00
    8   16    1      1.18      0.00
    9   16    1     -0.35      0.00
   10   16    1      1.66      0.00
   11   16    1    -11.19      0.00
   12   16    1    -13.99      0.00
   13   16    1     -4.58      0.00
   14   16    1      5.72      0.00
    0   17    1     -0.21      0.00
    1   17    1      8.60      0.00
    2   17    1     11.82      0.00
    8   17    1    -21.49      0.00
    9   17    1      1.24      0.00
   10   17    1      1.47      0.00
   11   17    1      5.01      0.00
   12   17    1     11.42      0.00
   13   17    1      6.33      0.00
    6   18    1     -2.61      0.00
    8   18    1    -32.12      0.00
    9   18    1     10.80      0.00
   10   18    1     -0.53      0.00
   11   18    1      5.02      0.00
    0   19    1      6.88      0.00
    1   19    1    -12.10      0.00
    2   19    1    -14.69      0.00
    8   19    1    -14.71      0.00
    9   19    1     -4.87      0.00
   10   19    1      2.74      0.00
    7   20    1      1.50      0.00
    0    0    2     37.81      0.00
    4    4    2    -84.23      0.00
    4    5    2     41.50      0.00
    5    5    2     -5.20      0.00
    5    6    2    -13.07      0.00
    6    6    2     -5.51      0.00
    4    7    2      3.14      0.00
    5    7    2     -6.96      0.00
    6    7    2    -10.50      0.00
    7    7    2    -22.43      0.00
    0    8    2     12.09      0.00
    1    8    2     -0.53      0.00
    2    8    2    -29.52      0.00
    3    8    2     15.40      0.00
    6    8    2     17.29      0.00
    7    8    2    -24.38      0.00
    8    8    2      9.04      0.00
    7    9    2      0.52      0.00
    8    9    2    -12.92      0.00
    9    9    2      6.30      0.00
    6   10    2     -9.79      0.00
    7   10    2      1.20      0.00
    8   10    2     -8.50      0.00
    9   10    2     -2.68      0.00
   10   10    2      6.14      0.00
    4   11    2      0.83      0.00
    5   11    2     -9.97      0.00
    7   11    2     -0.90      0.00
    8   11    2      4.17      0.00
    9   11    2     -2.29      0.00
   10   11    2     -2.25      0.00
   11   11    2      8.07      0.00
    0   12    2     21.99      0.00
    1   12    2      4.52      0.00
    2   12    2    -28.17      0.00
    8   12    2     -9.35      0.00
    9   12    2     -7.52      0.00
   10   12    2     -4.18      0.00
   11   12    2      5.16      0.00
   12   12    2     -5.84      0.00
    7   13    2      0.80      0.00
    8   13    2     -6.58      0.00
    9   13    2    -16.64      0.00
   10   13    2     13.54      0.00
   11   13    2      0.16      0.00
   12   13    2      6.07      0.00
   13   13    2      9.53      0.00
    4   14    2     24.68      0.00
    5   14    2    -31.42      0.00
    8   14    2     -5.68      0.00
    9   14    2      3.55      0.00
   10   14    2     -4.98      0.00
   11   14    2      2.04      0.00
   12   14    2      1.39      0.00
   13   14    2     -2.14      0.00
   14   14    2     -1.27      0.00
    8   15    2     -5.30      0.00
    9   15    2     25.07      0.00
   10   15    2     13.17      0.00
   11   15    2     -2.16      0.00
   12   15    2     -0.65      0.00
   13   15    2     10.23      0.00
   14   15    2    -10.10      0.00
   15   15    2      4.63      0.00
    5   16    2      1.74      0.00
    6   16    2     19.73      0.00
    8   16    2      2.06      0.00
    9   16    2      3.19      0.00
   10   16    2      4.49      0.00
   11   16    2      1.72      0.00
   12   16    2      6.14      0.00
   13   16    2      3.29      0.00
   14   16    2     -2.95      0.00
    1   17    2      9.48      0.00
    2   17    2     -7.28      0.00
    8   17    2    -19.16      0.00
    9   17    2      8.18      0.00
   10   17    2    -10.60      0.00
   11   17    2     -6.65      0.00
   12   17    2     -2.49      0.00
   13   17    2      0.65      0.00
    6   18    2      7.16      0.00
    8   18    2     -6.96      0.00
    9   18    2      1.46      0.00
   10   18    2      2.74      0.00
   11   18    2      2.98      0.00
    1   19    2      1.85      0.00
    2   19    2      3.17      0.00
    8   19    2    -18.08      0.00
    9   19    2     -2.83      0.00
   10   19    2     -2.65      0.00
    7   20    2      4.20      0.00
    4    5    3     42.91      0.00
    4    7    3    -10.53      0.00
    6    7    3     -5.74      0.00
    1    8    3      1.11      0.00
    2    8    3    -12.59      0.00
    7    8    3      7.20      0.00
    7    9    3     -8.78      0.00
    8    9    3     11.22      0.00
    6   10    3      6.18      0.00
    7   10    3     -1.19      0.00
    8   10    3     -3.58      0.00
    9   10    3     -9.65      0.00
    4   11    3      4.32      0.00
    5   11    3    -19.97      0.00
    8   11    3      7.25      0.00
    9   11    3     13.07      0.00
   10   11    3      1.27      0.00
    1   12    3     20.70      0.00
    8   12    3     14.88      0.00
    9   12    3     12.72      0.00
   10   12    3     -4.79      0.00
   11   12    3     -4.63      0.00
    6   13    3      5.05      0.00
    7   13    3     -3.64      0.00
    8   13    3     -1.92      0.00
    9   13    3      3.26      0.00
   10   13    3     -5.51      0.00
   11   13    3     -3.64      0.00
   12   13    3      2.95      0.00
    3   14    3     13.53      0.00
    4   14    3    -21.47      0.00
    5   14    3     -0.39      0.00
    8   14    3      3.79      0.00
    9   14    3     12.02      0.00
   10   14    3     -3.74      0.00
   11   14    3     10.82      0.00
   12   14    3      4.68      0.00
   13   14    3     -9.45      0.00
    8   15    3     -8.82      0.00
    9   15    3     -3.04      0.00
   10   15    3      2.21      0.00
   11   15    3      5.64      0.00
   12   15    3      0.27      0.00
   13   15    3     -0.70      0.00
   14   15    3     -2.21      0.00
    5   16    3     -4.02      0.00
    6   16    3      2.96      0.00
    9   16    3      7.96      0.00
   10   16    3      6.09      0.00
   11   16    3    -14.28      0.00
   12   16    3      6.94      0.00
   13   16    3      7.58      0.00
   14   16    3     -3.87      0.00
    0   17    3    -11.30      0.00
    1   17    3     10.82      0.00
    8   17    3    -18.78      0.00
    9   17    3      8.13      0.00
   10   17    3      1.95      0.00
   11   17    3     -0.04      0.00
   12   17    3      8.83      0.00
   13   17    3      0.08      0.00
    6   18    3    -14.46      0.00
    9   18    3      4.10      0.00
   10   18    3      6.85      0.00
   11   18    3     -3.26      0.00
    0   19    3      4.07      0.00
    1   19    3      1.71      0.00
    2   19    3      9.82      0.00
    8   19    3      3.55      0.00
    9   19    3      3.94      0.00
    5    6    4      4.26      0.00
    6    6    4     39.83      0.00
    4    7    4    -29.47      0.00
    7    7    4     -3.59      0.00
    0    8    4     81.34      0.00
    1    8    4     43.48      0.00
    2    8    4    -44.10      0.00
    7    8    4     -7.36      0.00
    8    8    4    -11.94      0.00
    8    9    4      8.36      0.00
    9    9    4    -11.51      0.00
    6   10    4     -3.48      0.00
    8   10    4     -1.48      0.00
    9   10    4     -6.04      0.00
   10   10    4    -12.41      0.00
    4   11    4    -10.75      0.00
    8   11    4      9.10      0.00
    9   11    4    -16.24      0.00
   10   11    4     -4.99      0.00
   11   11    4     16.35      0.00
    0   12    4      3.58      0.00
    8   12    4     13.17      0.00
    9   12    4      8.25      0.00
   10   12    4      8.54      0.00
   11   12    4     -0.37      0.00
   12   12    4    -14.76      0.00
    6   13    4      4.17      0.00
    7   13    4     -5.06      0.00
    8   13    4     10.67      0.00
    9   13    4      6.60      0.00
   10   13    4     10.89      0.00
   11   13    4      0.34      0.00
   12   13    4      4.60      0.00
   13   13    4     -7.00      0.00
    3   14    4     11.17      0.00
    4   14    4      2.57      0.00
    5   14    4     -5.53      0.00
    9   14    4      6.71      0.00
   10   14    4     -1.43      0.00
   11   14    4     -3.60      0.00
   12   14    4     -7.72      0.00
   13   14    4      0.06      0.00
   14   14    4     -3.72      0.00
    8   15    4    -14.67      0.00
    9   15    4     -1.65      0.00
   10   15    4    -13.52      0.00
   11   15    4      2.72      0.00
   12   15    4     -0.54      0.00
   13   15    4     -3.78      0.00
   14   15    4      2.15      0.00
   15   15    4     -3.15      0.00
    5   16    4     -8.69      0.00
    9   16    4     -5.32      0.00
   10   16    4     -8.53      0.00
   11   16    4     -6.84      0.00
   12   16    4      5.10      0.00
   13   16    4      6.65      0.00
   14   16    4      1.68      0.00
    1   17    4     19.78      0.00
    8   17    4     -9.26      0.00
    9   17    4      2.38      0.00
   10   17    4     12.43      0.00
   11   17    4      5.54      0.00
   12   17    4      0.70      0.00
    5   18    4     11.87      0.00
    6   18    4    -16.20      0.00
    8   18    4     -5.44      0.00
    9   18    4      3.37      0.00
   10   18    4      8.76      0.00
   11   18    4     -0.71      0.00
    1   19    4    -11.74      0.00
    8   19    4     -7.65      0.00
    9   19    4      6.33      0.00
    7   20    4     -0.80      0.00
    5    6    5     41.85      0.00
    3    7    5     59.64      0.00
    4    7    5    -29.61      0.00
    1    8    5      8.57      0.00
    7    9    5      1.75      0.00
    8    9    5      9.21      0.00
    6   10    5    -12.73      0.00
    8   10    5      7.46      0.00
    9   10    5    -14.51      0.00
    3   11    5    -11.22      0.00
    4   11    5     10.53      0.00
    8   11    5     -1.72      0.00
    9   11    5      2.62      0.00
   10   11    5      9.84      0.00
    8   12    5     -3.04      0.00
    9   12    5      9.67      0.00
   10   12    5     -0.84      0.00
   11   12    5    -12.13      0.00
    6   13    5     -1.17      0.00
    7   13    5      0.81      0.00
    8   13    5     -6.85      0.00
    9   13    5     -4.46      0.00
   10   13    5      1.44      0.00
   11   13    5     -2.01      0.00
   12   13    5      5.26      0.00
    2   14    5     -2.75      0.00
    3   14    5      3.35      0.00
    4   14    5    -11.21      0.00
    9   14    5     -3.42      0.00
   10   14    5     -3.26      0.00
   11   14    5      1.66      0.00
   12   14    5      1.72      0.00
   13   14    5     -1.67      0.00
    7   15    5     -8.61      0.00
    8   15    5     -1.75      0.00
    9   15    5      0.85      0.00
   10   15    5     -8.22      0.00
   11   15    5     -1.16      0.00
   12   15    5      4.84      0.00
   13   15    5     -6.62      0.00
   14   15    5      0.68      0.00
    5   16    5    -31.39      0.00
    8   16    5    -13.10      0.00
    9   16    5     19.79      0.00
   10   16    5     -1.36      0.00
   11   16    5    -21.31      0.00
   12   16    5      6.59      0.00
   13   16    5      2.75      0.00
   14   16    5      3.61      0.00
    7   17    5     14.71      0.00
    8   17    5     -6.49      0.00
    9   17    5    -15.87      0.00
   10   17    5    -11.70      0.00
   11   17    5     -5.65      0.00
   12   17    5      3.61      0.00
    5   18    5     -6.42      0.00
    6   18    5    -15.05      0.00
    7   18    5      1.96      0.00
    8   18    5      4.03      0.00
    9   18    5     -5.68      0.00
   10   18    5      5.14      0.00
   11   18    5     -1.30      0.00
    0   19    5    -11.29      0.00
    1   19    5      1.82      0.00
    7   19    5     -4.91      0.00
    8   19    5     -2.80      0.00
    9   19    5      2.53      0.00
    6   20    5     -8.45      0.00
    7   20    5     -8.25      0.00
    5    6    6     17.86      0.00
    3    7    6    -13.05      0.00
    8    8    6     10.27      0.00
    7    9    6     25.04      0.00
    8    9    6      0.98      0.00
    9    9    6    -14.08      0.00
    5   10    6    -21.75      0.00
    6   10    6      3.20      0.00
    9   10    6      3.39      0.00
   10   10    6     -3.82      0.00
    2   11    6     -9.14      0.00
    3   11    6      6.92      0.00
    4   11    6     -2.27      0.00
    9   11    6     21.75      0.00
   10   11    6    -14.24      0.00
   11   11    6     18.37      0.00
    8   12    6      5.61      0.00
    9   12    6     -4.33      0.00
   10   12    6     -0.04      0.00
   11   12    6    -12.41      0.00
   12   12    6      4.45      0.00
    6   13    6     -3.40      0.00
    8   13    6    -22.24      0.00
    9   13    6    -11.81      0.00
   10   13    6    -12.89      0.00
   11   13    6     -8.42      0.00
   12   13    6      8.02      0.00
   13   13    6     -0.20      0.00
    0   14    6    -15.82      0.00
    1   14    6     11.56      0.00
    2   14    6      0.54      0.00
    3   14    6      0.94      0.00
    4   14    6      7.69      0.00
    8   14    6     -0.24      0.00
    9   14    6      0.14      0.00
   10   14    6     -2.09      0.00
   11   14    6      4.93      0.00
   12   14    6      6.56      0.00
   13   14    6     -1.92      0.00
   14   14    6      8.16      0.00
    7   15    6     -3.77      0.00
    8   15    6    -19.51      0.00
    9   15    6     19.71      0.00
   10   15    6      3.53      0.00
   11   15    6     -3.02      0.00
   12   15    6     -1.34      0.00
   13   15    6     -5.13      0.00
   14   15    6     -2.22      0.00
   15   15    6    -14.55      0.00
    4   16    6      0.12      0.00
    5   16    6      1.86      0.00
    7   16    6     21.58      0.00
    8   16    6      6.05      0.00
    9   16    6     -4.42      0.00
   10   16    6     -7.69      0.00
   11   16    6      0.13      0.00
   12   16    6     -6.97      0.00
   13   16    6     -1.72      0.00
    7   17    6    -13.57      0.00
    8   17    6     -2.92      0.00
    9   17    6     11.59      0.00
   10   17    6      7.70      0.00
   11   17    6      6.05      0.00
   12   17    6    -11.47      0.00
    5   18    6     -4.97      0.00
    7   18    6     25.51      0.00
    8   18    6      2.45      0.00
    9   18    6     -2.02      0.00
   10   18    6     -9.84      0.00
   11   18    6     -0.57      0.00
    7   19    6     18.54      0.00
    8   19    6     -6.83      0.00
    9   19    6    -12.35      0.00
    5   20    6     -7.03      0.00
    6   20    6     13.22      0.00
    7   20    6     -1.76      0.00
    4    6    7    -20.59      0.00
    0    7    7      0.67      0.00
    1    7    7      3.42      0.00
    2    7    7     13.45      0.00
    3    7    7      0.03      0.00
    7    9    7    -18.14      0.00
    5   10    7     -2.88      0.00
    9   10    7      1.94      0.00
    0   11    7     43.91      0.00
    1   11    7    -13.36      0.00
    2   11    7      4.99      0.00
    3   11    7      7.31      0.00
    9   11    7      1.00      0.00
   10   11    7     14.08      0.00
    7   12    7     14.51      0.00
    8   12    7     -1.82      0.00
    9   12    7     -0.72      0.00
   10   12    7      3.72      0.00
   11   12    7     -4.94      0.00
    5   13    7     11.53      0.00
    6   13    7     -0.31      0.00
    8   13    7     14.83      0.00
    9   13    7    -10.86      0.00
   10   13    7     13.39      0.00
   11   13    7     -8.82      0.00
   12   13    7    -20.37      0.00
    1   14    7     16.74      0.00
    2   14    7     12.30      0.00
    3   14    7    -10.61      0.00
    8   14    7     11.55      0.00
    9   14    7    -12.59      0.00
   10   14    7    -12.77      0.00
   11   14    7      4.51      0.00
   12   14    7      0.69      0.00
   13   14    7     12.28      0.00
    7   15    7     -9.08      0.00
    8   15    7    -20.53      0.00
    9   15    7     -1.82      0.00
   10   15    7     -1.54      0.00
   11   15    7      0.75      0.00
   12   15    7     14.86      0.00
   13   15    7     -0.82      0.00
   14   15    7      1.33      0.00
    3   16    7      5.53      0.00
    4   16    7    -11.55      0.00
    8   16    7     -7.21      0.00
    9   16    7     22.93      0.00
   10   16    7     14.40      0.00
   11   16    7      9.51      0.00
   12   16    7      8.34      0.00
   13   16    7     -2.76      0.00
    7   17    7      4.37      0.00
    8   17    7      6.72      0.00
    9   17    7     -0.37      0.00
   10   17    7      2.13      0.00
   11   17    7      6.55      0.00
   12   17    7     -5.82      0.00
    4   18    7     -4.56      0.00
    5   18    7      5.81      0.00
    7   18    7     -3.78      0.00
    8   18    7    -12.76      0.00
    9   18    7      6.17      0.00
   10   18    7     -0.64      0.00
   11   18    7      4.83      0.00
    7   19    7    -23.99      0.00
    8   19    7     14.16      0.00
    9   19    7      0.71      0.00
    4   20    7    -11.02      0.00
    5   20    7     -4.35      0.00
    6   20    7    -10.23      0.00
    5    5    8     59.40      0.00
    3    6    8     42.53      0.00
    4    6    8    -10.22      0.00
    1    7    8     38.44      0.00
    2    7    8     23.48      0.00
    8    8    8    -10.58      0.00
    6    9    8      1.70      0.00
    9    9    8     11.78      0.00
    4   10    8    -14.86      0.00
    5   10    8     -1.87      0.00
    9   10    8      6.81      0.00
   10   10    8    -21.19      0.00
    1   11    8     12.12      0.00
    2   11    8    -19.55      0.00
    9   11    8     -9.70      0.00
   10   11    8     25.42      0.00
   11   11    8    -11.10      0.00
    7   12    8     10.39      0.00
    9   12    8      7.78      0.00
   10   12    8     14.50      0.00
   11   12    8     20.72      0.00
   12   12    8     -6.96      0.00
    5   13    8    -15.11      0.00
    6   13    8     -3.19      0.00
    8   13    8    -10.16      0.00
    9   13    8      6.61      0.00
   10   13    8      4.85      0.00
   11   13    8    -13.72      0.00
   12   13    8     11.33      0.00
   13   13    8     -6.37      0.00
    0   14    8     -6.92      0.00
    1   14    8      0.64      0.00
    2   14    8     -1.17      0.00
    3   14    8      2.92      0.00
    8   14    8     13.84      0.00
    9   14    8     12.93      0.00
   10   14    8    -13.06      0.00
   11   14    8     -5.51      0.00
   12   14    8     17.89      0.00
   13   14    8      0.01      0.00
   14   14    8      9.02      0.00
    6   15    8     -2.18      0.00
    7   15    8    -22.07      0.00
    8   15    8      8.82      0.00
    9   15    8     -6.22      0.00
   10   15    8      6.75      0.00
   11   15    8     14.62      0.00
   12   15    8     -3.31      0.00
   13   15    8      0.61      0.00
   14   15    8     -5.29      0.00
    2   16    8    -11.55      0.00
    3   16    8     -6.70      0.00
    4   16    8      2.23      0.00
    8   16    8    -18.10      0.00
    9   16    8     20.49      0.00
   10   16    8    -18.20      0.00
   11   16    8      1.88      0.00
   12   16    8      1.97      0.00
   13   16    8      4.25      0.00
    7   17    8     -7.96      0.00
    8   17    8     -1.41      0.00
    9   17    8     10.53      0.00
   10   17    8      0.87      0.00
   11   17    8     -0.17      0.00
   12   17    8     -0.65      0.00
    3   18    8      0.93      0.00
    4   18    8     -5.40      0.00
    5   18    8    -10.70      0.00
    8   18    8     11.61      0.00
    9   18    8     -0.77      0.00
   10   18    8      4.37      0.00
    7   19    8    -12.48      0.00
    8   19    8     -4.37      0.00
    3   20    8    -12.89      0.00
    4   20    8     -1.65      0.00
    5   20    8     -3.10      0.00
    6   20    8      2.99      0.00
    4    5    9     13.80      0.00
    2    6    9      3.82      0.00
    3    6    9    -26.35      0.00
    0    7    9     -5.82      0.00
    7    8    9     32.21      0.00
    6    9    9     16.37      0.00
    4   10    9     -1.05      0.00
    9   10    9      3.69      0.00
    0   11    9     34.16      0.00
    1   11    9     -5.29      0.00
    8   11    9     -5.35      0.00
    9   11    9     25.75      0.00
   10   11    9     -2.70      0.00
    7   12    9     -3.34      0.00
    8   12    9      7.17      0.00
   10   12    9      0.11      0.00
   11   12    9      8.84      0.00
    4   13    9    -13.94      0.00
    5   13    9     11.87      0.00
    8   13    9     -8.70      0.00
    9   13    9    -18.67      0.00
   10   13    9     -8.21      0.00
   11   13    9      5.35      0.00
   12   13    9    -12.96      0.00
    1   14    9      3.95      0.00
    2   14    9      0.11      0.00
    8   14    9    -13.04      0.00
    9   14    9      5.09      0.00
   10   14    9     -2.58      0.00
   11   14    9     26.73      0.00
   12   14    9      4.09      0.00
   13   14    9     -3.57      0.00
    6   15    9     18.77      0.00
    8   15    9     -4.96      0.00
    9   15    9      1.60      0.00
   10   15    9    -13.16      0.00
   11   15    9      0.03      0.00
   12   15    9     -2.66      0.00
   13   15    9     -0.22      0.00
   14   15    9     -2.05      0.00
    1   16    9     -4.91      0.00
    2   16    9      1.17      0.00
    3   16    9     22.31      0.00
    8   16    9      9.98      0.00
    9   16    9     -2.83      0.00
   10   16    9     -6.85      0.00
   11   16    9      1.71      0.00
   12   16    9      1.58      0.00
   13   16    9     -3.46      0.00
    7   17    9      2.77      0.00
    8   17    9      0.24      0.00
    9   17    9     -5.30      0.00
   10   17    9     -8.80      0.00
   11   17    9      4.47      0.00
   12   17    9      2.10      0.00
    2   18    9     -9.27      0.00
    3   18    9      2.04      0.00
    4   18    9     12.32      0.00
    8   18    9     -6.72      0.00
    9   18    9      4.15      0.00
   10   18    9     -6.42      0.00
    6   19    9      0.33      0.00
    7   19    9      4.32      0.00
    8   19    9     -2.27      0.00
    3   20    9      4.89      0.00
    4   20    9     -9.06      0.00
    5   20    9      9.89      0.00
    0    0   10    -22.84      0.00
    0    2   10     68.75      0.00
    4    4   10      9.58      0.00
    3    5   10     31.61      0.00
    4    5   10     22.71      0.00
    0    6   10     12.06      0.00
    1    6   10     29.01      0.00
    2    6   10     15.22      0.00
    7    8   10     -6.65      0.00
    5    9   10    -15.11      0.00
    6    9   10     -4.95      0.00
    2   10   10     -8.82      0.00
    3   10   10      2.64      0.00
    4   10   10      3.39      0.00
    9   10   10    -15.72      0.00
   10   10   10      8.24      0.00
    8   11   10      0.67      0.00
   10   11   10      8.11      0.00
   11   11   10      5.40      0.00
    6   12   10    -10.16      0.00
    7   12   10      2.49      0.00
   10   12   10     17.67      0.00
   11   12   10     12.65      0.00
   12   12   10    -11.39      0.00
    3   13   10    -14.44      0.00
    4   13   10      1.39      0.00
    5   13   10     25.85      0.00
    9   13   10    -11.38      0.00
   10   13   10      2.58      0.00
   11   13   10     -0.45      0.00
   12   13   10      2.63      0.00
   13   13   10     -6.22      0.00
    8   14   10    -10.41      0.00
    9   14   10      5.69      0.00
   10   14   10     -0.71      0.00
   11   14   10     -6.76      0.00
   12   14   10     -2.95      0.00
   13   14   10      0.32      0.00
   14   14   10     -7.88      0.00
    5   15   10     -8.55      0.00
    6   15   10     -1.89      0.00
    9   15   10      6.93      0.00
   10   15   10     -6.13      0.00
   11   15   10      9.07      0.00
   12   15   10     -2.50      0.00
   13   15   10     -9.51      0.00
   14   15   10     -6.21      0.00
    0   16   10     -6.49      0.00
    1   16   10      1.52      0.00
    2   16   10      7.54      0.00
    8   16   10     13.42      0.00
    9   16   10     -9.16      0.00
   10   16   10      3.48      0.00
   11   16   10     -1.42      0.00
   12   16   10     -9.90      0.00
   13   16   10      1.98      0.00
    6   17   10      7.82      0.00
    8   17   10    -16.45      0.00
    9   17   10    -11.43      0.00
   10   17   10      4.69      0.00
   11   17   10    -11.35      0.00
    0   18   10     -5.81      0.00
    1   18   10     -6.86      0.00
    2   18   10     -5.19      0.00
    3   18   10    -11.71      0.00
    8   18   10      5.74      0.00
    9   18   10      4.79      0.00
   10   18   10      5.41      0.00
    6   19   10     -9.27      0.00
    7   19   10      8.41      0.00
    8   19   10     -0.43      0.00
    0   20   10      5.77      0.00
    2   20   10     -6.29      0.00
    3   20   10    -22.64      0.00
    4   20   10     -4.43      0.00
    5   20   10     -3.40      0.00
    0    5   11     25.35      0.00
    1    5   11     -0.57      0.00
    2    5   11     23.81      0.00
    3    5   11     53.20      0.00
    6    8   11     -9.31      0.00
    4    9   11     -5.17      0.00
    5    9   11    -26.44      0.00
    1   10   11      8.13      0.00
    2   10   11    -15.04      0.00
    3   10   11     13.04      0.00
    9   10   11      5.99      0.00
    7   11   11     -2.72      0.00
    8   11   11     16.39      0.00
    5   12   11     18.37      0.00
    6   12   11     22.39      0.00
   10   12   11    -10.67      0.00
   11   12   11      9.20      0.00
    0   13   11      9.23      0.00
    1   13   11    -20.15      0.00
    2   13   11      3.95      0.00
    3   13   11      0.81      0.00
    4   13   11     11.99      0.00
    9   13   11     10.64      0.00
   11   13   11    -14.28      0.00
   12   13   11     -1.95      0.00
    7   14   11     11.04      0.00
    9   14   11     10.11      0.00
   10   14   11     -3.26      0.00
   11   14   11     12.88      0.00
   12   14   11      5.28      0.00
   13   14   11      0.52      0.00
    5   15   11      6.98      0.00
    9   15   11      7.91      0.00
   10   15   11      7.47      0.00
   11   15   11    -10.13      0.00
   12   15   11     -2.09      0.00
   13   15   11     -0.74      0.00
   14   15   11     -0.58      0.00
    8   16   11     12.45      0.00
    9   16   11      3.45      0.00
   10   16   11     -6.29      0.00
   11   16   11     -8.53      0.00
   12   16   11    -10.32      0.00
    5   17   11    -17.65      0.00
    6   17   11      1.29      0.00
    9   17   11     -0.38      0.00
   10   17   11     -8.83      0.00
   11   17   11      9.27      0.00
    1   18   11      6.38      0.00
    2   18   11      3.84      0.00
    8   18   11      1.78      0.00
    9   18   11      4.73      0.00
    6   19   11      1.74      0.00
    7   19   11     -2.23      0.00
    1   20   11     -4.72      0.00
    2   20   11     -2.94      0.00
    3   20   11      5.83      0.00
    4   20   11     -1.63      0.00
    3    3   12     30.86      0.00
    2    4   12     10.37      0.00
    3    4   12     -5.86      0.00
    1    5   12     -1.51      0.00
    7    7   12     -3.09      0.00
    6    8   12     -7.98      0.00
    3    9   12     -1.51      0.00
    4    9   12    -13.06      0.00
    9    9   12    -32.59      0.00
    0   10   12     23.93      0.00
    1   10   12     -3.19      0.00
    8   10   12     17.02      0.00
    7   11   12     -2.91      0.00
   11   11   12     19.81      0.00
    4   12   12     -1.64      0.00
    5   12   12      0.57      0.00
    6   12   12     -1.46      0.00
   10   12   12     11.77      0.00
   11   12   12      1.01      0.00
   12   12   12    -24.10      0.00
    1   13   12    -10.84      0.00
    2   13   12     -0.19      0.00
    3   13   12      9.67      0.00
    8   13   12    -15.32      0.00
   11   13   12     -0.48      0.00
   12   13   12      0.71      0.00
   13   13   12     10.09      0.00
    7   14   12    -21.83      0.00
    9   14   12      5.55      0.00
   10   14   12      0.48      0.00
   11   14   12     12.06      0.00
   12   14   12      0.29      0.00
   13   14   12      2.65      0.00
   14   14   12     11.14      0.00
    3   15   12     30.20      0.00
    4   15   12     -2.98      0.00
    9   15   12    -30.20      0.00
   10   15   12      1.71      0.00
   11   15   12    -10.09      0.00
   12   15   12      1.49      0.00
   13   15   12      3.98      0.00
    7   16   12    -11.99      0.00
    8   16   12      4.21      0.00
    9   16   12    -17.43      0.00
   10   16   12      5.07      0.00
   11   16   12      1.37      0.00
   12   16   12      2.08      0.00
    4   17   12      7.44      0.00
    5   17   12      8.31      0.00
    9   17   12    -13.70      0.00
   10   17   12      8.15      0.00
   11   17   12      8.08      0.00
    9   18   12     -5.48      0.00
    5   19   12     15.88      0.00
    6   19   12      3.90      0.00
    7   19   12     10.76      0.00
    0   20   12     -1.08      0.00
    1   20   12     -6.76      0.00
    2   20   12     11.82      0.00
    3   20   12     -4.88      0.00
    1    3   13     -4.23      0.00
    2    3   13    -23.45      0.00
    1    4   13     -3.37      0.00
    2    4   13     19.90      0.00
    6    7   13     -7.25      0.00
    5    8   13     -1.18      0.00
    0    9   13    -37.98      0.00
    1    9   13      5.24      0.00
    2    9   13    -22.36      0.00
    3    9   13      8.29      0.00
    8   10   13    -19.58      0.00
    6   11   13     -1.49      0.00
    7   11   13      2.17      0.00
    3   12   13     -9.37      0.00
    4   12   13    -20.18      0.00
    5   12   13     -6.43      0.00
   11   12   13     16.08      0.00
    0   13   13      9.73      0.00
    1   13   13     25.16      0.00
    8   13   13    -14.11      0.00
   11   13   13      2.32      0.00
   12   13   13      6.04      0.00
    6   14   13     -4.51      0.00
    9   14   13     -2.88      0.00
   10   14   13     15.50      0.00
   11   14   13    -15.23      0.00
   12   14   13      0.81      0.00
   13   14   13      1.26      0.00
    1   15   13    -12.73      0.00
    2   15   13     43.30      0.00
    3   15   13     34.73      0.00
    9   15   13    -13.61      0.00
   10   15   13     16.66      0.00
   11   15   13     -6.17      0.00
   12   15   13     -4.14      0.00
   13   15   13      1.83      0.00
    7   16   13     -5.25      0.00
    9   16   13     -1.69      0.00
   10   16   13     -3.43      0.00
   11   16   13      0.76      0.00
   12   16   13      6.24      0.00
    3   17   13      7.49      0.00
    4   17   13      9.42      0.00
    5   17   13      3.84      0.00
    9   17   13     -3.91      0.00
   10   17   13     12.18      0.00
    9   18   13     -1.76      0.00
    4   19   13     -2.51      0.00
    5   19   13    -20.73      0.00
    6   19   13      1.44      0.00
    1   20   13     -2.45      0.00
    2   20   13     -2.24      0.00
    0    0   14     46.54      0.00
    1    1   14      5.79      0.00
    0    2   14    -52.44      0.00
    1    2   14     27.96      0.00
    2    2   14      8.05      0.00
    1    3   14    -13.28      0.00
    6    6   14     18.42      0.00
    5    7   14     -2.56      0.00
    6    7   14    -31.61      0.00
    3    8   14      2.66      0.00
    4    8   14     -5.44      0.00
    8    8   14     26.37      0.00
    1    9   14     -3.30      0.00
    2    9   14    -16.51      0.00
    8    9   14     -7.07      0.00
    7   10   14     -3.29      0.00
    5   11   14     -9.56      0.00
    6   11   14     11.75      0.00
   10   11   14     -4.20      0.00
   11   11   14     16.50      0.00
    0   12   14     10.16      0.00
    1   12   14      3.83      0.00
    2   12   14    -19.07      0.00
    3   12   14      8.90      0.00
    4   12   14     19.06      0.00
    9   12   14     11.61      0.00
   12   12   14     -8.30      0.00
    7   13   14     -7.28      0.00
   11   13   14     -4.82      0.00
   12   13   14     -4.33      0.00
   13   13   14      9.21      0.00
    5   14   14    -18.78      0.00
    9   14   14     -2.74      0.00
   10   14   14     27.47      0.00
   11   14   14     10.81      0.00
   12   14   14      5.55      0.00
   13   14   14     -5.27      0.00
   14   14   14      7.50      0.00
    1   15   14     13.21      0.00
    2   15   14     12.19      0.00
    8   15   14     12.21      0.00
    9   15   14    -13.57      0.00
   10   15   14     -0.80      0.00
   11   15   14     -0.03      0.00
   12   15   14      0.50      0.00
   13   15   14     -8.76      0.00
    6   16   14     -3.22      0.00
    7   16   14      0.43      0.00
    9   16   14      6.95      0.00
   10   16   14      6.04      0.00
   11   16   14     -1.10      0.00
    1   17   14      3.40      0.00
    2   17   14      0.08      0.00
    3   17   14     23.22      0.00
    4   17   14      7.18      0.00
    9   17   14     10.59      0.00
   10   17   14      0.92      0.00
    1   19   14      2.80      0.00
    2   19   14      2.60      0.00
    3   19   14     -6.13      0.00
    4   19   14     10.90      0.00
    5   19   14      6.82      0.00
    6   19   14     -0.92      0.00
    0    1   15    -58.24      0.00
    4    7   15     18.38      0.00
    5    7   15     -9.05      0.00
    1    8   15    -23.86      0.00
    2    8   15     11.67      0.00
    3    8   15     -3.88      0.00
    7    8   15      0.72      0.00
    8    9   15     10.46      0.00
    6   10   15     14.44      0.00
    7   10   15     18.79      0.00
    4   11   15     -4.78      0.00
    5   11   15     10.96      0.00
    1   12   15    -14.79      0.00
    2   12   15     -1.74      0.00
    3   12   15      6.46      0.00
    8   12   15     14.59      0.00
    7   13   15    -10.88      0.00
   11   13   15      9.14      0.00
   12   13   15     12.60      0.00
    4   14   15     14.65      0.00
    5   14   15    -13.73      0.00
    9   14   15    -16.11      0.00
   12   14   15    -12.05      0.00
   13   14   15     -1.94      0.00
    8   15   15     -3.27      0.00
    9   15   15      4.63      0.00
   10   15   15      5.61      0.00
   11   15   15    -20.34      0.00
   12   15   15     -7.96      0.00
    5   16   15      5.99      0.00
    6   16   15    -12.78      0.00
    8   16   15      8.10      0.00
    9   16   15    -29.39      0.00
   10   16   15      0.20      0.00
   11   16   15      3.22      0.00
    0   17   15     13.39      0.00
    1   17   15     -3.60      0.00
    2   17   15     -0.93      0.00
    8   17   15      1.64      0.00
    9   17   15    -14.04      0.00
    8   18   15     -9.92      0.00
    0   19   15    -18.80      0.00
    1   19   15      6.86      0.00
    2   19   15      8.20      0.00
    3   19   15     15.51      0.00
    4   19   15     -1.64      0.00
    5   19   15      0.65      0.00
    4    6   16     21.44      0.00
    5    6   16     27.07      0.00
    2    7   16     41.75      0.00
    3    7   16      8.14      0.00
    4    7   16     11.82      0.00
    7    7   16     12.18      0.00
    0    8   16     33.64      0.00
    1    8   16     10.04      0.00
    6    8   16      6.74      0.00
    8    8   16    -21.53      0.00
    5    9   16     -2.39      0.00
    7    9   16     -6.06      0.00
    5   10   16    -10.99      0.00
    6   10   16     30.66      0.00
   10   10   16      0.58      0.00
    2   11   16    -14.27      0.00
    3   11   16      5.28      0.00
    4   11   16    -21.56      0.00
    9   11   16    -14.41      0.00
    8   12   16     14.80      0.00
   12   12   16     19.42      0.00
    6   13   16    -10.68      0.00
   10   13   16     -4.89      0.00
   12   13   16     12.57      0.00
   13   13   16      4.12      0.00
    1   14   16    -23.92      0.00
    2   14   16    -10.03      0.00
    3   14   16     12.28      0.00
    9   14   16    -10.93      0.00
   12   14   16      1.83      0.00
   13   14   16     -5.33      0.00
    7   15   16      1.82      0.00
    8   15   16     -8.94      0.00
    9   15   16     -0.81      0.00
   10   15   16     -9.53      0.00
   11   15   16      1.73      0.00
   12   15   16      1.50      0.00
    4   16   16      5.54      0.00
    5   16   16     -2.31      0.00
    7   16   16     -5.23      0.00
    8   16   16      2.42      0.00
    9   16   16     -2.03      0.00
   10   16   16     -2.15      0.00
   11   16   16      2.36      0.00
    7   17   16     -1.58      0.00
    8   17   16     -0.80      0.00
    9   17   16     -6.93      0.00
    7   18   16     -9.57      0.00
    1   19   16      4.99      0.00
    2   19   16     -1.48      0.00
    3   19   16      9.73      0.00
    4   19   16    -15.82      0.00
    3    6   17    -32.48      0.00
    4    6   17     32.48      0.00
    0    7   17     41.16      0.00
    1    7   17     -0.29      0.00
    2    7   17     15.16      0.00
    6    7   17      8.54      0.00
    5    8   17     -0.28      0.00
    7    8   17    -20.87      0.00
    6    9   17    -21.09      0.00
    7    9   17     16.87      0.00
    4   10   17     -0.40      0.00
    5   10   17     -0.85      0.00
    0   11   17    -44.53      0.00
    1   11   17     15.50      0.00
    2   11   17      4.42      0.00
    3   11   17     -8.67      0.00
    7   12   17    -22.30      0.00
   11   12   17     -5.88      0.00
    5   13   17    -11.22      0.00
   10   13   17     14.13      0.00
   12   13   17    -10.54      0.00
    1   14   17     21.28      0.00
    8   14   17     -5.75      0.00
   12   14   17     -5.62      0.00
   13   14   17     -2.19      0.00
    6   15   17     -1.99      0.00
    7   15   17    -17.38      0.00
    8   15   17     -2.15      0.00
    9   15   17    -11.45      0.00
   10   15   17      8.37      0.00
   11   15   17      1.07      0.00
    2   16   17      9.81      0.00
    3   16   17      9.63      0.00
    4   16   17    -17.20      0.00
    6   16   17     10.67      0.00
    7   16   17      8.88      0.00
    8   16   17     11.38      0.00
    9   16   17      4.69      0.00
   10   16   17      2.61      0.00
    6   17   17     -2.48      0.00
    7   17   17      5.13      0.00
    8   17   17      4.01      0.00
    6   18   17     -1.04      0.00
    0   19   17     -5.12      0.00
    1   19   17      8.67      0.00
    2   19   17      2.14      0.00
    0    0   18    -57.72      0.00
    4    4   18     42.23      0.00
    3    5   18    -12.94      0.00
    4    5   18     -7.07      0.00
    0    6   18      1.51      0.00
    1    6   18    -10.10      0.00
    2    6   18     15.95      0.00
    6    6   18     -9.26      0.00
    5    7   18     -3.00      0.00
    7    8   18     13.81      0.00
    5    9   18    -25.82      0.00
    6    9   18      4.50      0.00
    2   10   18      1.41      0.00
    3   10   18     12.96      0.00
    4   10   18     -7.91      0.00
    9   10   18     11.25      0.00
    8   11   18    -14.12      0.00
    6   12   18    -27.62      0.00
    3   13   18    -14.28      0.00
    4   13   18    -15.55      0.00
    9   13   18     -0.67      0.00
   13   13   18     -9.95      0.00
    7   14   18    -10.21      0.00
    8   14   18    -11.15      0.00
   12   14   18      0.73      0.00
    5   15   18     -4.88      0.00
    6   15   18     -9.91      0.00
    7   15   18     -1.43      0.00
    8   15   18      4.38      0.00
    9   15   18     -0.95      0.00
   10   15   18     -0.42      0.00
   11   15   18     14.98      0.00
    0   16   18     21.01      0.00
    1   16   18     -0.09      0.00
    2   16   18     22.80      0.00
    5   16   18      0.92      0.00
    6   16   18    -11.23      0.00
    7   16   18     14.84      0.00
    8   16   18      4.22      0.00
    9   16   18      4.63      0.00
    5   17   18      2.57      0.00
    6   17   18      7.10      0.00
    7   17   18      7.22      0.00
    8   17   18    -12.72      0.00
    5   18   18     -0.29      0.00
    2    4   19     55.13      0.00
    3    4   19     53.68      0.00
    0    5   19     13.62      0.00
    1    5   19     40.41      0.00
    2    5   19     53.07      0.00
    5    6   19     -8.96      0.00
    5    8   19    -17.32      0.00
    6    8   19    -11.20      0.00
    3    9   19      6.45      0.00
    4    9   19      9.04      0.00
    5    9   19     21.08      0.00
    1   10   19     10.24      0.00
    2   10   19      9.65      0.00
    8   10   19     -0.86      0.00
    7   11   19      4.62      0.00
    5   12   19     -6.75      0.00
   10   12   19    -13.77      0.00
    0   13   19    -21.86      0.00
    1   13   19    -23.80      0.00
    2   13   19     10.12      0.00
    9   13   19      9.18      0.00
    7   14   19     -6.68      0.00
   12   14   19      2.05      0.00
    3   15   19     -4.73      0.00
    4   15   19    -16.62      0.00
    5   15   19    -15.71      0.00
    6   15   19      5.64      0.00
    7   15   19      3.85      0.00
    8   15   19    -13.30      0.00
    9   15   19      1.75      0.00
   10   15   19     -2.63      0.00
    4   16   19     19.26      0.00
    5   16   19      1.62      0.00
    6   16   19     12.27      0.00
    7   16   19     17.88      0.00
    8   16   19     -4.11      0.00
    9   16   19      0.70      0.00
    4   17   19      1.07      0.00
    5   17   19      1.78      0.00
    6   17   19     -0.11      0.00
    7   17   19     -2.54      0.00
    4   18   19      2.68      0.00
    0    0   20      6.69      0.00
    0    2   20    -26.27      0.00
    1    2   20      0.89      0.00
    2    2   20     35.60      0.00
    1    3   20      1.91      0.00
    2    3   20      4.13      0.00
    3    3   20     19.05      0.00
    0    4   20     74.20      0.00
    1    4   20     -9.13      0.00
    5    5   20    -24.34      0.00
    4    6   20     -7.52      0.00
    6    7   20    -23.97      0.00
    7    7   20    -17.76      0.00
    4    8   20     12.92      0.00
    5    8   20     15.02      0.00
    1    9   20    -13.19      0.00
    2    9   20     -4.28      0.00
    3    9   20    -20.84      0.00
    9    9   20     -6.07      0.00
    7   10   20     10.90      0.00
    6   11   20    -14.28      0.00
   10   11   20     -4.85      0.00
    3   12   20     -8.44      0.00
    4   12   20    -16.02      0.00
    9   12   20      0.66      0.00
    8   13   20     22.52      0.00
   12   13   20     -4.92      0.00
    5   14   20      5.35      0.00
    6   14   20     -0.41      0.00
   11   14   20     -5.18      0.00
    1   15   20     -1.94      0.00
    2   15   20    -10.12      0.00
    3   15   20      5.27      0.00
    4   15   20     -6.56      0.00
    5   15   20     26.12      0.00
    6   15   20    -10.90      0.00
    7   15   20      2.98      0.00
   10   15   20      4.37      0.00
    2   16   20    -12.78      0.00
    3   16   20     12.67      0.00
    4   16   20      3.65      0.00
    5   16   20      2.05      0.00
    6   16   20      4.12      0.00
    7   16   20      0.98      0.00
    8   16   20     -4.87      0.00
    3   17   20    -10.27      0.00
    4   17   20     -1.39      0.00
    5   17   20    -10.80      0.00
    6   17   20      0.49      0.00
    0   18   20    -15.33      0.00
    1   18   20     -5.46      0.00
    2   18   20     10.20      0.00
    0    1   21     -9.50      0.00
    4    5   21      3.24      0.00
    4    7   21     19.99      0.00
    5    7   21     17.30      0.00
    1    8   21     24.61      0.00
    2    8   21     16.60      0.00
    3    8   21     16.60      0.00
    4    8   21     10.62      0.00
    0    9   21      7.43      0.00
    1    9   21     -0.82      0.00
    8    9   21    -16.56      0.00
    6   10   21     12.34      0.00
    7   10   21    -10.31      0.00
    4   11   21      1.21      0.00
    5   11   21     -8.95      0.00
   10   11   21      5.93      0.00
    1   12   21    -25.92      0.00
    2   12   21      2.64      0.00
    8   12   21    -16.96      0.00
    9   12   21      8.03      0.00
    7   13   21     -4.64      0.00
   12   13   21    -18.96      0.00
    4   14   21     -1.58      0.00
    5   14   21     22.90      0.00
    0   15   21    -14.14      0.00
    2   15   21     -6.97      0.00
    3   15   21     -9.95      0.00
    4   15   21     14.80      0.00
    5   15   21     -7.31      0.00
    2   16   21     -2.27      0.00
    3   16   21     -0.35      0.00
    4   16   21      3.47      0.00
    5   16   21     -5.51      0.00
    6   16   21      0.63      0.00
    7   16   21      2.07      0.00
    2   17   21     21.95      0.00
    3   17   21    -18.88      0.00
    4   17   21      2.34      0.00
    5   17   21     -8.56      0.00
    0    0   22    -19.15      0.00
    5    5   22      0.87      0.00
    4    6   22     10.28      0.00
    5    6   22     14.46      0.00
    1    7   22      0.96      0.00
    2    7   22     25.86      0.00
    3    7   22     -6.09      0.00
    4    7   22    -20.14      0.00
    0    8   22     11.29      0.00
    1    8   22     -1.08      0.00
    8    8   22    -12.01      0.00
    7    9   22     -0.67      0.00
    5   10   22      5.30      0.00
   10   10   22     -9.37      0.00
    1   11   22    -16.99      0.00
    2   11   22      3.78      0.00
    3   11   22     10.75      0.00
    9   11   22      4.30      0.00
    7   12   22     -6.09      0.00
    8   12   22    -14.31      0.00
   12   12   22     15.81      0.00
    5   13   22     -9.80      0.00
    6   13   22    -12.41      0.00
   11   13   22     -8.05      0.00
    0   14   22      1.54      0.00
    1   14   22     -0.50      0.00
    2   14   22    -11.62      0.00
    3   14   22      1.83      0.00
   10   14   22     -1.24      0.00
    1   15   22     -1.28      0.00
    2   15   22    -12.79      0.00
    3   15   22     17.04      0.00
    4   15   22     -9.48      0.00
    0   16   22     14.01      0.00
    1   16   22    -20.84      0.00
    2   16   22      3.51      0.00
    3   16   22      7.98      0.00
    4   16   22     -0.91      0.00
    5   16   22     -2.97      0.00
    6   16   22      4.19      0.00
    1   17   22      1.90      0.00
    2   17   22      8.20      0.00
    3   17   22     -2.33      0.00
    3    5   23    -14.56      0.00
    4    5   23     -3.04      0.00
    1    6   23     13.99      0.00
    2    6   23    -15.88      0.00
    3    6   23     -9.95      0.00
    4    6   23    -27.04      0.00
    0    7   23    -27.66      0.00
    1    7   23    -15.05      0.00
    2    7   23    -21.34      0.00
    7    8   23     -8.92      0.00
    6    9   23      4.07      0.00
    3   10   23      3.45      0.00
    4   10   23     18.14      0.00
    9   10   23      2.07      0.00
    0   11   23     -7.55      0.00
    8   11   23     -7.10      0.00
    6   12   23      2.28      0.00
    7   12   23    -15.75      0.00
   11   12   23      9.58      0.00
    0   13   23     -4.39      0.00
    1   13   23     -1.49      0.00
    4   13   23    -14.37      0.00
    5   13   23     -2.73      0.00
   10   13   23     -1.11      0.00
    1   14   23     18.51      0.00
    9   14   23     -8.74      0.00
    0   15   23     21.56      0.00
    1   15   23      0.37      0.00
    2   15   23      6.46      0.00
    1   16   23      6.29      0.00
    2   16   23    -17.69      0.00
    3   16   23    -17.94      0.00
    4   16   23     17.89      0.00
    5   16   23      3.08      0.00
    0    0   24    -74.77      0.00
    3    3   24      6.07      0.00
    2    4   24     -2.71      0.00
    3    4   24     17.50      0.00
    4    4   24      5.73      0.00
    1    5   24     -8.13      0.00
    2    5   24      0.45      0.00
    3    5   24      4.84      0.00
    0    6   24    -22.52      0.00
    1    6   24    -10.99      0.00
    7    7   24      5.23      0.00
    6    8   24    -18.93      0.00
    4    9   24     -5.39      0.00
    9    9   24    -30.16      0.00
    0   10   24     15.05      0.00
    1   10   24     -3.42      0.00
    2   10   24    -20.84      0.00
    8   10   24     -6.56      0.00
    9   10   24     -8.24      0.00
    7   11   24     -0.74      0.00
   11   11   24     -2.01      0.00
    5   12   24    -10.96      0.00
    6   12   24     -4.67      0.00
   10   12   24      1.47      0.00
   11   12   24      0.18      0.00
    1   13   24      1.21      0.00
    2   13   24     -2.67      0.00
    3   13   24      8.44      0.00
    9   13   24      2.15      0.00
   10   13   24      7.35      0.00
    0   14   24     -1.59      0.00
    1   14   24      6.60      0.00
    8   14   24     11.37      0.00
    1   15   24     -4.96      0.00
    2   15   24      9.63      0.00
    0   16   24      0.92      0.00
    1   16   24      1.87      0.00
    2   16   24     -6.83      0.00
    3   16   24     -2.94      0.00
    4   16   24     -0.15      0.00
    0    1   25      2.53      0.00
    1    2   25     21.94      0.00
    0    3   25     -4.54      0.00
    1    3   25    -11.55      0.00
    2    3   25     29.53      0.00
    1    4   25     -9.56      0.00
    2    4   25      1.65      0.00
    6    7   25      6.96      0.00
    4    8   25     10.94      0.00
    5    8   25     43.85      0.00
    0    9   25    -13.65      0.00
    1    9   25    -17.46      0.00
    2    9   25     18.48      0.00
    7   10   25     -0.96      0.00
    8   10   25      3.41      0.00
    6   11   25     -7.99      0.00
   10   11   25     -5.99      0.00
    2   12   25    -12.58      0.00
    3   12   25      1.82      0.00
    4   12   25      7.08      0.00
    9   12   25     -1.91      0.00
   10   12   25      8.51      0.00
    8   13   25     -2.99      0.00
    9   13   25     -5.05      0.00
    1   14   25     -7.75      0.00
    2   14   25      5.68      0.00
    7   14   25      7.70      0.00
    0   15   25    -24.04      0.00
    1   15   25     -1.98      0.00
    2   15   25     -0.33      0.00
    5   15   25     -1.38      0.00
    0    0   26     42.35      0.00
    1    1   26     21.10      0.00
    0    2   26     29.57      0.00
    5    6   26     -4.58      0.00
    6    6   26      1.72      0.00
    3    7   26     23.88      0.00
    4    7   26     -7.19      0.00
    0    8   26    -18.67      0.00
    1    8   26      5.23      0.00
    2    8   26      5.81      0.00
    7    9   26    -12.67      0.00
    8    9   26      0.08      0.00
    6   10   26     -2.98      0.00
   10   10   26      4.82      0.00
    3   11   26    -11.71      0.00
    4   11   26     10.45      0.00
    5   11   26      9.06      0.00
    9   11   26      4.91      0.00
   10   11   26      0.39      0.00
    0   12   26    -10.00      0.00
    1   12   26     12.46      0.00
    2   12   26     -1.83      0.00
    8   12   26      8.01      0.00
    9   12   26     -4.39      0.00
    7   13   26     -1.44      0.00
    8   13   26    -11.10      0.00
    0   14   26     -6.98      0.00
    1   14   26     -8.94      0.00
    2   14   26      1.62      0.00
    5   14   26     -7.31      0.00
    6   14   26      1.05      0.00
    1   15   26     -2.63      0.00
    2   15   26      0.98      0.00
    3   15   26     -1.86      0.00
    0    1   27    -21.05      0.00
    4    5   27      1.73      0.00
    2    6   27    -28.57      0.00
    3    6   27     -2.38      0.00
    4    6   27     -6.65      0.00
    0    7   27    -12.61      0.00
    1    7   27    -12.20      0.00
    2    7   27     33.65      0.00
    7    8   27     18.50      0.00
    6    9   27      6.36      0.00
    7    9   27     22.24      0.00
    4   10   27     10.67      0.00
    5   10   27     33.63      0.00
    9   10   27     -4.94      0.00
    0   11   27    -16.06      0.00
    1   11   27      7.17      0.00
    2   11   27      4.81      0.00
    3   11   27     18.17      0.00
    8   11   27      5.03      0.00
    9   11   27     -3.69      0.00
   10   11   27     -0.21      0.00
    7   12   27      7.77      0.00
    8   12   27    -10.99      0.00
    5   13   27      4.61      0.00
    6   13   27     -6.02      0.00
    7   13   27     13.40      0.00
    1   14   27      9.91      0.00
    2   14   27      5.12      0.00
    3   14   27     -4.80      0.00
    4   14   27     -5.62      0.00
    5   14   27      3.36      0.00
    0    0   28    -24.25      0.00
    1    1   28    -16.28      0.00
    3    4   28    -17.38      0.00
    4    4   28    -27.40      0.00
    1    5   28    -10.45      0.00
    2    5   28    -19.39      0.00
    3    5   28     -6.61      0.00
    0    6   28     12.00      0.00
    7    7   28     19.40      0.00
    6    8   28      2.26      0.00
    4    9   28      7.89      0.00
    5    9   28     37.48      0.00
    9    9   28    -20.53      0.00
    0   10   28     -8.89      0.00
    1   10   28     -3.50      0.00
    2   10   28     18.62      0.00
    3   10   28      9.42      0.00
    8   10   28      7.62      0.00
    9   10   28      7.50      0.00
   10   10   28      1.35      0.00
    7   11   28      1.94      0.00
    8   11   28      1.39      0.00
    9   11   28     -3.99      0.00
    5   12   28     -7.17      0.00
    6   12   28     -7.37      0.00
    7   12   28      9.18      0.00
    3   13   28     -1.55      0.00
    4   13   28      2.95      0.00
    5   13   28      1.22      0.00
    0   14   28      1.99      0.00
    1   14   28      1.62      0.00
    2   14   28     -4.89      0.00
    0    1   29     19.23      0.00
    1    2   29     16.92      0.00
    0    3   29     10.01      0.00
    1    3   29    -14.06      0.00
    2    3   29      3.04      0.00
    1    4   29     -3.72      0.00
    6    7   29     -3.43      0.00
    4    8   29     -3.69      0.00
    5    8   29      5.22      0.00
    0    9   29    -10.67      0.00
    1    9   29     -2.46      0.00
    2    9   29     -6.43      0.00
    3    9   29    -16.79      0.00
    8    9   29     -7.20      0.00
    7   10   29     -6.46      0.00
    8   10   29     -0.62      0.00
    9   10   29      4.44      0.00
    5   11   29      9.35      0.00
    6   11   29      2.52      0.00
    7   11   29      9.62      0.00
    4   12   29     -2.22      0.00
    5   12   29     -2.31      0.00
    6   12   29      3.01      0.00
    0   13   29      9.14      0.00
    2   13   29     -2.11      0.00
    3   13   29     12.55      0.00
    0    0   30     16.42      0.00
    1    1   30     19.85      0.00
    0    2   30     -9.70      0.00
    1    2   30     -2.13      0.00
    2    2   30     -7.57      0.00
    5    6   30      8.50      0.00
    6    6   30     11.20      0.00
    3    7   30     30.23      0.00
    4    7   30    -25.17      0.00
    5    7   30     -2.95      0.00
    0    8   30      7.89      0.00
    1    8   30     -4.18      0.00
    2    8   30     16.62      0.00
    3    8   30     19.97      0.00
    8    8   30      5.41      0.00
    7    9   30    -16.69      0.00
    8    9   30     -6.42      0.00
    9    9   30     -9.02      0.00
    5   10   30      3.32      0.00
    6   10   30     -4.31      0.00
    7   10   30     16.06      0.00
    8   10   30      2.17      0.00
    4   11   30     -4.90      0.00
    5   11   30      5.12      0.00
    6   11   30      2.17      0.00
    2   12   30     -3.85      0.00
    3   12   30      3.86      0.00
    4   12   30     11.92      0.00
    0    1   31    -20.84      0.00
    1    2   31     11.20      0.00
    4    5   31    -33.22      0.00
    1    6   31     -1.19      0.00
    2    6   31    -17.24      0.00
    3    6   31    -12.66      0.00
    4    6   31     -7.87      0.00
    0    7   31     33.51      0.00
    1    7   31      8.70      0.00
    2    7   31    -25.16      0.00
    6    8   31      1.58      0.00
    7    8   31      1.85      0.00
    5    9   31     11.18      0.00
    6    9   31    -12.04      0.00
    7    9   31      9.39      0.00
    8    9   31     12.06      0.00
    4   10   31     -0.24      0.00
    5   10   31      4.25      0.00
    6   10   31     -7.76      0.00
    0   11   31    -10.90      0.00
    2   11   31     -6.28      0.00
    3   11   31     -2.89      0.00
    4   11   31      1.67      0.00
    1   12   31      0.41      0.00
    0    0   32     11.92      0.00
    1    1   32      3.12      0.00
    0    2   32    -16.36      0.00
    1    2   32     -1.59      0.00
    2    2   32     -5.88      0.00
    2    3   32     17.56      0.00
    3    3   32     -7.02      0.00
    0    4   32    -22.69      0.00
    1    4   32     14.05      0.00
    2    4   32      2.75      0.00
    3    4   32      7.43      0.00
    4    4   32    -11.57      0.00
    1    5   32      4.43      0.00
    2    5   32     -1.70      0.00
    6    7   32      1.68      0.00
    7    7   32      2.88      0.00
    5    8   32      7.27      0.00
    6    8   32     10.15      0.00
    7    8   32     -2.01      0.00
    4    9   32      1.75      0.00
    5    9   32     14.36      0.00
    6    9   32     -5.64      0.00
    0   10   32    -13.77      0.00
    3   10   32     -1.65      0.00
    4   10   32      5.74      0.00
    1   11   32     13.78      0.00
    0    1   33     -5.94      0.00
    1    2   33      1.56      0.00
    0    3   33      2.51      0.00
    1    3   33     -0.89      0.00
    2    3   33     -7.71      0.00
    5    6   33     -3.37      0.00
    5    7   33      1.51      0.00
    6    7   33      7.91      0.00
    4    8   33     -1.94      0.00
    5    8   33     -1.50      0.00
    6    8   33     -2.82      0.00
    0    9   33      6.82      0.00
    2    9   33    -14.53      0.00
    3    9   33     -0.46      0.00
    4    9   33     -9.32      0.00
    1   10   33      6.00      0.00
    0    0   34     30.19      0.00
    1    1   34     -1.43      0.00
    0    2   34     -4.20      0.00
    1    2   34      6.61      0.00
    2    2   34     -5.97      0.00
    1    3   34     11.02      0.00
    2    3   34      4.89      0.00
    3    3   34    -24.33      0.00
    4    4   34    -13.53      0.00
    5    5   34     -8.26      0.00
    0    6   34     -1.67      0.00
    4    6   34      0.92      0.00
    5    6   34    -11.43      0.00
    6    6   34      2.23      0.00
    3    7   34      6.14      0.00
    4    7   34    -16.16      0.00
    5    7   34     -9.29      0.00
    0    8   34      0.01      0.00
    2    8   34     -4.26      0.00
    3    8   34     -5.06      0.00
    4    8   34      5.48      0.00
    0    1   35     -8.20      0.00
    1    2   35      5.36      0.00
    0    3   35     10.92      0.00
    1    3   35     -2.02      0.00
    2    3   35     -0.88      0.00
    1    4   35     -9.85      0.00
    2    4   35     -3.63      0.00
    3    4   35      0.15      0.00
    0    5   35      9.81      0.00
    3    5   35    -19.95      0.00
    4    5   35     -1.56      0.00
    2    6   35    -10.70      0.00
    3    6   35     -5.82      0.00
    4    6   35      9.43      0.00
    0    7   35      5.86      0.00
    2    7   35      5.53      0.00
    3    7   35      1.56      0.00
    0    0    0      0.00      0.00
# SQUEEZE RESULTS (Version =  70515)
# Note: Data are Listed for all Voids in the P1 Unit Cell
# i.e. Centre of Gravity, Solvent Accessible Volume,
# Recovered number of Electrons in the Void and
# Details about the Squeezed Material
loop_
  _platon_squeeze_void_nr
  _platon_squeeze_void_average_x
  _platon_squeeze_void_average_y
  _platon_squeeze_void_average_z
  _platon_squeeze_void_volume
  _platon_squeeze_void_count_electrons
  _platon_squeeze_void_content
   1 -0.012  0.405 -0.003      8558      3204 ' '
# Missing Reflections Below sin(th)/lambda = 0.25
loop_
  _platon_missing_refln_index_h
  _platon_missing_refln_index_k
  _platon_missing_refln_index_l
  _platon_missing_refln_theta
    1    1    0     1.466
    2    2    0     2.933
    3    3    0     4.403
    4    4    0     5.875
    4    5    0     6.653
    5    5    0     7.350
    5    6    0     8.124
    6    6    0     8.831
    5    7    0     8.954
    6    7    0     9.602
    1    8    0     8.388
    2    8    0     8.581
    3    8    0     8.893
    0    1    1     1.196
    4    5    1     6.680
    5    6    1     8.146
    4    7    1     8.409
    5    7    1     8.974
    6    7    1     9.621
    1    8    1     8.409
    2    8    1     8.602
    3    8    1     8.913
    0    0    2     1.191
    4    4    2     5.995
    4    5    2     6.760
    5    5    2     7.447
    5    6    2     8.212
    6    6    2     8.913
    4    7    2     8.473
    5    7    2     9.034
    6    7    2     9.677
    0    8    2     8.409
    1    8    2     8.473
    2    8    2     8.664
    3    8    2     8.974
    4    5    3     6.891
    4    7    3     8.579
    6    7    3     9.770
    1    8    3     8.579
    2    8    3     8.768
    5    6    4     8.471
    6    6    4     9.152
    4    7    4     8.725
    0    8    4     8.662
    1    8    4     8.725
    2    8    4     8.910
    5    6    5     8.660
    3    7    5     8.469
    4    7    5     8.908
    1    8    5     8.908
    5    6    6     8.886
    3    7    6     8.700
    4    6    7     8.592
    0    7    7     8.399
    1    7    7     8.464
    2    7    7     8.655
    3    7    7     8.965
    5    5    8     8.777
    3    6    8     8.461
    4    6    8     8.901
    1    7    8     8.777
    2    7    8     8.962
    4    5    9     8.564
    2    6    9     8.500
    3    6    9     8.815
    0    7    9     9.060
    0    0   10     5.967
    0    2   10     6.320
    4    4   10     8.389
    3    5   10     8.518
    4    5   10     8.955
    0    6   10     8.645
    1    6   10     8.708
    2    6   10     8.894
    0    5   11     8.384
    1    5   11     8.449
    2    5   11     8.641
    3    5   11     8.951
    3    3   12     8.423
    2    4   12     8.551
    3    4   12     8.865
    1    5   12     8.926
    1    3   13     8.439
    2    3   13     8.631
    1    4   13     8.880
    2    4   13     9.063
    0    0   14     8.369
    1    1   14     8.498
    0    2   14     8.625
    1    2   14     8.688
    2    2   14     8.875
    1    3   14     8.997
    0    1   15     9.032
_platon_squeeze_void_probe_radius                  1.20
_platon_squeeze_details
)
TITL g2yy_11xneP 4/m n cl   R = 0.27
CELL   19.0375   19.0375   33.1330     90.00     90.00     90.00
SPGR P4/mnc
# Solvent Accessible Volume =    8634.3
# Electrons Found in S.A.V. =    3150.8
# Note: Atoms in Void as Cxxx and Qxxx all others
C101 0.982 0.988 0.195 !       2.26 eA-3
C102 0.607 0.297 0.403 !       2.16 eA-3
C103 0.883 0.077 0.243 !       1.95 eA-3
C104 1.000 0.996 0.320 !       1.74 eA-3
C105 0.812 0.197 0.345 !       1.73 eA-3
C106 0.315 0.392 0.344 !       1.68 eA-3
Q107 0.594 0.223 0.475 !       1.67 eA-3
C108 0.125 0.155 0.253 !       1.66 eA-3
C109 0.188 0.957 0.264 !       1.62 eA-3
C110 0.191 0.515 0.180 !       1.61 eA-3
C111 0.014 0.907 0.258 !       1.58 eA-3
Q112 0.376 0.635 0.280 !       1.57 eA-3
C113 0.418 0.625 0.229 !       1.53 eA-3
C114 0.939 0.488 0.382 !       1.51 eA-3
C115 0.286 0.910 0.143 !       1.50 eA-3
C116 0.956 0.738 0.302 !       1.50 eA-3
C117 0.016 0.532 0.414 !       1.49 eA-3
C118 0.030 0.756 0.295 !       1.49 eA-3
C119 0.809 0.359 0.500 !       1.48 eA-3
C120 0.295 0.303 0.352 !       1.48 eA-3
C121 0.659 0.805 0.470 !       1.48 eA-3
C122 0.095 0.125 0.499 !       1.46 eA-3
C123 0.480 0.077 0.077 !       1.46 eA-3
C124 0.635 0.192 0.229 !       1.46 eA-3
C125 0.450 0.060 0.110 !       1.45 eA-3
C126 0.831 0.027 0.275 !       1.45 eA-3
C127 0.122 0.221 0.257 !       1.44 eA-3
C128 0.048 0.375 0.384 !       1.43 eA-3
C129 0.513 0.953 0.035 !       1.42 eA-3
C130 0.971 0.498 0.101 !       1.42 eA-3
Q131 1.000 1.001 0.164 !       1.40 eA-3
C132 0.078 0.177 0.210 !       1.40 eA-3
C133 0.594 1.000 0.077 !       1.40 eA-3
C134 0.586 0.952 0.078 !       1.39 eA-3
C135 0.874 0.675 0.017 !       1.39 eA-3
Q136 1.003 0.338 0.029 !       1.38 eA-3
C137 0.361 0.785 0.251 !       1.37 eA-3
C138 0.375 0.576 0.235 !       1.37 eA-3
C139 0.767 0.232 0.066 !       1.37 eA-3
C140 0.297 0.862 0.178 !       1.36 eA-3
C141 0.023 0.484 0.000 !       1.36 eA-3
C142 0.169 0.266 0.498 !       1.36 eA-3
C143 0.794 0.089 0.427 !       1.35 eA-3
Q144 0.502 0.426 0.330 !       1.34 eA-3
C145 0.964 0.146 0.289 !       1.32 eA-3
Q146 0.589 0.349 0.387 !       1.32 eA-3
C147 0.034 0.341 0.076 !       1.32 eA-3
C148 0.525 0.365 0.260 !       1.30 eA-3
Q149 0.970 0.145 0.223 !       1.30 eA-3
C150 0.604 0.265 0.275 !       1.28 eA-3
C151 0.393 0.125 0.073 !       1.28 eA-3
C152 0.138 0.172 0.279 !       1.28 eA-3
C153 0.191 0.563 0.099 !       1.27 eA-3
C154 0.312 0.284 0.133 !       1.27 eA-3
C155 0.226 0.425 0.383 !       1.26 eA-3
C156 0.410 1.000 0.001 !       1.26 eA-3
C157 0.358 0.795 0.372 !       1.26 eA-3
C158 0.887 0.328 0.015 !       1.25 eA-3
C159 0.264 1.005 0.297 !       1.25 eA-3
Q160 0.280 0.705 0.453 !       1.25 eA-3
C161 0.960 0.582 0.476 !       1.24 eA-3
C162 0.419 0.669 0.197 !       1.24 eA-3
C163 0.376 0.018 0.409 !       1.23 eA-3
Q164 0.812 0.185 0.258 !       1.23 eA-3
C165 0.635 0.403 0.202 !       1.23 eA-3
C166 0.702 0.746 0.100 !       1.23 eA-3
C167 0.068 0.062 0.219 !       1.22 eA-3
C168 0.725 0.062 0.409 !       1.22 eA-3
C169 0.783 0.670 0.209 !       1.22 eA-3
C170 0.185 0.391 0.000 !       1.22 eA-3
C171 0.282 0.298 0.390 !       1.22 eA-3
C172 0.228 0.879 0.134 !       1.22 eA-3
C173 0.700 0.996 0.423 !       1.21 eA-3
C174 0.576 0.225 0.063 !       1.21 eA-3
C175 0.639 0.347 0.139 !       1.21 eA-3
C176 0.500 0.492 0.141 !       1.21 eA-3
C177 0.051 0.346 0.408 !       1.21 eA-3
C178 0.720 0.255 0.142 !       1.21 eA-3
C179 0.994 0.051 0.233 !       1.20 eA-3
C180 0.246 0.317 0.416 !       1.20 eA-3
C181 0.216 0.358 0.149 !       1.20 eA-3
C182 0.811 0.848 0.349 !       1.20 eA-3
C183 0.796 0.819 0.295 !       1.19 eA-3
C184 0.179 0.253 0.313 !       1.18 eA-3
C185 0.540 0.112 0.479 !       1.18 eA-3
C186 0.731 0.956 0.344 !       1.18 eA-3
C187 0.220 0.293 0.308 !       1.18 eA-3
C188 1.000 0.345 0.358 !       1.18 eA-3
C189 0.313 0.112 0.446 !       1.17 eA-3
C190 0.124 0.431 0.414 !       1.17 eA-3
C191 0.983 0.405 0.484 !       1.17 eA-3
C192 0.029 0.082 0.191 !       1.17 eA-3
Q193 0.950 0.705 0.111 !       1.16 eA-3
C194 0.434 0.623 0.124 !       1.16 eA-3
C195 0.657 0.880 0.422 !       1.16 eA-3
C196 0.464 0.222 0.115 !       1.15 eA-3
C197 0.398 1.005 0.395 !       1.15 eA-3
C198 0.606 0.185 0.108 !       1.15 eA-3
C199 0.828 0.671 0.355 !       1.15 eA-3
)
;
_shelx_shelxl_version_number     2014/7
_olex2_submission_special_instructions 'No special instructions were received'
loop_
_space_group_symop_operation_xyz
'x, y, z'
'-x, -y, z'
'-y, x, z'
'y, -x, z'
'-x+1/2, y+1/2, -z+1/2'
'x+1/2, -y+1/2, -z+1/2'
'y+1/2, x+1/2, -z+1/2'
'-y+1/2, -x+1/2, -z+1/2'
'-x, -y, -z'
'x, y, -z'
'y, -x, -z'
'-y, x, -z'
'x-1/2, -y-1/2, z-1/2'
'-x-1/2, y-1/2, z-1/2'
'-y-1/2, -x-1/2, z-1/2'
'y-1/2, x-1/2, z-1/2'
loop_
_atom_site_label
_atom_site_type_symbol
_atom_site_fract_x
_atom_site_fract_y
_atom_site_fract_z
_atom_site_U_iso_or_equiv
_atom_site_adp_type
_atom_site_occupancy
_atom_site_site_symmetry_order
_atom_site_calc_flag
_atom_site_refinement_flags_posn
_atom_site_refinement_flags_adp
_atom_site_refinement_flags_occupancy
_atom_site_disorder_assembly
_atom_site_disorder_group
Zr1 Zr 0.12399(15) 0.04429(17) 0.0000 0.0679(15) Uani 1 2 d S TU P . .
Zr2 Zr 0.0000 0.0000 0.07366(10) 0.0487(15) Uani 1 4 d S TU P . .
O5 O -0.0280(6) 0.0930(5) 0.1091(3) 0.117(4) Uiso 1 1 d . U . . .
O2 O 0.1755(6) 0.0607(5) -0.0609(3) 0.113(4) Uiso 1 1 d . U . . .
O4 O 0.0384(6) 0.0829(5) 0.0360(3) 0.113(4) Uiso 1 1 d . U . . .
O3 O 0.1646(8) 0.1516(8) 0.0000 0.126(6) Uiso 1 2 d S TU P . .
O1 O 0.2267(10) -0.0146(10) 0.0000 0.177(8) Uiso 1 2 d S TU P . .
C11 C -0.0239(10) 0.4139(7) 0.2242(5) 0.149(7) Uiso 1 1 d D U . . .
C3 C -0.0496(7) 0.1921(11) 0.1712(7) 0.196(9) Uiso 1 1 d D U . . .
H3 H -0.0367 0.1459 0.1765 0.235 Uiso 1 1 calc R . . . .
C12 C -0.02796(19) 0.47204(19) 0.2500 0.143(10) Uiso 1 2 d DS TU P . .
C1 C -0.0577(7) 0.1517(13) 0.1013(8) 0.192(9) Uiso 1 1 d D U . . .
C4 C -0.0539(9) 0.2386(13) 0.2035(6) 0.197(9) Uiso 1 1 d D U . . .
H4 H -0.0444 0.2265 0.2301 0.236 Uiso 1 1 calc R . . . .
C8 C -0.0781(7) 0.3648(10) 0.2216(5) 0.136(7) Uiso 1 1 d D U . . .
C13 C 0.0335(10) 0.4096(10) 0.1926(6) 0.234(11) Uiso 1 1 d D U . . .
H13A H 0.0327 0.4512 0.1763 0.351 Uiso 1 1 calc GR . . . .
H13B H 0.0258 0.3692 0.1759 0.351 Uiso 1 1 calc GR . . . .
H13C H 0.0783 0.4055 0.2057 0.351 Uiso 1 1 calc GR . . . .
C2 C -0.0639(5) 0.2114(13) 0.1309(8) 0.213(9) Uiso 1 1 d D U . . .
C5 C -0.0743(9) 0.3065(11) 0.1908(7) 0.192(8) Uiso 1 1 d D U . . .
C7 C -0.0835(9) 0.2752(13) 0.1134(7) 0.246(10) Uiso 1 1 d D U . . .
H7 H -0.0926 0.2876 0.0867 0.296 Uiso 1 1 calc R . . . .
C9 C -0.1323(10) 0.3677(10) 0.2500 0.166(10) Uiso 1 2 d DS TU P . .
C6 C -0.0850(10) 0.3144(13) 0.1493(7) 0.247(10) Uiso 1 1 d D U . . .
H6 H -0.0969 0.3608 0.1437 0.296 Uiso 1 1 calc R . . . .
C10 C -0.1882(10) 0.3118(10) 0.2500 0.227(14) Uiso 1 2 d DS TU P . .
H10A H -0.2214 0.3212 0.2712 0.341 Uiso 0.5 1 calc R . . A -1
H10B H -0.2120 0.3118 0.2245 0.341 Uiso 0.5 1 calc R . . A -1
H10C H -0.1669 0.2667 0.2544 0.341 Uiso 0.5 1 calc R . . A -1
loop_
_atom_site_aniso_label
_atom_site_aniso_U_11
_atom_site_aniso_U_22
_atom_site_aniso_U_33
_atom_site_aniso_U_23
_atom_site_aniso_U_13
_atom_site_aniso_U_12
Zr1 0.061(2) 0.091(3) 0.053(3) 0.000 0.000 -0.010(2)
Zr2 0.057(2) 0.057(2) 0.032(3) 0.000 0.000 0.000
loop_
_atom_type_symbol
_atom_type_description
_atom_type_scat_dispersion_real
_atom_type_scat_dispersion_imag
_atom_type_scat_source
C C 0.0030 0.0010 'International Tables Vol C Tables 4.2.6.8 and 6.1.1.4'
H H 0.0000 0.0000 'International Tables Vol C Tables 4.2.6.8 and 6.1.1.4'
O O 0.0110 0.0060 'International Tables Vol C Tables 4.2.6.8 and 6.1.1.4'
Zr Zr -11.6050 0.5510 'International Tables Vol C Tables 4.2.6.8 and 6.1.1.4'
loop_
_geom_angle_atom_site_label_1
_geom_angle_atom_site_label_2
_geom_angle_atom_site_label_3
_geom_angle
_geom_angle_site_symmetry_1
_geom_angle_site_symmetry_3
Zr1 Zr1 Zr1 90.0 11 3
Zr2 Zr1 Zr1 59.56(3) . 3
Zr2 Zr1 Zr1 59.56(3) . 11
Zr2 Zr1 Zr1 59.56(3) 9 3
Zr2 Zr1 Zr1 59.56(3) 9 11
Zr2 Zr1 Zr2 88.48(10) . 9
O2 Zr1 Zr1 109.4(3) 10 3
O2 Zr1 Zr1 108.0(3) 10 11
O2 Zr1 Zr1 109.4(3) . 3
O2 Zr1 Zr1 108.0(3) . 11
O2 Zr1 Zr2 72.7(3) 10 .
O2 Zr1 Zr2 161.2(3) . .
O2 Zr1 Zr2 72.7(3) . 9
O2 Zr1 Zr2 161.2(3) 10 9
O2 Zr1 O2 126.0(6) . 10
O4 Zr1 Zr1 33.7(3) . 3
O4 Zr1 Zr1 89.1(3) 4 3
O4 Zr1 Zr1 33.7(3) 10 3
O4 Zr1 Zr1 34.2(3) 11 11
O4 Zr1 Zr1 89.1(3) 11 3
O4 Zr1 Zr1 89.1(3) . 11
O4 Zr1 Zr1 89.1(3) 10 11
O4 Zr1 Zr1 34.2(3) 4 11
O4 Zr1 Zr2 35.0(3) 11 9
O4 Zr1 Zr2 87.6(3) 10 .
O4 Zr1 Zr2 87.6(3) . 9
O4 Zr1 Zr2 35.3(2) 10 9
O4 Zr1 Zr2 35.3(2) . .
O4 Zr1 Zr2 35.0(3) 4 .
O4 Zr1 Zr2 88.0(3) 4 9
O4 Zr1 Zr2 88.0(3) 11 .
O4 Zr1 O2 140.8(4) 10 10
O4 Zr1 O2 77.6(4) 10 .
O4 Zr1 O2 76.1(4) 4 10
O4 Zr1 O2 139.6(4) 4 .
O4 Zr1 O2 139.6(4) 11 10
O4 Zr1 O2 140.8(4) . .
O4 Zr1 O2 77.6(4) . 10
O4 Zr1 O2 76.1(4) 11 .
O4 Zr1 O4 106.7(5) 4 10
O4 Zr1 O4 67.4(5) 10 .
O4 Zr1 O4 106.7(5) 11 .
O4 Zr1 O4 70.3(5) 11 10
O4 Zr1 O4 70.3(5) 4 .
O4 Zr1 O4 68.4(5) 11 4
O4 Zr1 O3 145.4(3) 4 .
O4 Zr1 O3 145.4(3) 11 .
O4 Zr1 O3 87.0(4) 10 .
O4 Zr1 O3 87.0(4) . .
O4 Zr1 O1 87.2(5) 11 .
O4 Zr1 O1 145.9(3) 10 .
O4 Zr1 O1 145.9(3) . .
O4 Zr1 O1 87.2(5) 4 .
O3 Zr1 Zr1 175.4(4) . 11
O3 Zr1 Zr1 85.4(4) . 3
O3 Zr1 Zr2 117.7(3) . .
O3 Zr1 Zr2 117.7(3) . 9
O3 Zr1 O2 73.6(3) . .
O3 Zr1 O2 73.6(3) . 10
O3 Zr1 O1 99.1(6) . .
O1 Zr1 Zr1 175.5(5) . 3
O1 Zr1 Zr1 85.5(5) . 11
O1 Zr1 Zr2 117.7(3) . .
O1 Zr1 Zr2 117.7(3) . 9
O1 Zr1 O2 72.1(3) . 10
O1 Zr1 O2 72.1(3) . .
Zr1 Zr2 Zr1 91.53(10) 11 3
Zr1 Zr2 Zr1 60.88(6) . 3
Zr1 Zr2 Zr1 60.88(6) 9 11
Zr1 Zr2 Zr1 60.88(6) 9 3
Zr1 Zr2 Zr1 60.88(6) . 11
Zr1 Zr2 Zr1 91.53(10) . 9
O5 Zr2 Zr1 76.7(3) 4 .
O5 Zr2 Zr1 76.7(3) . 3
O5 Zr2 Zr1 76.7(3) 3 9
O5 Zr2 Zr1 113.9(3) . 9
O5 Zr2 Zr1 113.9(3) 3 11
O5 Zr2 Zr1 168.0(3) 2 3
O5 Zr2 Zr1 113.9(3) 2 .
O5 Zr2 Zr1 110.1(3) 2 9
O5 Zr2 Zr1 110.1(3) 4 11
O5 Zr2 Zr1 113.9(3) 4 3
O5 Zr2 Zr1 76.7(3) 2 11
O5 Zr2 Zr1 168.0(3) 3 .
O5 Zr2 Zr1 168.0(3) 4 9
O5 Zr2 Zr1 110.1(3) . .
O5 Zr2 Zr1 168.0(3) . 11
O5 Zr2 Zr1 110.1(3) 3 3
O5 Zr2 O5 115.2(6) 4 3
O5 Zr2 O5 73.3(3) 4 2
O5 Zr2 O5 115.2(6) . 2
O5 Zr2 O5 73.3(3) . 3
O5 Zr2 O5 73.3(3) . 4
O5 Zr2 O5 73.3(3) 3 2
O4 Zr2 Zr1 35.5(3) . .
O4 Zr2 Zr1 90.1(3) 3 11
O4 Zr2 Zr1 35.5(3) 3 3
O4 Zr2 Zr1 90.5(3) . 11
O4 Zr2 Zr1 34.7(3) . 3
O4 Zr2 Zr1 90.5(3) 2 3
O4 Zr2 Zr1 90.5(3) 4 9
O4 Zr2 Zr1 90.1(3) 2 .
O4 Zr2 Zr1 90.1(3) . 9
O4 Zr2 Zr1 35.5(3) 4 11
O4 Zr2 Zr1 35.5(3) 2 9
O4 Zr2 Zr1 90.5(3) 3 .
O4 Zr2 Zr1 34.7(3) 3 9
O4 Zr2 Zr1 90.1(3) 4 3
O4 Zr2 Zr1 34.7(3) 4 .
O4 Zr2 Zr1 34.7(3) 2 11
O4 Zr2 O5 78.4(4) 4 4
O4 Zr2 O5 81.8(4) 2 3
O4 Zr2 O5 81.8(4) 4 2
O4 Zr2 O5 81.8(4) 3 .
O4 Zr2 O5 78.4(4) 3 3
O4 Zr2 O5 145.6(4) . 2
O4 Zr2 O5 145.6(4) 4 3
O4 Zr2 O5 78.4(4) . .
O4 Zr2 O5 140.1(4) 2 4
O4 Zr2 O5 81.8(4) . 4
O4 Zr2 O5 78.4(4) 2 2
O4 Zr2 O5 145.6(4) 2 .
O4 Zr2 O5 145.6(4) 3 4
O4 Zr2 O5 140.1(4) . 3
O4 Zr2 O5 140.1(4) 4 .
O4 Zr2 O5 140.1(4) 3 2
O4 Zr2 O4 108.7(5) 3 4
O4 Zr2 O4 70.2(3) . 3
O4 Zr2 O4 70.2(3) . 4
O4 Zr2 O4 70.2(3) 2 4
O4 Zr2 O4 108.7(5) . 2
O4 Zr2 O4 70.2(3) 2 3
C1 O5 Zr2 134.9(14) . .
C1 O2 Zr1 134.4(13) 11 .
Zr1 O4 Zr1 112.0(4) 3 .
Zr1 O4 Zr2 110.2(5) 3 .
Zr2 O4 Zr1 109.2(4) . .
C12 C11 C13 120.3(13) . .
C8 C11 C12 121.8(16) . .
C8 C11 C13 117.0(12) . .
C4 C3 H3 118.3 . .
C4 C3 C2 123(2) . .
C2 C3 H3 118.3 . .
C11 C12 C11 117.3(16) . 7_455
C11 C12 C12 121.3(8) 7_455 2_565
C11 C12 C12 121.3(8) . 8
C11 C12 C12 121.3(8) . 2_565
C11 C12 C12 121.3(8) 7_455 8
C12 C12 C12 0.00(19) 8 2_565
O5 C1 O2 119.3(19) . 12
O5 C1 C2 124(2) . .
O2 C1 C2 112(2) 12 .
C3 C4 H4 124.1 . .
C3 C4 C5 112(2) . .
C5 C4 H4 124.1 . .
C11 C8 C5 119.9(13) . .
C11 C8 C9 119(2) . .
C9 C8 C5 121.3(16) . .
C11 C13 H13A 109.5 . .
C11 C13 H13B 109.5 . .
C11 C13 H13C 109.5 . .
H13A C13 H13B 109.5 . .
H13A C13 H13C 109.5 . .
H13B C13 H13C 109.5 . .
C3 C2 C1 114(2) . .
C7 C2 C3 132(3) . .
C7 C2 C1 114(2) . .
C4 C5 C8 119(2) . .
C6 C5 C4 116(2) . .
C6 C5 C8 125(2) . .
C2 C7 H7 131.7 . .
C2 C7 C6 97(2) . .
C6 C7 H7 131.7 . .
C8 C9 C8 121(3) . 7_455
C8 C9 C10 119.6(14) . .
C8 C9 C10 119.6(14) 7_455 .
C5 C6 C7 141(3) . .
C5 C6 H6 109.7 . .
C7 C6 H6 109.7 . .
C9 C10 H10A 109.5 . .
C9 C10 H10B 109.5 . .
C9 C10 H10C 109.5 . .
H10A C10 H10B 109.5 . .
H10A C10 H10C 109.5 . .
H10B C10 H10C 109.5 . .
loop_
_geom_bond_atom_site_label_1
_geom_bond_atom_site_label_2
_geom_bond_distance
_geom_bond_site_symmetry_2
Zr1 Zr1 3.545(4) 3
Zr1 Zr1 3.545(4) 11
Zr1 Zr2 3.498(3) .
Zr1 Zr2 3.498(3) 9
Zr1 O2 2.266(11) 10
Zr1 O2 2.266(11) .
Zr1 O4 2.124(11) 4
Zr1 O4 2.124(11) 11
Zr1 O4 2.150(10) 10
Zr1 O4 2.150(10) .
Zr1 O3 2.183(15) .
Zr1 O1 2.255(18) .
Zr2 Zr1 3.498(3) 9
Zr2 Zr1 3.498(3) 11
Zr2 Zr1 3.498(3) 3
Zr2 O5 2.190(11) 2
Zr2 O5 2.190(11) 4
Zr2 O5 2.190(11) 3
Zr2 O5 2.190(11) .
Zr2 O4 2.141(9) 3
Zr2 O4 2.141(9) 2
Zr2 O4 2.141(9) 4
Zr2 O4 2.141(9) .
O5 C1 1.28(2) .
O2 C1 1.41(2) 11
O4 Zr1 2.124(11) 3
C11 C12 1.400(9) .
C11 C8 1.395(9) .
C11 C13 1.516(7) .
C3 H3 0.9300 .
C3 C4 1.390(6) .
C3 C2 1.411(10) .
C12 C11 1.400(9) 7_455
C12 C12 1.506(10) 8
C12 C12 1.506(10) 2_565
C1 O2 1.41(2) 12
C1 C2 1.507(7) .
C4 H4 0.9300 .
C4 C5 1.412(10) .
C8 C5 1.510(7) .
C8 C9 1.397(9) .
C13 H13A 0.9600 .
C13 H13B 0.9600 .
C13 H13C 0.9600 .
C2 C7 1.398(6) .
C5 C6 1.398(6) .
C7 H7 0.9300 .
C7 C6 1.407(10) .
C9 C8 1.397(9) 7_455
C9 C10 1.506(9) .
C6 H6 0.9300 .
C10 H10A 0.9600 .
C10 H10B 0.9600 .
C10 H10C 0.9600 .
loop_
_geom_torsion_atom_site_label_1
_geom_torsion_atom_site_label_2
_geom_torsion_atom_site_label_3
_geom_torsion_atom_site_label_4
_geom_torsion
_geom_torsion_site_symmetry_1
_geom_torsion_site_symmetry_4
Zr2 O5 C1 O2 -19(2) . 12
Zr2 O5 C1 C2 -173.0(7) . .
O5 C1 C2 C3 -14.6(12) . .
O5 C1 C2 C7 166.1(14) . .
O2 C1 C2 C3 -170.0(12) 12 .
O2 C1 C2 C7 10.6(10) 12 .
C11 C8 C5 C4 101(2) . .
C11 C8 C5 C6 -74(3) . .
C11 C8 C9 C8 5.0(12) . 7_455
C11 C8 C9 C10 -175.0(12) . .
C3 C4 C5 C8 -177.0(13) . .
C3 C4 C5 C6 -1(2) . .
C3 C2 C7 C6 -0.4(16) . .
C12 C11 C8 C5 174.7(17) . .
C12 C11 C8 C9 -10(2) . .
C1 C2 C7 C6 178.7(9) . .
C4 C3 C2 C1 -178.5(11) . .
C4 C3 C2 C7 0.7(19) . .
C4 C5 C6 C7 2(4) . .
C8 C11 C12 C11 5.3(13) . 7_455
C8 C11 C12 C12 -174.7(13) . 8
C8 C11 C12 C12 -174.7(13) . 2_565
C8 C5 C6 C7 177.3(19) . .
C13 C11 C12 C11 174(2) . 7_455
C13 C11 C12 C12 -6(2) . 8
C13 C11 C12 C12 -6(2) . 2_565
C13 C11 C8 C5 6(3) . .
C13 C11 C8 C9 -179.3(16) . .
C2 C3 C4 C5 0(2) . .
C2 C7 C6 C5 -1(3) . .
C5 C8 C9 C8 180(2) . 7_455
C5 C8 C9 C10 0(2) . .
C9 C8 C5 C4 -73(2) . .
C9 C8 C5 C6 111(2) . .
