#------------------------------------------------------------------------------
#$Date: 2019-11-25 22:32:00 +0200 (Mon, 25 Nov 2019) $
#$Revision: 241968 $
#$URL: file:///home/coder/svn-repositories/cod/cif/4/13/18/4131854.cif $
#------------------------------------------------------------------------------
#
# This file is available in the Crystallography Open Database (COD),
# http://www.crystallography.net/
#
# All data on this site have been placed in the public domain by the
# contributors.
#
data_4131854
loop_
_publ_author_name
'Yan, Yong'
'O'Connor, Alice E'
'Kanthasamy, Gopikkaa'
'Atkinson, George'
'Allan, David R.'
'Blake, Alexander J.'
'Schr\"oder, Martin'
_publ_section_title
;
 Unusual and Tunable Negative Linear Compressibility in the Metal-Organic
 Framework MFM-133(M) (M = Zr, Hf).
;
_journal_issue                   11
_journal_name_full               'Journal of the American Chemical Society'
_journal_page_first              3952
_journal_page_last               3958
_journal_paper_doi               10.1021/jacs.7b11747
_journal_volume                  140
_journal_year                    2018
_chemical_formula_moiety         '0.25(C184 H136 O64 Zr12)'
_chemical_formula_sum            'C46 H34 O16 Zr3'
_chemical_formula_weight         1116.39
_space_group_crystal_system      tetragonal
_space_group_IT_number           128
_space_group_name_Hall           '-P 4 2n'
_space_group_name_H-M_alt        'P 4/m n c'
_atom_sites_solution_hydrogens   geom
_atom_sites_solution_primary     direct
_audit_creation_date             2016-08-31
_audit_creation_method
;
Olex2 1.2
(compiled 2016.08.25 svn.r3337 for OlexSys, GUI svn.r5221)
;
_cell_angle_alpha                90
_cell_angle_beta                 90
_cell_angle_gamma                90
_cell_formula_units_Z            4
_cell_length_a                   19.1146(12)
_cell_length_b                   19.1146(12)
_cell_length_c                   33.047(5)
_cell_measurement_reflns_used    2138
_cell_measurement_temperature    293.15
_cell_measurement_theta_max      22.0670
_cell_measurement_theta_min      2.0640
_cell_volume                     12074(2)
_computing_cell_refinement
;
CrysAlisPro, Agilent Technologies,
Version 1.171.37.34 (release 22-05-2014 CrysAlis171 .NET)
(compiled May 22 2014,16:03:01)
;
_computing_data_collection
;
CrysAlisPro, Agilent Technologies,
Version 1.171.37.34 (release 22-05-2014 CrysAlis171 .NET)
(compiled May 22 2014,16:03:01)
;
_computing_data_reduction
;
CrysAlisPro, Agilent Technologies,
Version 1.171.37.34 (release 22-05-2014 CrysAlis171 .NET)
(compiled May 22 2014,16:03:01)
;
_computing_molecular_graphics    'Olex2 (Dolomanov et al., 2009)'
_computing_publication_material  'Olex2 (Dolomanov et al., 2009)'
_computing_structure_refinement  'ShelXL (Sheldrick, 2015)'
_computing_structure_solution    'ShelXS (Sheldrick, 2008)'
_diffrn_ambient_temperature      293.15
_diffrn_detector                 Dectris
_diffrn_detector_area_resol_mean 5.81395
_diffrn_detector_type            'Pilatus 300K detector'
_diffrn_measured_fraction_theta_full 0.760
_diffrn_measured_fraction_theta_max 0.760
_diffrn_measurement_details
;
#__ type_ start__ end____ width___ exp.time_
  1 omega -105.00  -74.00   0.2000    0.9970
omega____ theta____ kappa____ phi______ frames
    -       20.0000   70.0000  155.7700 155

#__ type_ start__ end____ width___ exp.time_
  2 omega -105.00  -74.00   0.2000    0.9970
omega____ theta____ kappa____ phi______ frames
    -       20.0000   70.0000  -24.2300 155

#__ type_ start__ end____ width___ exp.time_
  3 omega -106.00  -66.00   0.2000    0.9970
omega____ theta____ kappa____ phi______ frames
    -      -20.0000  -70.0000 -155.7700 200

#__ type_ start__ end____ width___ exp.time_
  4 omega -106.00  -66.00   0.2000    0.9970
omega____ theta____ kappa____ phi______ frames
    -      -20.0000  -70.0000   24.2300 200

#__ type_ start__ end____ width___ exp.time_
  5 omega -150.00  -94.00   0.2000    0.9970
omega____ theta____ kappa____ phi______ frames
    -      -20.0000   70.0000  -24.2319 280

#__ type_ start__ end____ width___ exp.time_
  6 omega -150.00  -94.00   0.2000    0.9970
omega____ theta____ kappa____ phi______ frames
    -      -20.0000   70.0000  155.7681 280

#__ type_ start__ end____ width___ exp.time_
  7 omega  -96.00  -30.00   0.2000    0.9970
omega____ theta____ kappa____ phi______ frames
    -       20.0000  -70.0000   24.2300 330

#__ type_ start__ end____ width___ exp.time_
  8 omega  -96.00  -30.00   0.2000    0.9970
omega____ theta____ kappa____ phi______ frames
    -       20.0000  -70.0000 -155.7700 330
;
_diffrn_measurement_device       'k-geometry diffractometer'
_diffrn_measurement_device_type
'Newport 4-circle kappa geometry diffractometer'
_diffrn_measurement_method       'oscillation method'
_diffrn_orient_matrix_UB_11      -0.0321294000
_diffrn_orient_matrix_UB_12      -0.0017143000
_diffrn_orient_matrix_UB_13      -0.0093990000
_diffrn_orient_matrix_UB_21      0.0136634000
_diffrn_orient_matrix_UB_22      0.0168992000
_diffrn_orient_matrix_UB_23      -0.0166392000
_diffrn_orient_matrix_UB_31      0.0090122000
_diffrn_orient_matrix_UB_32      -0.0317826000
_diffrn_orient_matrix_UB_33      -0.0083091000
_diffrn_radiation_collimation    '0.5 mm pinhole'
_diffrn_radiation_monochromator  'Si 111 double-crystal monochromator'
_diffrn_radiation_probe          x-ray
_diffrn_radiation_wavelength     0.6889
_diffrn_reflns_av_R_equivalents  0.6162
_diffrn_reflns_av_unetI/netI     0.4931
_diffrn_reflns_Laue_measured_fraction_full 0.760
_diffrn_reflns_Laue_measured_fraction_max 0.760
_diffrn_reflns_limit_h_max       13
_diffrn_reflns_limit_h_min       -13
_diffrn_reflns_limit_k_max       20
_diffrn_reflns_limit_k_min       -20
_diffrn_reflns_limit_l_max       35
_diffrn_reflns_limit_l_min       -35
_diffrn_reflns_number            24351
_diffrn_reflns_point_group_measured_fraction_full 0.760
_diffrn_reflns_point_group_measured_fraction_max 0.760
_diffrn_reflns_theta_full        22.732
_diffrn_reflns_theta_max         22.732
_diffrn_reflns_theta_min         1.887
_diffrn_source                   'Synchrotron U21 undulator'
_diffrn_source_type              'Synchrotron Diamond Light Source'
_exptl_absorpt_coefficient_mu    0.259
_exptl_absorpt_correction_T_max  0.4269
_exptl_absorpt_correction_T_min  0.2662
_exptl_absorpt_correction_type   multi-scan
_exptl_absorpt_process_details
;
SADABS-2014/5 (Bruker,2014/5) was used for absorption correction. 
wR2(int) was 0.1580 before and 0.1258 after correction. 
The Ratio of minimum to maximum transmission is 0.6236. 
The \l/2 correction factor is Not present.
;
_exptl_crystal_colour            'clear colourless'
_exptl_crystal_colour_lustre     clear
_exptl_crystal_colour_primary    colourless
_exptl_crystal_density_diffrn    0.614
_exptl_crystal_description       octahedral
_exptl_crystal_F_000             2232
_exptl_crystal_size_max          0.046
_exptl_crystal_size_mid          0.046
_exptl_crystal_size_min          0.033
_refine_diff_density_max         1.496
_refine_diff_density_min         -1.402
_refine_diff_density_rms         0.156
_refine_ls_extinction_method     none
_refine_ls_goodness_of_fit_ref   1.271
_refine_ls_hydrogen_treatment    constr
_refine_ls_matrix_type           full
_refine_ls_number_parameters     74
_refine_ls_number_reflns         3478
_refine_ls_number_restraints     77
_refine_ls_restrained_S_all      1.269
_refine_ls_R_factor_all          0.3472
_refine_ls_R_factor_gt           0.1776
_refine_ls_shift/su_max          0.000
_refine_ls_shift/su_mean         0.000
_refine_ls_structure_factor_coef Fsqd
_refine_ls_weighting_details
'w=1/[\s^2^(Fo^2^)+(0.2000P)^2^] where P=(Fo^2^+2Fc^2^)/3'
_refine_ls_weighting_scheme      calc
_refine_ls_wR_factor_gt          0.3963
_refine_ls_wR_factor_ref         0.5058
_reflns_Friedel_coverage         0.000
_reflns_number_gt                1061
_reflns_number_total             3478
_reflns_threshold_expression     'I > 2\s(I)'
_cod_data_source_file            ZrMOF_All.cif
_cod_data_source_block           29.2kbar
_cod_database_code               4131854
_chemical_oxdiff_formula         'C46 H42 O16 Zr3'
_shelx_space_group_comment
;
The symmetry employed for this shelxl refinement is uniquely defined
by the following loop, which should always be used as a source of
symmetry information in preference to the above space-group names.
They are only intended as comments.
;
_reflns_odcompleteness_completeness 74.68
_reflns_odcompleteness_iscentric 1
_reflns_odcompleteness_theta     22.88
_olex2_refinement_description
;
1. Fixed Uiso
 At 1.2 times of:
  All C(H) groups
 At 1.5 times of:
  All C(H,H,H) groups
2. Restrained distances
 C9-C8 = C8-C11 = C12-C11
 1.39 with sigma of 0.01
 C6-C5 = C7-C6 = C7-C2 = C3-C2 = C4-C3 = C5-C4
 1.39 with sigma of 0.01
 C2-C1 = C8-C5 = C13-C11 = C9-C10
 1.5 with sigma of 0.01
 C12-C12_$2
 1.5 with sigma of 0.01
 C7-C2 \\sim C7-C6 \\sim C6-C5 \\sim C5-C4 \\sim C4-C3 \\sim C3-C2
 with sigma of 0.02
 C9-C8 \\sim C8-C11 \\sim C12-C11
 with sigma of 0.02
3. Restrained planarity
 C1_$1, C2_$1, C7_$1, C6_$1, C5_$1, C4_$1, C3_$1, C8_$1, C11, C13
 with sigma of 0.1
 C1, C2, C7, C6, C5, C4, C3, C8, C11_$1, C13_$1
 with sigma of 0.1
 C1_$2, C2_$2, C3_$2, C4_$2, C5_$2, C6_$2, C7_$2, C8_$2, C11_$3, C13_$3
 with sigma of 0.1
 C1_$3, C2_$3, C3_$3, C4_$3, C5_$3, C6_$3, C7_$3, C8_$3, C11_$2, C13_$2
 with sigma of 0.1
 C10, C9, C12, C12_$2, C9_$2, C10_$2
 with sigma of 0.1
4. Uiso/Uaniso restraints and constraints
All non-hydrogen atoms have similar U: within 2A with sigma of 0.02 and sigma
for terminal atoms of 0.04
5. Others
 Fixed Sof: H10A(0.5) H10B(0.5) H10C(0.5)
6.a Me refined with riding coordinates:
 C13(H13A,H13B,H13C), C10(H10A,H10B,H10C)
6.b Aromatic/amide H refined with riding coordinates:
 C3(H3), C4(H4), C7(H7), C6(H6)
;
_shelx_res_file
;
    29.2kbar.res created by SHELXL-2014/7

TITL g2yy_6xnew in P4/mnc
CELL 0.6889 19.11457 19.11457 33.04713 90 90 90
ZERR 4 0.00117 0.00117 0.0051 0 0 0
LATT 1
SYMM -X,-Y,+Z
SYMM -Y,+X,+Z
SYMM +Y,-X,+Z
SYMM 0.5-X,0.5+Y,0.5-Z
SYMM 0.5+X,0.5-Y,0.5-Z
SYMM 0.5+Y,0.5+X,0.5-Z
SYMM 0.5-Y,0.5-X,0.5-Z
SFAC C H O Zr
DISP C 0.003 0.001 10.848
DISP H -0 0 0.623
DISP O 0.011 0.006 30.192
DISP Zr -11.605 0.551 2275.752
UNIT 184 136 64 12
EQIV $1 -0.5+Y,0.5+X,0.5-Z
EQIV $2 0.5-Y,0.5-X,0.5-Z
EQIV $3 -X,1-Y,+Z
DFIX 1.39 0.01 C9 C8 C8 C11 C12 C11
DFIX 1.39 0.01 C6 C5 C7 C6 C7 C2 C3 C2 C4 C3 C5 C4
DFIX 1.5 0.01 C2 C1 C8 C5 C13 C11 C9 C10
DFIX 1.5 0.01 C12 C12_$2
SADI C7 C2 C7 C6 C6 C5 C5 C4 C4 C3 C3 C2
SADI C9 C8 C8 C11 C12 C11
FLAT C1_$1 C2_$1 C7_$1 C6_$1 C5_$1 C4_$1 C3_$1 C8_$1 C11 C13
FLAT C1 C2 C7 C6 C5 C4 C3 C8 C11_$1 C13_$1
FLAT C1_$2 C2_$2 C3_$2 C4_$2 C5_$2 C6_$2 C7_$2 C8_$2 C11_$3 C13_$3
FLAT C1_$3 C2_$3 C3_$3 C4_$3 C5_$3 C6_$3 C7_$3 C8_$3 C11_$2 C13_$2
FLAT C10 C9 C12 C12_$2 C9_$2 C10_$2
SIMU 0.02 0.04 2

L.S. 5 0 270
PLAN  20
TEMP 20
BOND
MORE -1
BOND $H
CONF
ABIN
fmap 2
acta
REM <olex2.extras>
REM <HklSrc "%.\\29.2kbar.hkl">
REM </olex2.extras>

WGHT    0.200000
FVAR       0.06128
ZR1   4    0.122954    0.045831    0.000000    10.50000    0.03054    0.04251 =
         0.01828    0.00000    0.00000   -0.00458
ZR2   4    0.000000    0.000000    0.073647    10.25000    0.01997    0.01997 =
         0.01422    0.00000    0.00000    0.00000
O5    3   -0.028898    0.092836    0.109794    11.00000    0.07873
O2    3    0.174628    0.062262   -0.060555    11.00000    0.09373
O4    3    0.039018    0.085800    0.035896    11.00000    0.10166
O3    3    0.165521    0.150406    0.000000    10.50000    0.11338
O1    3    0.224325   -0.016521    0.000000    10.50000    0.13588
C11   1   -0.024993    0.416197    0.222494    11.00000    0.10251
C3    1   -0.042740    0.195450    0.170005    11.00000    0.15900
AFIX  43
H3    2   -0.025405    0.150789    0.174915    11.00000   -1.20000
AFIX   0
C12   1   -0.027884    0.472116    0.250000    10.50000    0.10558
C1    1   -0.056521    0.153225    0.099692    11.00000    0.12169
C4    1   -0.046997    0.241320    0.202726    11.00000    0.16513
AFIX  43
H4    2   -0.034683    0.229900    0.229138    11.00000   -1.20000
AFIX   0
C8    1   -0.077348    0.365484    0.221305    11.00000    0.10811
C13   1    0.030552    0.412342    0.189711    11.00000    0.15049
AFIX  33
H13A  2    0.063693    0.449518    0.193460    11.00000   -1.50000
H13B  2    0.054232    0.368137    0.191298    11.00000   -1.50000
H13C  2    0.008842    0.416935    0.163651    11.00000   -1.50000
AFIX   0
C2    1   -0.062623    0.211616    0.130296    11.00000    0.16741
C5    1   -0.072282    0.306936    0.190591    11.00000    0.16304
C7    1   -0.087946    0.276373    0.116824    11.00000    0.20009
AFIX  43
H7    2   -0.100075    0.287780    0.090381    11.00000   -1.20000
AFIX   0
C9    1   -0.131133    0.368867    0.250000    10.50000    0.12357
C6    1   -0.091639    0.320764    0.150486    11.00000    0.20230
AFIX  43
H6    2   -0.109272    0.365304    0.145564    11.00000   -1.20000
AFIX   0
C10   1   -0.186767    0.313233    0.250000    10.50000    0.15613
PART -1
AFIX  33
H10A  2   -0.177455    0.280245    0.228768    10.50000   -1.50000
H10B  2   -0.186701    0.289491    0.275599    10.50000   -1.50000
H10C  2   -0.231659    0.334449    0.245633    10.50000   -1.50000
AFIX   0
HKLF 4

REM  g2yy_6xnew in P4/mnc
REM R1 =  0.1776 for    1061 Fo > 4sig(Fo)  and  0.3472 for all    3478 data
REM     74 parameters refined using     77 restraints

END

WGHT      0.2000      0.0000

REM Highest difference peak  1.496,  deepest hole -1.402,  1-sigma level  0.156
Q1    1   0.1242  0.0017  0.0000  10.50000  0.05    1.50
Q2    1   0.1110  0.0180  0.0000  10.50000  0.05    1.32
Q3    1   0.0313 -0.0012  0.0772  11.00000  0.05    1.07
Q4    1   0.1128  0.1177  0.0000  10.50000  0.05    0.94
Q5    1   0.1534  0.0252  0.0000  10.50000  0.05    0.90
Q6    1   0.0325  0.0522  0.0246  11.00000  0.05    0.85
Q7    1   0.2104  0.1264  0.0000  10.50000  0.05    0.82
Q8    1   0.2148  0.0220  0.0000  10.50000  0.05    0.81
Q9    1   0.0546  0.1300  0.0495  11.00000  0.05    0.74
Q10   1   0.2117  0.0416  0.0000  10.50000  0.05    0.74
Q11   1   0.1652  0.1770 -0.0196  11.00000  0.05    0.74
Q12   1   0.1240  0.1026  0.0000  10.50000  0.05    0.73
Q13   1   0.1191  0.1518  0.0000  10.50000  0.05    0.73
Q14   1  -0.0263  0.1068  0.1020  11.00000  0.05    0.67
Q15   1   0.1098  0.1248  0.0423  11.00000  0.05    0.67
Q16   1   0.2679 -0.0324 -0.0217  11.00000  0.05    0.65
Q17   1   0.0049  0.0608  0.0294  11.00000  0.05    0.65
Q18   1   0.2715 -0.0138 -0.0194  11.00000  0.05    0.65
Q19   1   0.1717  0.1569  0.0191  11.00000  0.05    0.64
Q20   1  -0.0545  0.0575  0.1095  11.00000  0.05    0.63
;
_shelx_res_checksum              12152
_shelx_hkl_file
;
  -1   2   0   31.95    8.02
  -1   2   0   31.01    6.98
   1  -2   0   33.78    7.33
   1  -2   0   22.44    8.41
   0  -2   0  282.36   67.47
   2  -3   0    1.05    0.74
   2  -3   0    1.51    0.80
  -2   3   0    0.27    1.04
   1  -3   0    6.31    1.32
   1  -3   0    4.07    1.42
  -1   3   0    5.43    1.61
   1  -3   0    4.58    1.28
  -1   3   0    5.40    1.29
   1  -3   0    4.18    1.70
   0  -3   0    0.41    0.64
   0  -3   0   -0.24    0.97
  -1  -3   0    4.74    1.57
   3  -4   0   -0.05    1.12
   2  -4   0   31.96    8.76
  -2   4   0   25.74    8.55
   2  -4   0   35.60    7.66
  -1   4   0  117.92   40.83
  -1   4   0  172.16   38.31
   1  -4   0  173.60   38.31
   1  -4   0  145.52   42.94
   1  -4   0  165.53   37.56
   0  -4   0    6.25    3.54
   0  -4   0    6.70    3.01
   0  -4   0   12.35    2.60
   0  -4   0   12.98    2.77
   0   4   0   12.14    3.50
   0   4   0   11.78    3.40
  -1  -4   0  165.33   39.98
   3  -5   0    2.44    1.85
  -3   5   0    1.04    2.47
   2  -5   0  238.22   63.52
   2  -5   0  239.21   55.52
  -2   5   0  216.53   60.46
   1  -5   0    3.84    2.32
   1  -5   0    3.89    1.17
   1  -5   0    5.55    1.18
   1  -5   0    3.32    1.57
  -1   5   0    1.89    1.24
  -1   5   0    5.14    2.15
   0  -5   0    0.70    0.58
   0   5   0    0.26    1.97
   0  -5   0    0.21    1.30
   0  -5   0    0.22    0.38
   0   5   0    0.21    0.99
   0  -5   0    1.07    2.12
  -1  -5   0    1.98    1.95
  -1  -5   0    6.41    2.57
  -1  -5   0    4.42    1.08
  -2  -5   0  213.67   55.20
   4  -6   0    1.38    2.27
   3  -6   0   19.35    4.12
  -3   6   0   15.24    4.94
   3  -6   0    9.10    4.78
   2  -6   0   30.68   11.01
   2  -6   0   43.03    9.65
  -2   6   0   43.88    9.85
  -1   6   0  221.18   48.44
   1  -6   0  185.18   45.10
   1  -6   0  155.64   45.65
  -1   6   0  191.20   52.68
   0  -6   0    1.07    0.61
   0   6   0    0.89    1.49
   0  -6   0    1.80    0.92
   1   6   0  179.00   48.85
  -1  -6   0  212.08   43.94
  -2  -6   0   28.85    9.16
  -3  -6   0   14.72    4.48
  -4   7   0   16.29    8.28
   4  -7   0   35.30    7.76
   4  -7   0   25.97    7.14
   3  -7   0   61.43   18.79
   3  -7   0   92.16   18.14
   3  -7   0   83.28   20.44
  -3   7   0   82.69   20.23
   2  -7   0   57.59   14.65
  -2   7   0   59.70   15.21
   2  -7   0   47.23   13.75
  -2   7   0   68.46   15.00
   2  -7   0   63.94   14.41
   2  -7   0   59.18   16.33
  -1   7   0   22.13    7.81
  -1   7   0   26.87    7.60
  -1   7   0   31.90    7.20
   1  -7   0   27.37    6.61
   1  -7   0   29.40    8.32
   1  -7   0   28.79    6.54
   1  -7   0   22.92    6.73
   0   7   0   -0.54    1.90
   0   7   0   -1.14    3.36
   0  -7   0   -0.46    0.67
   0   7   0   -0.14    0.93
   0   7   0   -0.88    3.61
   0  -7   0   -0.91    2.19
   0  -7   0   -0.28    1.04
   0  -7   0    0.32    3.70
  -1  -7   0   30.39    7.36
  -1  -7   0   28.55    6.33
   1   7   0   26.92    8.09
  -1  -7   0   29.63    8.52
  -2  -7   0   60.47   14.81
  -2  -7   0   61.33   13.91
  -3  -7   0   73.41   17.79
   5  -8   0   -0.68    3.77
   4  -8   0  103.21   19.21
  -4   8   0   60.52   22.00
   3  -8   0    9.49    3.61
   3  -8   0   26.22    5.76
  -3   8   0   13.71    5.30
   3  -8   0   11.33    4.44
  -2   8   0   68.85   15.46
   2  -8   0   63.01   13.97
  -2   8   0   51.19   14.76
   2  -8   0   48.63   14.73
   2  -8   0   65.76   13.41
   2  -8   0   63.44   16.31
   1  -8   0    1.11    4.53
  -1   8   0    2.52    1.51
  -1   8   0    0.93    3.77
   1  -8   0    3.19    2.51
  -1   8   0    4.02    1.95
   1  -8   0    2.59    1.24
   1  -8   0    1.49    1.40
   0   8   0   21.68    6.10
   0  -8   0   18.43    4.53
   0   8   0   22.76    4.50
   0  -8   0   18.97    4.95
   0  -8   0   14.95    6.59
   0  -8   0   13.88    4.06
   0   8   0   16.25    5.98
   0   8   0   14.62    6.24
  -1  -8   0    4.29    4.47
  -1  -8   0    5.21    3.08
   1   8   0    6.09    4.47
  -1  -8   0    2.74    0.94
  -2  -8   0   51.98   16.27
  -2  -8   0   56.38   13.43
  -2  -8   0   59.14   14.20
  -3  -8   0    7.15    4.62
   4   8   0   76.22   21.31
  -4  -8   0   62.05   17.56
   5  -9   0   55.20   12.64
  -5   9   0   13.84   13.42
   5  -9   0   58.38   11.56
   4  -9   0   20.77    6.98
  -4   9   0   14.06    7.35
   4  -9   0   23.30    5.53
   4  -9   0   20.88    5.87
   3  -9   0  142.38   38.70
   3  -9   0  122.59   32.37
  -3   9   0  146.31   36.20
   2  -9   0    1.12    5.07
  -2   9   0    3.74    3.79
   2  -9   0    2.25    2.79
  -2   9   0    2.21    1.91
   2  -9   0    3.95    1.54
  -2   9   0    2.58    2.19
  -1   9   0    8.06    2.72
   1  -9   0    7.51    2.51
   1  -9   0    9.05    2.30
   1  -9   0    8.14    5.71
   1  -9   0    5.25    3.43
  -1   9   0    7.87    3.22
  -1   9   0   17.02    4.83
   0  -9   0   -0.85    0.97
   0   9   0    1.17    4.71
   0   9   0   -0.67    2.91
   0   9   0    1.74    5.28
   0   9   0    0.10    1.34
   0  -9   0    0.30    1.55
   0  -9   0   -0.15    5.51
   0  -9   0    0.27    3.13
   1   9   0   11.48    5.77
   1   9   0    6.48    5.42
  -1  -9   0    7.08    4.23
  -1  -9   0   17.39    5.89
  -1  -9   0    6.92    1.96
  -2  -9   0    2.42    3.87
   2   9   0   -2.20    5.56
  -2  -9   0    1.49    5.24
  -3  -9   0  130.62   33.70
  -4  -9   0   18.19    6.48
   5 -10   0    6.76    5.11
   5 -10   0    5.36    2.80
   5 -10   0    3.37    4.14
  -5  10   0    0.20    5.63
  -4  10   0   79.74   27.44
   4 -10   0   99.28   23.43
   4 -10   0  113.99   27.51
   3 -10   0    6.26    5.90
  -3  10   0    3.75    4.51
   3 -10   0    2.39    3.28
   2 -10   0   36.30   13.63
   2 -10   0   38.03    9.96
  -2  10   0   34.08   11.53
   1 -10   0    3.06    3.45
   1 -10   0    3.56    6.50
  -1  10   0    1.79    4.96
   0  10   0    0.90    5.40
   0 -10   0   -0.15    3.60
   0  10   0    2.44    6.24
   0 -10   0   -8.08    6.42
   1  10   0    1.67    6.31
   1  10   0    2.17    6.02
  -1 -10   0   -1.23    6.28
  -1 -10   0    3.45    4.08
  -2 -10   0   51.14   12.80
  -2 -10   0   46.92   14.60
   2  10   0   65.26   14.25
  -3 -10   0    3.28    4.79
  -4 -10   0   91.47   23.67
   6 -11   0   16.19    7.52
   5 -11   0   19.67    6.86
   5 -11   0   15.88    5.65
  -5  11   0    2.66    7.31
   4 -11   0    6.54    6.29
   4 -11   0    2.04    3.73
  -4  11   0    3.03    5.67
   3 -11   0   49.95   13.50
   3 -11   0   65.14   17.78
  -3  11   0   55.28   15.56
   2 -11   0    0.94    3.77
  -2  11   0    3.79    5.34
   2 -11   0    2.85    7.31
   1 -11   0    3.53    7.44
   1 -11   0    4.78    3.98
  -1  11   0    0.48    6.01
  -1  11   0    4.40    7.50
   0  11   0    1.63    7.19
   0  11   0   -3.75    6.51
   0 -11   0   -3.32    4.15
   0 -11   0    1.77    7.03
  -1 -11   0    0.40    7.01
   1  11   0   -5.47    7.27
   1  11   0    3.77    7.52
  -1 -11   0    5.59    4.56
   2  11   0   24.69    7.81
  -2 -11   0    6.37    5.22
  -2 -11   0    3.73    7.02
  -3 -11   0   43.92   17.91
  -3 -11   0   53.56   15.32
   3  11   0   78.29   17.49
  -4 -11   0  -10.88    5.56
  -5 -11   0    7.64    6.49
   6 -12   0   37.05   12.32
   5 -12   0    0.72    4.81
   5 -12   0   -5.24    7.04
  -5  12   0    4.45    6.84
  -4  12   0   36.97   13.85
   4 -12   0   48.99   11.48
   4 -12   0   50.92   15.23
  -3  12   0    0.99    5.59
   3 -12   0   -0.36    4.05
   3 -12   0   -5.45    7.93
   2 -12   0   -9.39    8.90
   2 -12   0   -3.52    4.48
  -2  12   0   -4.04    6.08
  -1  12   0   15.18   12.34
   1 -12   0   41.08   10.16
  -1  12   0   41.42   14.19
   0  12   0   26.73   10.92
   0  12   0   28.97   11.66
   0 -12   0   26.94   11.65
   0 -12   0   25.13    8.34
   1  12   0   26.19   14.17
   1  12   0   18.64   13.59
  -1 -12   0   56.71   14.15
  -1 -12   0   28.60   10.96
   2  12   0    7.83    8.63
   2  12   0    6.82    8.85
  -2 -12   0    0.93    5.82
  -3 -12   0   -1.00    8.09
   3  12   0    9.30    8.26
  -3 -12   0   -5.43    6.06
  -4 -12   0   42.30   12.65
  -5 -12   0   -2.68    6.17
   5 -13   0   33.05    8.43
  -5  13   0   20.26   11.03
   4 -13   0   -0.23    7.78
  -4  13   0    1.49    6.94
   4 -13   0    3.41    4.74
   3 -13   0   15.58    6.25
   3 -13   0   44.43   11.19
  -3  13   0    7.77    8.04
   2 -13   0   -9.47    9.92
  -2  13   0    5.65    6.70
   2 -13   0    9.24    4.64
  -1  13   0    3.68    7.72
   1 -13   0    0.42    5.12
   1 -13   0  -14.96   10.02
  -1  13   0    0.30    9.78
   0 -13   0  -10.89    9.50
   0  13   0    1.21    9.43
   0  13   0    0.88    8.49
   0 -13   0   -6.00    5.32
  -1 -13   0   44.86    9.85
  -1 -13   0    3.81    6.28
   1  13   0    0.24    9.44
   1  13   0   36.26   10.14
  -2 -13   0   -1.02    6.55
   2  13   0   10.82    9.76
  -6  14   0    4.51    8.72
   6 -14   0    6.78    9.14
  -5  14   0  -14.59    9.75
   5 -14   0    5.47    5.79
   5 -14   0  -13.54    9.90
   4 -14   0   -0.23    4.56
   4 -14   0   -5.78   10.78
   3 -14   0    0.27   10.86
   2 -14   0   -0.28   11.97
  -2  14   0   11.96   11.91
   0  14   0   -4.09   11.37
   0 -14   0  -19.72   11.38
  -1 -14   0    0.28   10.44
   1  14   0   -9.71   10.72
   2  14   0   52.18   12.40
   2  14   0    2.20   12.64
  -2 -14   0    0.29   12.16
  -2 -14   0   41.47    8.56
   3  14   0   -1.43   11.05
  -3 -14   0    2.32    7.11
   3  14   0    0.38   10.49
  -3 -14   0    0.30   10.10
  -4 -14   0    1.19    7.28
   4  14   0   17.68   11.17
  -4 -14   0  -12.45   10.54
  -5 -14   0    0.31    7.53
   7 -15   0  -12.35   10.78
  -6  15   0    0.33    9.14
   6 -15   0  -10.74   10.85
   5 -15   0   -3.36    6.23
   5 -15   0   22.81   11.54
  -5  15   0    4.20    9.73
   4 -15   0    2.67   12.13
   4 -15   0    0.25    5.56
  -4  15   0    1.56    8.57
  -3  15   0    8.80    8.69
   3 -15   0   12.64   12.41
   3 -15   0    5.62    5.95
  -2  15   0    9.95    8.46
  -2  15   0    5.98   12.71
   2 -15   0    8.58   12.70
   2 -15   0    0.73    5.95
  -1  15   0    0.38   12.95
   1 -15   0    2.89   12.60
   1 -15   0   -2.34    6.12
  -1  15   0   -5.65    9.96
   0 -15   0   16.00   13.12
   0  15   0    1.94   11.37
   0  15   0   25.09   12.79
   0 -15   0    7.51    7.48
   1  15   0  -11.93   12.22
  -1 -15   0    0.87    7.35
   1  15   0    8.20   11.70
  -1 -15   0   18.02   12.35
   2  15   0   -6.44   12.21
  -2 -15   0   -0.30    7.27
   2  15   0    5.84   12.21
  -2 -15   0   25.48   12.29
   3  15   0   -8.57   12.26
  -3 -15   0   14.49    8.29
  -3 -15   0    2.70   11.80
   3  15   0   10.02   12.35
  -4 -15   0   18.65    8.23
   4  15   0   10.23   11.99
  -4 -15   0   -4.91   11.46
  -5 -15   0   20.61    8.78
   7 -16   0  -19.44   12.42
  -6  16   0    0.35   10.62
   6 -16   0  -18.06   12.62
  -5  16   0   -2.64   10.27
   5 -16   0  -11.81   13.12
   5 -16   0   -7.90    6.66
  -4  16   0   -5.22    9.47
   4 -16   0   -1.12    6.05
   4 -16   0   -6.02   13.59
   3 -16   0   -3.13   13.70
  -3  16   0   17.47   13.86
  -3  16   0    1.87    9.21
   3 -16   0    2.44    6.13
   2 -16   0   18.20    7.02
  -2  16   0    6.83   10.09
  -2  16   0   21.80   14.69
   2 -16   0   23.05   14.31
  -1  16   0   11.59   10.75
   1 -16   0  -27.93   14.58
  -1  16   0  -18.79   13.96
   1 -16   0  -12.43    7.03
   0 -16   0   -7.88   13.39
   0  16   0   12.14   14.05
   0  16   0    1.25   11.48
   0 -16   0    0.31    7.32
  -1 -16   0  -20.91   13.09
   1  16   0  -33.72   13.18
   1  16   0   14.37   14.58
  -1 -16   0   -0.64    7.97
   2  16   0   15.47   14.12
  -2 -16   0   10.30    8.30
   2  16   0   13.84   13.48
  -2 -16   0  -22.13   13.13
   3  16   0  -24.44   13.77
  -3 -16   0  -16.29   12.98
   3  16   0   10.27   13.42
  -3 -16   0  -15.39    8.31
   4  16   0   -0.34   13.78
  -4 -16   0    1.16   12.55
   4  16   0  -22.26   13.32
  -4 -16   0   -1.04    8.59
  -5 -16   0   -0.36    8.42
   7 -17   0  -19.72   14.46
  -6  17   0   -6.54   11.31
   6 -17   0    8.31   13.93
   5 -17   0   13.31   14.80
  -5  17   0    3.28   11.46
   5 -17   0    7.96    7.30
   4 -17   0   -6.77   14.98
  -4  17   0   -4.21   10.78
  -4  17   0   -7.95   15.06
   4 -17   0   -3.98    6.57
  -3  17   0    1.50   10.48
   3 -17   0  -36.05   16.03
  -3  17   0    0.45   15.52
   3 -17   0   -5.88    7.22
  -2  17   0   -6.56   16.90
   2 -17   0  -48.27   17.24
   2 -17   0  -20.28    8.28
  -2  17   0  -30.52   12.17
  -1  17   0   89.05   34.73
   1 -17   0  117.10   26.08
  -1  17   0   99.72   31.79
   0  17   0  102.31   28.95
   0  17   0   63.19   27.11
   0 -17   0   52.92   20.92
   1  17   0  100.78   33.90
  -1 -17   0   66.50   26.01
   1  17   0   25.82   32.87
  -1 -17   0  167.74   34.79
  -2 -17   0    0.36    9.72
  -2 -17   0  -23.01   15.63
   2  17   0    5.79   16.39
   2  17   0   13.72   15.69
   3  17   0   -2.25   15.11
  -3 -17   0  -26.39    9.40
   3  17   0  -10.18   14.79
  -3 -17   0   21.09   15.04
  -4 -17   0    8.57   14.25
   4  17   0   16.52   14.80
  -4 -17   0  -17.33    9.50
   4  17   0    2.62   15.22
  -5 -17   0   15.38    9.17
   5  17   0  -29.03   14.38
   5  17   0    7.84   15.47
   7 -18   0   -0.38   15.31
   6 -18   0   12.46   16.65
  -6  18   0   14.78   14.13
   5 -18   0   -8.47   16.39
  -5  18   0   -9.70   12.77
   5 -18   0   15.65    7.52
   4 -18   0   -9.39    7.83
  -4  18   0   13.80   11.95
  -4  18   0   -6.37   17.34
   4 -18   0   22.27   17.43
  -3  18   0    9.82   11.60
   3 -18   0    0.34    7.59
   3 -18   0  -38.30   17.34
  -3  18   0    2.53   17.40
  -2  18   0  -32.34   18.07
  -2  18   0   -2.05   12.10
   2 -18   0   -3.95   17.41
   2 -18   0  -11.27    7.94
   1 -18   0   10.19   17.44
  -1  18   0    4.87   13.04
  -1  18   0   -5.88   17.81
   1 -18   0   -6.05    8.54
   0 -18   0    6.01    9.05
   0 -18   0   29.60   17.43
   0  18   0   -2.77   17.63
   0  18   0   -1.54   14.46
  -1 -18   0   -7.07    9.51
  -1 -18   0   52.31   17.43
   1  18   0  -37.32   15.84
   1  18   0  -14.95   18.51
  -2 -18   0    0.80   10.07
  -2 -18   0    2.78   16.33
   2  18   0   15.39   17.94
   2  18   0    1.64   16.67
   3  18   0    4.80   16.51
  -3 -18   0    0.47   16.22
   3  18   0    4.93   16.23
  -3 -18   0    1.61    9.72
  -4 -18   0   10.46   15.50
   4  18   0   14.29   16.68
  -4 -18   0   -9.36   10.15
   4  18   0    4.31   16.93
  -5 -18   0   -5.40   10.07
   5  18   0    4.47   15.97
   5  18   0    4.43   16.44
   7 -19   0    0.85   17.04
   6 -19   0    9.59   18.03
  -6  19   0   13.96   13.96
  -5  19   0   10.52   19.11
  -5  19   0  -13.05   14.54
   5 -19   0    0.42    8.98
   5 -19   0    6.33   18.27
  -4  19   0  -43.72   19.23
  -4  19   0   -8.17   13.66
   4 -19   0   18.17   18.55
   4 -19   0    3.08    8.25
  -2  19   0  271.58   46.57
  -2  19   0  206.85   43.00
   1 -19   0  748.37  125.24
  -1  19   0  757.03  142.22
  -1  19   0  458.27  147.34
   0  19   0  227.81   57.72
   0  19   0  212.29   60.55
   0 -19   0  243.66   48.68
  -1 -19   0  243.86   94.73
   1  19   0  381.34  121.81
   1  19   0  259.98  118.87
  -2 -19   0   -6.57   21.29
   2  19   0   55.60   29.97
   2  19   0  102.11   32.20
   3  19   0    2.69   18.13
   3  19   0  -34.38   20.99
   4  19   0   -6.25   17.92
  -4 -19   0  -11.63   17.62
  -4 -19   0    7.09   11.16
   4  19   0    0.69   18.70
  -5 -19   0   -0.45   10.87
   5  19   0  -11.30   19.12
   5  19   0   18.59   17.80
   6 -20   0    0.49   17.59
  -6  20   0  -34.06   16.15
   5 -20   0   19.08   20.53
  -5  20   0    0.59   20.59
  -5  20   0    4.54   15.96
   5 -20   0  -13.00    9.68
   4 -20   0   -0.52   20.22
   4 -20   0    1.71    9.08
  -4  20   0  -22.21   15.90
  -4  20   0    0.61   21.33
   3 -20   0   -6.12   10.14
   3 -20   0  -22.68   20.53
  -3  20   0    0.45   14.87
  -3  20   0   -4.37   20.91
   2 -20   0   10.21   20.59
  -2  20   0  -28.41   21.81
   2 -20   0    0.43    9.64
  -2  20   0   -0.45   15.73
   1 -20   0   30.48   21.10
  -1  20   0   -7.43   22.18
  -1  20   0   -7.06   16.03
   1 -20   0   -3.94   10.17
   0  20   0    2.11   23.41
   0  20   0    2.78   17.48
   0 -20   0   -7.76   11.27
   0 -20   0   19.66   20.87
  -1 -20   0   -0.57   20.69
  -1 -20   0    4.25   11.46
   1  20   0   12.21   18.42
   1  20   0   10.93   22.31
  -2 -20   0   17.90   12.10
   2  20   0   10.39   22.53
  -2 -20   0   -0.58   20.72
   2  20   0   -7.52   19.66
   3  20   0    1.48   19.29
  -3 -20   0   23.75   12.24
   3  20   0  -12.85   21.65
   1  -1  -1   -0.02    0.05
   1  -1  -1   -0.02    0.09
  -1   1   1    0.02    0.06
  -1   1   1   -0.04    0.14
   1  -2  -1   96.78   12.87
  -1   2  -1   92.09   13.16
   1  -2  -1   70.22   13.19
   1  -2   1   95.69   12.94
  -1   2   1   84.01   12.92
  -1   2   1   95.65   13.10
   0  -2  -1   -0.25    0.30
   0  -2  -1    0.03    0.57
   0   2  -1    0.30    0.50
   0  -2   1    0.19    0.37
   0   2   1    0.20    0.63
   1   2  -1   93.49   12.47
  -1  -2   1   80.29   12.35
  -1  -2   1   77.51   12.70
  -2   2   1    0.08    0.41
  -2   3  -1    0.06    0.94
   2  -3  -1    0.23    0.57
   2  -3  -1   -0.12    0.92
   2  -3  -1    0.45    0.72
  -2   3   1   -0.23    0.97
   2  -3   1   -0.04    0.71
  -2   3   1   -0.13    0.55
   1  -3  -1   38.28    8.21
  -1   3  -1   38.74    9.15
   1  -3  -1   29.09    7.68
   1  -3  -1   28.59    9.11
   1  -3  -1   34.60    7.99
  -1   3   1   33.44    8.11
  -1   3   1   38.71    8.86
   1  -3   1   35.14    8.43
   1  -3   1   32.21    9.67
   0  -3  -1   18.21    4.03
   0   3  -1   14.02    4.40
   0  -3  -1   13.78    3.76
   0  -3  -1   12.97    4.65
   0   3   1   16.73    4.29
   0  -3   1   17.72    3.95
   0   3   1   18.50    4.50
   1   3  -1   30.30    8.55
  -1  -3  -1   30.81   10.43
  -1  -3   1   35.24    8.14
   1   3   1   31.12    9.31
   2   3  -1   -0.36    1.41
  -2  -3   1    0.31    1.54
   3  -4  -1    0.83    1.30
  -3   4   1    1.00    1.50
  -2   4  -1   49.56   12.09
   2  -4  -1   49.27   10.78
   2  -4  -1   35.60   10.21
   2  -4  -1   48.44   12.38
   2  -4  -1   42.37   10.56
  -2   4   1   37.51   10.39
  -2   4   1   43.71   11.69
   2  -4   1   49.45   11.76
   2  -4   1   50.41   10.53
   1  -4  -1    6.52    1.39
   1  -4  -1    5.37    1.64
  -1   4  -1    7.23    1.96
   1  -4  -1    6.84    1.44
   1  -4  -1    4.85    2.06
   1  -4   1    4.45    2.08
   1  -4   1    6.18    1.71
  -1   4   1    4.68    1.98
  -1   4   1    3.88    1.51
   0  -4  -1   -0.06    0.30
   0  -4  -1   -0.08    0.48
   0   4  -1   -0.55    1.40
   0  -4  -1    0.06    1.01
   0  -4  -1   -0.17    1.52
   0  -4   1    0.22    0.93
   0   4   1   -0.12    0.84
   0   4   1   -0.07    1.48
  -1  -4  -1    4.46    1.96
  -1  -4  -1    4.45    2.40
  -1  -4   1    6.00    1.83
   1   4   1    5.31    2.33
   2   4  -1   51.64   11.79
  -2  -4   1   31.06   12.91
  -2  -4   1   37.29   10.48
   3  -5  -1   72.92   16.06
  -3   5   1   58.71   18.32
   2  -5  -1   35.73    8.53
   2  -5  -1   32.97    8.29
  -2   5  -1   35.43    9.64
   2  -5  -1   33.78    8.57
   2  -5  -1   28.76    9.89
  -2   5   1   36.55    8.50
   2  -5   1   29.13    8.64
  -2   5   1   39.74    9.29
  -1   5  -1  144.99   34.92
   1  -5  -1  149.77   31.98
  -1   5  -1  147.01   35.90
   1  -5  -1  156.40   32.65
   1  -5  -1  147.60   37.16
   1  -5  -1  131.33   32.65
  -1   5   1  123.00   37.68
   1  -5   1  160.75   34.74
  -1   5   1   98.22   34.34
   1  -5   1  167.13   32.90
  -1   5   1  128.72   35.55
   0  -5  -1    3.85    1.06
   0   5  -1    3.24    1.22
   0  -5  -1    5.88    1.78
   0  -5  -1    5.70    1.27
   0  -5  -1    3.15    2.47
   0   5  -1    3.83    1.47
   0   5  -1    4.13    2.23
   0  -5   1    5.71    1.70
   0  -5   1    4.42    1.11
   0   5   1    4.20    1.76
   0   5   1    4.42    2.34
   0  -5   1    5.06    1.11
  -1  -5  -1  125.44   32.81
  -1  -5  -1  133.33   41.06
  -1  -5  -1  167.09   35.70
  -1  -5   1  173.73   34.65
   1   5   1  159.44   37.17
  -2  -5  -1   42.74    9.68
  -2  -5   1   45.90    9.70
   4  -6  -1   -1.39    2.49
  -4   6   1    1.02    2.69
  -3   6  -1    0.80    2.93
   3  -6  -1   -0.25    2.76
   3  -6  -1    1.65    1.37
   3  -6   1    2.90    2.55
  -3   6   1    0.56    1.38
   3  -6   1    3.54    2.21
   2  -6  -1  204.65   41.98
   2  -6  -1  184.38   42.63
   2  -6   1  198.03   43.87
   2  -6   1  191.74   47.53
  -2   6   1  180.60   43.32
  -1   6  -1   14.20    3.34
   1  -6  -1   13.95    3.10
   1  -6  -1   11.96    3.01
   1  -6   1   12.73    4.47
   1  -6   1   12.98    3.13
   1  -6   1    8.98    3.28
  -1   6   1   11.97    3.73
  -1   6   1   11.57    3.30
   0  -6  -1   -0.20    1.04
   0  -6  -1   -0.11    0.57
   0   6  -1   -0.18    1.21
   0   6  -1    0.18    0.72
   0  -6   1    0.07    0.69
   0  -6   1   -0.10    0.56
   0   6   1   -0.08    1.66
   0  -6   1    0.80    3.18
  -1  -6  -1   10.66    4.94
  -1  -6  -1   15.89    3.02
   1   6   1   13.55    4.66
  -1  -6   1   11.59    2.90
  -2  -6  -1  205.55   43.43
   2   6   1  180.71   47.33
   3   6  -1    1.68    3.89
  -3  -6   1    3.39    2.83
  -3  -6   1    4.04    4.24
   5  -7  -1   -0.29    3.26
  -4   7  -1   21.56   11.18
   4  -7  -1   39.89   10.77
   4  -7  -1   41.60    9.66
   4  -7   1   42.99   10.26
  -4   7   1   32.24   11.18
  -3   7  -1    1.50    3.19
   3  -7  -1   -1.16    3.20
   3  -7  -1    1.33    2.17
   3  -7  -1    1.27    1.48
  -3   7   1    4.04    1.61
  -3   7   1    2.20    3.13
   3  -7   1    1.46    3.14
   3  -7   1    1.97    2.38
   2  -7  -1   47.62   11.25
   2  -7  -1   45.33   11.55
  -2   7  -1   52.52   12.53
   2  -7  -1   53.69   13.52
  -2   7   1   50.77   12.34
   2  -7   1   44.21   12.09
  -2   7   1   55.99   12.20
   2  -7   1   41.93   11.37
   2  -7   1   37.91   13.46
   1  -7  -1    8.23    4.53
   1  -7  -1    9.58    3.17
   1  -7  -1   11.81    2.64
   1  -7  -1   13.15    2.56
  -1   7  -1    9.43    3.12
  -1   7  -1   11.53    4.00
  -1   7  -1   10.72    2.88
   1  -7   1    9.47    4.45
  -1   7   1    9.90    2.83
  -1   7   1   10.16    3.27
   1  -7   1   12.09    3.11
   1  -7   1    5.25    2.81
  -1   7   1   10.99    4.01
   1  -7   1    8.16    2.56
   0  -7  -1    3.32    2.42
   0   7  -1    1.80    1.65
   0   7  -1    1.69    3.21
   0  -7  -1    2.36    3.68
   0  -7  -1    2.71    0.82
   0  -7  -1    2.16    1.24
   0   7  -1    0.86    1.04
   0   7   1    1.61    3.53
   0   7   1    2.10    2.10
   0  -7   1    1.98    0.85
   0   7   1   -0.68    3.56
   0  -7   1   -0.65    3.68
   0  -7   1    5.49    2.36
   0  -7   1    2.24    1.02
  -1  -7  -1   12.65    2.43
  -1  -7  -1   12.24    3.72
  -1  -7  -1    9.91    4.71
   1   7   1    4.36    4.40
  -1  -7   1    8.99    2.27
  -1  -7   1   10.32    3.57
  -2  -7  -1   49.20   12.06
  -2  -7  -1   44.34   14.25
  -2  -7  -1   44.35   11.11
  -2  -7   1   58.01   11.28
  -2  -7   1   43.61   11.96
   2   7   1   38.34   13.33
   3   7  -1    2.58    4.44
  -3  -7  -1    0.16    3.16
  -3  -7   1    0.90    3.21
  -3  -7   1   -0.47    4.71
   4   7  -1   48.27   12.32
  -4  -7   1   42.89   10.19
   5  -8  -1   56.58   16.09
   4  -8  -1   17.04    4.97
   4  -8  -1    5.01    3.94
  -4   8  -1    5.01    5.42
   4  -8  -1   17.10    3.48
   4  -8   1   17.80    4.59
   4  -8   1    8.28    4.13
  -4   8   1    5.40    5.06
   3  -8  -1   87.94   22.84
   3  -8  -1  102.30   26.72
  -3   8  -1  116.55   25.96
  -3   8   1  115.31   25.20
   3  -8   1   65.23   22.95
   3  -8   1  117.97   26.18
   2  -8  -1    8.39    3.22
  -2   8  -1    3.95    4.07
   2  -8  -1    5.01    2.53
   2  -8  -1   12.64    5.04
   2  -8  -1    6.95    2.30
   2  -8   1    8.63    4.75
   2  -8   1    7.88    2.36
  -2   8   1    7.84    3.01
  -2   8   1    6.14    4.31
   2  -8   1   10.21    3.14
  -2   8   1    5.38    2.69
  -1   8  -1    1.74    1.66
   1  -8  -1    0.80    1.17
   1  -8  -1    2.54    1.24
   1  -8  -1    4.78    2.48
  -1   8  -1    0.21    3.59
   1  -8  -1    2.20    4.47
  -1   8  -1    0.77    1.36
   1  -8   1    4.09    4.41
   1  -8   1    0.11    2.50
   1  -8   1    1.48    1.05
  -1   8   1    1.35    2.06
   1  -8   1    1.97    1.39
  -1   8   1    2.36    1.44
  -1   8   1    2.36    3.64
   0   8  -1   -0.04    1.07
   0  -8  -1    2.89    2.80
   0  -8  -1   -0.35    1.38
   0  -8  -1   -0.13    4.49
   0   8  -1   -0.22    3.96
   0  -8  -1   -0.43    0.83
   0   8  -1   -0.77    2.03
   0  -8   1   -2.21    2.64
   0  -8   1   -0.04    1.10
   0   8   1   -1.39    2.56
   0   8   1   -0.80    3.92
   0   8   1   -2.21    4.20
   0  -8   1   -1.28    4.61
   0  -8   1    0.12    0.89
  -1  -8  -1    1.88    0.90
   1   8  -1    3.26    4.34
  -1  -8  -1    3.54    3.19
  -1  -8  -1   -1.22    4.53
  -1  -8   1    1.34    4.44
  -1  -8   1    1.60    0.68
  -1  -8   1   -1.72    3.16
   1   8   1    1.57    4.43
  -2  -8  -1   13.70    4.31
  -2  -8  -1    4.52    5.70
  -2  -8  -1   10.40    2.46
  -2  -8   1    8.40    4.09
   2   8   1   10.61    5.39
  -2  -8   1   10.70    2.29
  -3  -8  -1   69.26   21.85
  -3  -8  -1  108.93   27.36
   3   8  -1   69.65   24.52
   3   8   1   75.54   25.22
  -3  -8   1   78.23   21.95
   4   8  -1    4.70    5.90
  -4  -8   1    7.90    4.64
  -4  -8   1    4.93    6.59
   5  -9  -1   16.57    5.41
   5  -9  -1   10.92    3.68
  -5   9   1    7.97    5.80
   5  -9   1   10.81    5.12
  -4   9  -1   84.35   32.60
   4  -9  -1  118.28   27.57
   4  -9  -1  115.46   29.25
   4  -9  -1  116.80   31.86
   4  -9   1  122.43   27.97
  -4   9   1  138.83   31.81
   3  -9  -1    0.66    2.74
   3  -9  -1    0.54    4.93
  -3   9  -1   -1.20    4.07
   3  -9   1   -0.43    2.91
  -3   9   1   -0.82    3.78
   3  -9   1    1.31    4.41
   3  -9   1   -1.00    1.65
  -2   9  -1   43.58   12.24
   2  -9  -1   40.74   11.29
   2  -9  -1   46.91   13.99
   2  -9  -1   48.08   11.91
   2  -9  -1   50.61   10.91
   2  -9   1   46.81   11.33
   2  -9   1   40.94   13.80
  -2   9   1   43.68   13.37
  -2   9   1   55.26   12.68
  -2   9   1   42.37   12.29
   2  -9   1   52.55   10.94
  -1   9  -1   -0.19    1.43
   1  -9  -1    2.74    5.15
   1  -9  -1    0.93    1.30
  -1   9  -1    1.58    4.17
   1  -9  -1   -0.13    3.00
  -1   9  -1    1.11    1.90
   1  -9  -1    1.12    1.33
   1  -9   1   -0.64    1.14
  -1   9   1    0.85    1.55
   1  -9   1   -2.93    5.37
  -1   9   1   -1.48    2.37
   1  -9   1    0.77    2.83
   1  -9   1    0.08    1.44
  -1   9   1   -0.12    4.33
   0   9  -1    1.05    2.57
   0  -9  -1    2.36    3.09
   0  -9  -1   -0.07    1.60
   0   9  -1   -0.46    1.27
   0   9  -1   -0.13    4.49
   0   9  -1    3.03    5.33
   0  -9  -1   -0.32    1.02
   0  -9  -1    3.09    5.15
   0   9   1   -0.62    1.35
   0   9   1    2.93    3.04
   0   9   1    2.75    5.00
   0  -9   1    2.01    3.11
   0  -9   1    3.17    5.70
   0   9   1    1.71    4.88
   1   9  -1   -1.15    5.29
  -1  -9  -1   -0.15    0.84
  -1  -9  -1   -0.62    5.06
  -1  -9  -1   -1.12    3.48
   1   9  -1   -1.09    5.10
  -1  -9   1   -4.78    3.42
  -1  -9   1   -2.47    5.47
   1   9   1   -0.72    5.12
  -2  -9  -1   47.83   12.32
  -2  -9  -1   24.73   14.17
  -2  -9  -1   55.76   11.24
  -2  -9   1   59.83   12.27
   2   9   1   49.20   13.57
  -3  -9  -1   -2.30    4.25
  -3  -9  -1   -0.20    5.93
   3   9   1   -2.11    5.68
  -3  -9   1    0.37    4.15
   4   9  -1  113.62   33.01
  -4  -9  -1  143.31   28.75
   6 -10  -1   11.27    6.09
   5 -10  -1   29.66    6.99
   5 -10  -1   23.58    7.49
   5 -10  -1   26.14    8.78
  -5  10  -1   14.25    9.36
   5 -10   1   33.08    8.54
  -5  10   1   24.31    9.24
   4 -10  -1    5.41    5.61
  -4  10  -1    3.40    5.10
   4 -10  -1    0.91    2.31
   4 -10  -1    3.75    3.38
  -4  10   1    1.90    4.96
   4 -10   1    1.84    3.81
   4 -10   1    1.02    5.15
   3 -10  -1   73.61   19.02
  -3  10  -1   76.44   21.73
   3 -10  -1   90.67   24.09
  -3  10   1   83.64   21.37
   3 -10   1   73.66   19.15
   3 -10   1   93.63   23.32
   2 -10  -1   -1.31    6.14
  -2  10  -1   -0.64    4.36
   2 -10  -1   -1.25    3.11
   2 -10   1    1.62    5.91
   2 -10   1    1.85    3.18
  -2  10   1   -0.64    4.38
   1 -10  -1    1.16    3.39
   1 -10  -1   -0.67    6.26
  -1  10  -1    2.09    4.84
  -1  10   1    3.04    5.01
   1 -10   1    3.19    3.36
   1 -10   1    5.97    6.34
  -1  10   1    5.89    6.23
   0  10  -1   -0.83    6.20
   0  10  -1   -0.59    5.21
   0 -10  -1    2.52    3.74
   0 -10  -1    0.17    5.87
   0  10   1    4.97    6.14
   0  10   1    1.82    5.66
   0 -10   1    0.17    6.11
   0 -10   1    0.91    3.54
   1  10  -1    6.72    6.12
   1  10  -1    3.78    6.16
  -1 -10  -1    1.40    6.07
  -1 -10  -1    2.30    4.22
   1  10   1    3.73    5.74
   1  10   1   -2.38    6.51
  -1 -10   1    1.01    4.01
  -1 -10   1    6.35    6.38
  -2 -10  -1    3.22    6.05
  -2 -10  -1    0.39    4.35
   2  10   1   -5.06    6.29
  -2 -10   1    0.19    4.13
  -3 -10  -1   85.69   20.47
  -3 -10  -1   62.65   24.17
   3  10   1   89.40   22.85
  -3 -10   1   69.94   20.40
  -4 -10  -1    0.66    4.97
   4  10  -1    0.28    7.08
  -4 -10  -1    5.23    6.84
  -4 -10   1    0.45    6.75
  -4 -10   1    3.86    4.92
   5  10  -1   39.87   10.26
  -5 -10   1   13.70    7.90
   6 -11  -1    9.87    6.48
   5 -11  -1    5.00    4.56
  -5  11  -1    1.37    6.28
   5 -11  -1    4.14    6.25
   5 -11   1    7.64    4.81
   5 -11   1    3.25    5.97
  -5  11   1    2.73    6.43
  -4  11  -1   41.54   14.49
   4 -11  -1   51.00   15.11
   4 -11  -1   36.77   11.86
   4 -11   1   51.38   11.87
   4 -11   1   69.32   14.66
  -4  11   1   42.42   14.00
   3 -11  -1    2.95    7.03
  -3  11  -1    2.04    5.05
   3 -11  -1   -0.95    3.46
   3 -11   1    1.00    3.51
   3 -11   1   -5.69    6.77
  -3  11   1   -0.29    5.04
  -2  11  -1    9.39    5.32
   2 -11  -1    3.92    3.73
   2 -11  -1    9.68    7.48
   2 -11   1   -0.57    7.40
  -2  11   1    2.46    5.36
   2 -11   1    7.79    3.87
   1 -11  -1    2.13    7.50
  -1  11  -1    2.85    6.15
   1 -11  -1   10.45    4.43
  -1  11   1   -4.07    7.37
   1 -11   1   13.77    7.79
   1 -11   1   12.45    4.25
  -1  11   1   11.87    6.43
   0  11  -1    5.27    6.56
   0 -11  -1    4.86    7.31
   0 -11  -1    6.03    4.49
   0  11  -1    6.44    7.51
   0  11   1    1.38    6.87
   0 -11   1    8.29    4.49
   0  11   1   10.47    7.40
   0 -11   1   19.59    7.87
  -1 -11  -1    5.33    7.33
   1  11  -1    5.56    7.40
  -1 -11  -1   11.80    5.11
   1  11  -1    6.01    7.47
   1  11   1    5.19    7.35
  -1 -11   1   -0.81    7.24
   1  11   1    7.47    7.48
  -1 -11   1   11.66    4.77
  -2 -11  -1    6.23    5.41
   2  11  -1    2.22    7.86
  -2 -11  -1   13.25    7.19
  -2 -11   1    6.60    5.28
  -2 -11   1    0.21    7.68
   2  11   1    4.90    7.25
  -3 -11  -1   -0.92    5.22
  -3 -11  -1    0.23    7.29
  -3 -11   1   -0.22    5.16
   3  11   1   -1.13    7.41
  -4 -11  -1   37.06   15.86
  -4 -11  -1   42.07   12.72
   4  11  -1   45.40   15.22
  -4 -11   1   54.95   12.71
   4  11   1   48.02   15.20
   5  11  -1    8.62    8.00
  -5 -11   1  -24.56    6.14
   6 -12  -1    0.74    6.86
  -6  12   1    3.53    6.95
   6 -12   1    5.25    6.58
  -5  12  -1   17.03   10.33
   5 -12  -1   28.40    7.69
   5 -12  -1   25.47   10.43
  -5  12   1   14.08   10.10
   5 -12   1   32.33    8.06
   5 -12   1   21.07    9.75
   4 -12  -1    1.35    4.15
   4 -12  -1   -1.81    8.12
  -4  12  -1    1.81    6.46
  -4  12   1    0.73    5.86
   4 -12   1   -4.62    7.47
   4 -12   1    1.85    4.07
   3 -12  -1   18.48    5.71
  -3  12  -1   22.09    7.60
   3 -12  -1   32.06    9.98
   3 -12   1   13.43    5.86
  -3  12   1   12.18    7.26
   3 -12   1   17.23    9.56
   2 -12  -1  -15.46    9.09
   2 -12  -1    0.87    4.54
  -2  12  -1    3.58    5.98
  -2  12   1    0.98    6.23
   2 -12   1   -1.42    4.62
  -1  12  -1   38.79   14.18
  -1  12  -1   18.40   12.02
   1 -12  -1   27.27    9.81
  -1  12   1   13.65   13.55
   1 -12   1   39.45    9.94
  -1  12   1   11.52   12.18
   0 -12  -1   12.72    7.20
   0  12  -1   34.77   11.37
   0 -12  -1   53.84   10.87
   0  12  -1   15.81   10.45
   0  12   1    5.47    9.91
   0  12   1    1.82    9.95
   0 -12   1   22.40    7.80
  -1 -12  -1   46.97   13.93
  -1 -12  -1   13.53   10.99
   1  12  -1   72.66   14.20
   1  12  -1   39.06   14.24
   1  12   1   11.57   14.40
   1  12   1   16.81   13.11
  -1 -12   1   25.13   11.08
  -2 -12  -1    5.88    5.81
  -2 -12  -1  -14.03    8.26
   2  12  -1   -2.02    9.04
   2  12  -1   -8.05    9.24
  -2 -12   1   -5.90    5.78
   2  12   1    1.73    8.37
  -2 -12   1  -21.63    8.93
  -3 -12  -1   25.33    7.60
  -3 -12  -1    0.76    9.81
   3  12   1   15.84    9.64
  -3 -12   1   22.91    7.35
  -4 -12  -1    1.55    6.24
  -4 -12  -1    5.73    8.61
  -4 -12   1   -0.25    5.96
   4  12   1   13.12    8.57
   5  12  -1   63.76   14.03
   5 -13  -1   10.40    5.59
  -5  13   1   15.27    8.32
   4 -13  -1    7.79    7.45
   4 -13  -1   64.47   11.97
  -4  13  -1   18.43    9.84
  -4  13   1   24.33    9.77
   4 -13   1   29.79    7.76
   3 -13  -1   -0.39    4.59
  -3  13  -1   -4.26    6.75
   3 -13  -1   -6.54    9.65
  -3  13   1   -3.09    6.96
   3 -13   1   -2.23    4.81
  -2  13  -1    1.28    6.90
   2 -13  -1    3.91    4.95
   2 -13  -1   -4.23   10.03
  -2  13   1    1.66    6.93
   2 -13   1    3.76    4.95
  -2  13   1    0.87   10.02
  -1  13  -1    7.07    8.01
   1 -13  -1  -12.73    9.90
  -1  13  -1   -0.30   10.53
   1 -13  -1    6.90    5.60
  -1  13   1   -2.93   10.17
  -1  13   1    7.41    8.21
   1 -13   1    9.72    5.40
   1 -13   1   10.26   10.61
   0 -13  -1   11.24    9.68
   0  13  -1    0.87    8.51
   0  13  -1   21.90    9.83
   0 -13  -1    0.22    5.59
   0 -13   1    0.44    5.62
   0  13   1    1.56    8.79
   0  13   1   -3.83    9.60
   0 -13   1   35.28   10.15
   1  13  -1    5.39    9.45
  -1 -13  -1    3.37    6.41
  -1 -13  -1    8.76    9.41
   1  13   1    9.21    9.52
   1  13   1   -5.50   10.01
  -1 -13   1    6.78    6.28
   2  13  -1    6.47   10.07
  -2 -13  -1    0.26    6.64
  -2 -13   1   -3.74    6.42
   2  13   1   -2.03   10.73
   5  13  -1   -1.95    9.51
   7 -14  -1   14.71    9.78
  -6  14  -1   -0.31    8.56
   6 -14  -1   12.70    9.54
   6 -14   1    3.47    9.14
  -6  14   1    3.82    8.62
  -5  14  -1   -7.63   10.65
   5 -14  -1   -2.24   11.02
   5 -14   1   27.33   10.67
  -5  14   1   33.83    9.14
   5 -14   1    9.22    7.09
   4 -14  -1  -10.31   10.72
  -4  14  -1    5.78    7.39
   4 -14   1   18.64    5.40
   4 -14   1  -12.82   10.26
   3 -14   1   -0.22    4.45
   3 -14   1    5.42   10.84
   2 -14   1    0.28   11.93
  -1  14  -1    7.25   11.19
   1 -14   1  -11.84   11.54
   0  14  -1   -9.77   11.21
   0 -14   1    0.87   11.00
  -1 -14  -1  -21.80   10.54
   1  14  -1    9.56   11.07
  -1 -14   1    0.29   10.65
  -1 -14   1   -0.26    5.07
   1  14   1    0.35   10.51
  -2 -14  -1    8.79   11.08
   2  14  -1   37.73   11.77
   2  14  -1   -2.98   11.62
  -2 -14   1   21.03    7.57
   2  14   1  -16.13   11.47
  -2 -14   1   -2.07   11.15
   3  14  -1   25.88   11.43
  -3 -14  -1   13.21    7.47
  -3 -14  -1    1.53   10.76
   3  14  -1    8.54   11.29
  -3 -14   1    1.22   10.90
   3  14   1   29.36   11.10
  -3 -14   1    6.83    7.23
  -4 -14  -1    0.30    7.25
  -4 -14  -1    0.32   10.30
   4  14   1   -8.86   10.39
  -4 -14   1  -11.83    7.35
  -5 -14  -1    2.82    8.38
   5  14   1   23.18   11.69
  -5 -14   1    9.62    8.28
   7 -15  -1    8.95   10.90
  -6  15  -1   11.65    9.94
   6 -15  -1    0.92    6.52
   6 -15  -1   13.32   11.20
   6 -15   1   19.37   10.59
  -6  15   1   12.08    9.62
  -5  15  -1   13.23    9.77
   5 -15  -1   -0.82    5.83
   5 -15  -1   13.85   11.82
  -5  15   1   10.58    9.19
   5 -15   1    3.28   10.70
   5 -15   1    2.11    6.40
  -4  15  -1   -5.33    8.66
   4 -15  -1    5.28    5.71
   4 -15  -1    5.38   12.15
   4 -15   1    2.91    5.88
  -4  15   1   -0.73    8.28
   4 -15   1   11.08   11.84
   3 -15  -1    5.29   12.68
  -3  15  -1   -3.62    8.29
   3 -15  -1   -1.94    5.66
   3 -15   1  -37.39   12.73
   3 -15   1  -11.59    5.74
  -3  15   1   -5.06   12.84
  -3  15   1   -5.49    8.14
  -2  15  -1   -5.63    8.58
   2 -15  -1    2.68    5.76
   2 -15  -1    0.95   12.32
  -2  15  -1   17.77   13.01
   2 -15   1    0.32   13.07
  -2  15   1  -15.14   12.82
  -2  15   1    0.46    8.52
   2 -15   1    4.89    5.77
   1 -15  -1   -7.90   12.31
   1 -15  -1   -9.10    6.41
  -1  15  -1   -0.75    9.26
  -1  15  -1  -15.08   13.23
  -1  15   1   -5.68    9.92
   1 -15   1    1.81    6.42
   1 -15   1  -18.43   13.07
  -1  15   1  -17.57   12.39
   0  15  -1   -4.73   10.66
   0 -15  -1    0.31   12.21
   0  15  -1   17.23   13.15
   0 -15  -1    4.16    6.84
   0  15   1   -6.79   12.33
   0 -15   1   -4.68    7.02
   0  15   1   11.75   11.15
   0 -15   1    0.33   12.78
   1  15  -1   -6.78   12.93
   1  15  -1    1.76   11.52
  -1 -15  -1    0.32   12.15
  -1 -15  -1    0.59    7.19
  -1 -15   1    1.43    7.23
  -1 -15   1   -0.97   12.91
   1  15   1  -24.68   12.79
   1  15   1   -4.73   11.84
   2  15  -1    7.96   12.83
  -2 -15  -1  -24.47   12.26
  -2 -15  -1    4.29    7.68
   2  15  -1    9.75   11.85
  -2 -15   1    6.96   12.24
   2  15   1   18.80   12.30
   2  15   1    0.41   12.49
  -2 -15   1   -0.30    7.42
  -3 -15  -1    0.32    7.67
   3  15  -1    8.25   12.73
   3  15  -1    4.99   12.29
  -3 -15  -1   -0.34   11.93
  -3 -15   1  -17.01   12.12
   3  15   1    4.24   11.96
   3  15   1    3.46   12.78
  -3 -15   1  -18.31    7.75
   4  15  -1   13.51   12.43
  -4 -15  -1   12.18    8.00
  -4 -15  -1   -0.35   11.32
  -4 -15   1    2.23    7.94
   4  15   1    0.44   11.41
  -5 -15  -1    3.01    7.79
  -5 -15   1   -2.27    8.05
   5  15   1   18.26   11.70
   7 -16  -1  -20.22   13.24
   6 -16  -1   22.69    7.26
   6 -16  -1   -7.44   12.96
  -6  16  -1    1.44   10.33
  -6  16   1   -7.52   10.36
   6 -16   1  -10.09   12.16
   5 -16  -1  -12.02   13.50
  -5  16  -1   -0.67   10.49
   5 -16  -1   -6.52    6.43
  -5  16   1   -9.79    9.95
   5 -16   1   -0.33    6.57
   5 -16   1   -2.21   12.67
   4 -16  -1  -10.44   13.94
   4 -16  -1   20.41    6.20
  -4  16  -1   -2.36    9.64
  -4  16   1    5.45    8.76
   4 -16   1    4.06    6.29
   4 -16   1  -13.48   13.39
   3 -16  -1  -11.27    6.02
   3 -16  -1   27.16   14.47
  -3  16  -1   -1.23   13.82
  -3  16  -1  -13.55    9.15
   3 -16   1    3.38    6.27
  -3  16   1    2.83   13.71
   3 -16   1  -18.34   14.04
  -3  16   1    4.37    8.93
   2 -16  -1    4.61    6.24
  -2  16  -1   -6.75   14.11
  -2  16  -1    0.53    9.41
   2 -16  -1   -8.81   13.35
   2 -16   1   -6.91    6.29
  -2  16   1    5.80   13.90
   2 -16   1   13.15   14.05
  -2  16   1   10.63    9.81
   1 -16  -1  -16.29   13.67
  -1  16  -1    2.25   10.09
   1 -16  -1   -5.51    7.08
  -1  16  -1    6.49   14.54
   1 -16   1    0.29    6.87
  -1  16   1    8.69   10.87
  -1  16   1    9.61   14.04
   1 -16   1    4.34   13.82
   0 -16  -1   -0.35   13.27
   0 -16  -1   -0.31    7.31
   0  16  -1    0.31   11.98
   0  16  -1  -19.46   14.48
   0 -16   1   -0.36   13.65
   0 -16   1    3.65    7.10
   0  16   1   25.12   13.35
   0  16   1   -1.89   11.95
  -1 -16  -1  -27.69   13.22
  -1 -16  -1    6.11    8.41
   1  16  -1    3.59   12.77
   1  16  -1   -4.56   13.97
  -1 -16   1   12.43    7.64
   1  16   1   12.22   13.34
   1  16   1   20.11   14.44
   2  16  -1  -29.75   14.88
  -2 -16  -1  -12.47    7.97
   2  16  -1    3.02   13.00
  -2 -16  -1   12.36   12.75
  -2 -16   1  -19.36    8.07
   2  16   1    8.83   13.66
   2  16   1  -22.67   14.29
  -2 -16   1   -2.59   13.13
  -3 -16  -1   -2.63   12.91
   3  16  -1  -20.44   14.06
  -3 -16  -1   21.44    8.49
   3  16  -1   10.92   13.34
   3  16   1  -14.80   14.15
   3  16   1   41.59   14.18
  -3 -16   1  -12.87   13.12
  -3 -16   1    1.01    8.13
  -4 -16  -1    0.35    8.51
   4  16  -1  -20.25   13.77
  -4 -16  -1    7.33   12.74
  -4 -16   1  -15.15    8.64
  -4 -16   1    0.39   12.87
   4  16   1   17.20   14.18
   4  16   1   -4.91   12.83
  -5 -16  -1    3.25    8.47
  -5 -16   1    0.35    8.65
   5  16   1   18.48   12.97
   7 -17  -1   40.92   17.76
  -6  17  -1    5.90   11.40
   6 -17  -1  -14.50    7.32
   6 -17  -1    3.15   14.34
   6 -17   1   -9.13   13.58
  -6  17   1   23.86   11.26
   5 -17  -1    1.10   14.94
   5 -17  -1   -1.30    6.84
  -5  17  -1  -19.35   11.46
   5 -17   1    6.03    7.33
  -5  17   1   17.08   11.59
   5 -17   1  -16.31   14.45
   4 -17  -1  -23.51   15.61
  -4  17  -1   22.46   10.92
   4 -17  -1    0.30    6.51
   4 -17   1    9.57    6.99
  -4  17   1    8.57   10.31
   4 -17   1    8.51   15.04
  -4  17   1   -1.75   15.74
  -3  17  -1   29.20   15.93
   3 -17  -1  -29.05   15.73
  -3  17  -1   -1.22   10.39
   3 -17  -1   -2.68    6.94
   3 -17   1   15.93    7.03
   3 -17   1  -34.81   15.99
  -3  17   1   -7.24   15.68
  -3  17   1    0.30   10.61
   2 -17  -1  -26.58    8.07
  -2  17  -1  -24.67   12.05
  -2  17  -1   34.92   16.63
  -2  17   1  -10.12   16.33
  -1  17  -1   82.15   26.11
   1 -17  -1   99.20   21.59
  -1  17  -1   91.96   29.44
  -1  17   1   57.42   29.35
  -1  17   1   59.68   26.44
   1 -17   1   97.09   21.30
   0 -17  -1   73.42   25.91
   0 -17  -1  159.44   35.03
   0  17  -1   81.36   31.89
   0  17  -1  105.90   34.10
   0  17   1  127.38   33.45
   0  17   1   58.13   32.30
   0 -17   1   92.69   25.59
   1  17  -1   77.48   28.54
  -1 -17  -1   13.60   20.90
  -1 -17  -1  108.72   28.52
   1  17  -1   24.59   26.91
  -1 -17   1  166.19   29.59
   1  17   1   51.25   27.56
  -1 -17   1   60.66   20.68
   1  17   1   24.04   27.31
   2  17  -1    8.03   16.74
  -2 -17  -1    5.73   14.94
   2  17  -1   -2.61   15.15
  -2 -17  -1    2.20    8.94
  -2 -17   1    4.17   15.69
   2  17   1  -11.94   15.21
  -2 -17   1    1.44    8.76
   2  17   1   -2.59   15.78
   3  17  -1  -11.45   15.26
   3  17  -1  -19.47   14.79
  -3 -17  -1  -11.61    9.38
  -3 -17  -1   -5.44   14.82
  -3 -17   1    0.42   14.18
   3  17   1  -10.57   15.10
   3  17   1   -0.75   15.43
  -3 -17   1    9.91    9.36
  -4 -17  -1   -0.43   14.41
   4  17  -1  -14.58   14.93
  -4 -17  -1   -3.06    9.37
   4  17  -1    8.91   15.45
   4  17   1    5.63   15.36
   4  17   1  -10.35   14.53
  -4 -17   1   -4.85    9.16
  -4 -17   1  -14.23   14.60
   5  17  -1  -21.65   15.45
  -5 -17  -1   21.01    9.69
   5  17   1   28.84   14.54
  -5 -17   1    1.13    9.14
   7 -18  -1    7.61   15.60
   6 -18  -1    4.21    8.08
  -6  18  -1   10.34   13.55
   6 -18  -1   14.24   16.83
  -6  18   1   32.67   13.56
   6 -18   1  -39.94   16.37
  -5  18  -1   -5.36   13.04
   5 -18  -1   -3.20    7.48
   5 -18  -1   32.01   17.05
  -5  18   1    1.19   12.55
   5 -18   1    8.37   16.33
   5 -18   1  -11.27    8.02
  -5  18   1    2.85   16.87
   4 -18  -1   29.49   17.17
  -4  18  -1   12.78   12.61
  -4  18  -1   -7.81   16.84
   4 -18  -1   -0.33    7.00
  -4  18   1   -6.77   12.06
   4 -18   1    0.35    7.29
   4 -18   1  -26.62   17.30
  -4  18   1   -6.35   17.49
   3 -18  -1   -3.97    7.31
  -3  18  -1  -12.23   17.24
   3 -18  -1  -28.84   17.05
  -3  18   1    4.03   17.74
   3 -18   1   21.45   17.04
  -3  18   1   -1.67   11.65
   3 -18   1    6.93    7.45
   2 -18  -1   -0.44   16.73
  -2  18  -1    8.92   17.86
   2 -18  -1   -5.11    7.78
  -2  18  -1  -18.21   12.13
  -2  18   1   15.41   17.05
   2 -18   1   25.97   17.39
   2 -18   1   -8.89    7.82
  -2  18   1   -6.97   12.15
  -1  18  -1    4.88   17.57
   1 -18  -1   26.71   16.96
  -1  18  -1   -9.40   12.52
   1 -18  -1    9.26    8.41
   1 -18   1  -12.80    8.56
  -1  18   1  -12.66   17.59
   1 -18   1   19.18   17.46
  -1  18   1   -4.53   13.06
   0 -18  -1   -7.54    8.95
   0  18  -1   -7.11   13.68
   0  18  -1  -11.08   17.67
   0 -18  -1   -5.75   16.08
   0  18   1   11.57   14.51
   0 -18   1    0.37    8.67
   0 -18   1   -6.30   17.65
   0  18   1   14.75   17.15
   1  18  -1   10.08   15.25
  -1 -18  -1    5.16    9.55
  -1 -18  -1    7.24   16.43
   1  18  -1   16.94   18.59
  -1 -18   1  -23.07   17.08
   1  18   1   29.06   17.91
   1  18   1    6.46   15.65
  -1 -18   1  -10.48    9.23
   2  18  -1    7.22   17.69
  -2 -18  -1    9.61    9.78
  -2 -18  -1  -16.88   16.32
   2  18  -1  -12.33   15.83
  -2 -18   1    0.46   16.41
  -2 -18   1    0.79    9.32
   2  18   1    0.41   16.12
   2  18   1    3.48   16.98
  -3 -18  -1   -9.76   16.07
   3  18  -1    0.82   15.75
   3  18  -1   -4.28   17.75
  -3 -18  -1   11.01    9.71
  -3 -18   1   17.59   17.38
   3  18   1    6.50   16.61
  -3 -18   1    3.98   10.04
   3  18   1    9.88   16.69
  -4 -18  -1   12.44   10.24
  -4 -18  -1    8.01   15.53
   4  18  -1   13.89   16.30
   4  18  -1  -17.44   17.51
   4  18   1   -5.72   16.54
   4  18   1    4.85   16.12
  -4 -18   1    0.40   10.02
  -4 -18   1   -3.35   16.14
   5  18  -1   -8.13   16.83
   5  18   1   -0.82   16.81
  -5 -18   1  -23.72   10.35
   7 -19  -1   -6.41   17.34
   6 -19  -1    5.42    8.77
   6 -19  -1   13.32   18.08
  -6  19  -1  -10.45   13.92
   6 -19   1  -20.28   17.57
  -6  19   1   12.31   13.54
  -5  19  -1   44.25   18.91
   5 -19  -1    0.39    8.03
  -5  19  -1   14.70   14.28
   5 -19  -1  -16.44   18.45
  -5  19   1    8.82   13.91
   5 -19   1   -6.42    8.90
   5 -19   1    0.90   17.71
  -5  19   1   -1.06   18.70
   4 -19  -1    0.38    8.37
  -4  19  -1   -2.18   13.58
   4 -19  -1   17.26   18.83
  -4  19  -1    2.18   19.04
  -4  19   1  -36.07   13.71
   4 -19   1   -3.50    8.25
   4 -19   1    5.54   18.86
  -4  19   1   13.05   18.69
  -3  19  -1  -64.01   23.87
   2 -19  -1  105.54   21.32
  -2  19  -1  105.56   29.85
  -1  19  -1  780.75  169.96
   1 -19  -1  577.49  149.00
  -1  19  -1  514.48  177.32
  -1  19   1  709.21  176.59
   1 -19   1 1000.00  147.80
  -1  19   1  911.27  171.47
   0 -19  -1   76.32   71.14
   0  19  -1  256.44   69.89
   0  19   1  285.80   69.38
   0 -19   1  298.34   54.67
  -1 -19  -1  276.23  121.84
   1  19  -1  296.10  149.40
   1  19  -1  420.39  154.70
  -1 -19  -1  618.37  156.36
  -1 -19   1  755.16  159.26
   1  19   1  279.55  151.65
  -1 -19   1  341.85  119.95
   1  19   1  279.04  151.62
   2  19  -1   24.35   25.72
   2  19  -1    9.92   22.88
   2  19   1   37.49   22.81
   2  19   1   23.39   24.32
   3  19  -1   -5.42   20.33
  -3 -19  -1  -50.18   14.29
   3  19   1  -61.19   20.72
   3  19   1  -17.21   22.12
  -4 -19  -1    1.57   16.98
   4  19  -1    2.10   19.38
  -4 -19  -1    2.70   11.04
   4  19  -1    1.34   17.72
   4  19   1   -6.71   17.66
  -4 -19   1   -8.02   18.51
  -4 -19   1   -0.44   11.40
   4  19   1   -4.07   18.27
   5  19  -1   16.37   18.39
  -5 -19   1  -15.03   11.53
  -6  20  -1  -11.06   15.00
   6 -20  -1  -16.31   20.35
  -6  20   1   17.18   15.38
  -5  20  -1  -30.48   16.71
   5 -20  -1  -20.69   21.13
   5 -20  -1    9.08    9.74
  -5  20   1  -11.75   20.69
   5 -20   1   -8.05   10.10
  -5  20   1    6.92   15.58
   4 -20  -1   -0.52   21.06
   4 -20  -1   -4.64    9.36
  -4  20  -1   10.90   21.71
  -4  20  -1    9.84   16.25
   4 -20   1  -11.26   20.69
  -4  20   1    6.63   20.76
  -4  20   1   -2.26   14.95
   4 -20   1   17.21   10.11
   3 -20  -1  -23.74   21.12
  -3  20  -1   15.05   15.26
  -3  20  -1  -11.88   21.31
   3 -20  -1   -5.91    9.55
   3 -20   1    1.58   20.55
   3 -20   1    1.32    9.99
  -3  20   1  -46.47   16.20
  -3  20   1  -24.14   21.10
   2 -20  -1  -13.34   21.30
   2 -20  -1   -3.88    9.87
  -2  20  -1   24.70   21.98
  -2  20  -1    9.45   15.59
   2 -20   1   32.27   21.70
   2 -20   1    0.87   10.15
  -2  20   1  -31.39   21.56
  -2  20   1  -15.09   15.27
  -1  20  -1  -26.20   22.55
   1 -20  -1  -45.68   21.64
   1 -20  -1   -0.44   10.18
  -1  20  -1    0.44   16.07
   1 -20   1  -27.93   21.34
   1 -20   1    4.44   10.56
  -1  20   1    3.34   21.52
  -1  20   1   -5.28   16.20
   0  20  -1   -9.98   17.38
   0 -20  -1  -17.88   11.53
   0 -20  -1  -24.92   20.65
   0  20  -1   58.49   23.86
   0 -20   1  -23.67   10.84
   0  20   1   -3.47   22.59
   0 -20   1  -38.61   21.43
   0  20   1    2.32   17.37
  -1 -20  -1  -21.39   11.90
   1  20  -1   40.70   23.15
   1  20  -1  -25.29   18.75
  -1 -20  -1   -0.57   21.00
  -1 -20   1    1.41   10.95
  -1 -20   1   24.78   21.26
   1  20   1  -32.98   22.80
   1  20   1    6.37   18.68
  -2 -20  -1    1.47   11.91
  -2 -20  -1   -1.15   20.05
   2  20  -1  -21.47   19.28
   2  20  -1   37.08   23.32
  -2 -20   1   -0.48   11.87
   2  20   1    0.99   19.58
  -2 -20   1   13.42   21.43
   2  20   1   23.28   21.02
   3  20  -1  -13.89   19.46
  -3 -20  -1   -9.19   12.09
  -3 -20  -1  -21.37   19.96
   3  20  -1   -0.77   17.62
  -3 -20   1    1.78   19.50
  -3 -20   1   -9.13   12.01
   3  20   1    0.50   19.82
   4  20   1    0.49   19.46
   1   0  -2   -0.05    0.13
   0  -1  -2   -0.02    0.11
   1   0  -2   -0.02    0.09
   0  -1  -2    0.02    0.04
   1   0  -2   -0.03    0.10
   0   1   2   -0.04    0.08
  -1   0   2    0.02    0.09
   0   1   2    0.19    0.15
  -1   0   2   -0.02    0.04
   1  -1  -2   -0.02    0.11
   1  -2  -2    6.93    1.76
   1  -2  -2    8.15    1.81
  -1   2  -2    5.30    2.22
   1  -2  -2   10.89    1.97
   1  -2  -2    7.21    2.13
  -1   2   2    6.84    2.14
   1  -2   2    6.62    1.88
  -1   2   2    7.63    1.86
   0  -2  -2   63.36    9.30
   0  -2  -2   62.81    8.69
   0   2  -2   54.19    8.99
   0   2   2   57.51    9.04
   0  -2   2   61.02    8.84
   0  -2   2   58.16    9.03
   1   2  -2    8.74    2.15
  -1  -2   2    7.33    1.99
  -1  -2   2    6.26    2.37
   2   2  -2    6.42    2.53
   2  -2  -2    8.72    1.98
  -2   2   2    8.25    2.00
  -2  -2   2    8.33    2.79
   2  -3  -2   57.19   12.08
   2  -3  -2   61.03   14.23
   2  -3  -2   51.97   11.39
   2  -3  -2   42.73   11.88
  -2   3   2   35.35   11.73
  -2   3   2   58.08   13.35
   1  -3  -2    0.96    0.44
   1  -3  -2    0.99    0.52
   1  -3  -2    1.06    0.72
   1  -3  -2    1.58    1.01
  -1   3  -2    1.69    1.01
  -1   3   2    1.43    0.54
  -1   3   2    1.47    0.96
   1  -3   2    0.93    0.78
   0  -3  -2    0.12    0.43
   0  -3  -2   -0.16    0.28
   0   3  -2   -0.12    0.88
   0  -3  -2    0.19    1.17
   0  -3  -2    0.49    0.77
   0   3   2   -0.21    0.72
   0   3   2   -0.31    1.12
   0  -3   2    0.60    0.93
   0  -3   2    0.08    0.65
  -1  -3  -2    1.46    1.41
   1   3  -2    0.90    1.16
   1   3   2    1.24    1.35
  -1  -3   2    1.21    0.92
  -1  -3   2    1.28    1.24
   2   3  -2   38.03   13.72
  -2  -3   2   56.99   15.20
  -2  -3   2   55.11   12.23
   3  -3  -2    0.25    0.77
  -3   3   2   -0.06    0.79
   3  -4  -2   48.83   13.80
   3  -4  -2   78.17   13.58
   3  -4  -2   55.09   15.89
  -3   4   2   63.64   13.82
  -3   4   2   37.46   15.64
   2  -4  -2   22.76    5.56
   2  -4  -2   19.34    4.63
  -2   4  -2   11.01    5.60
   2  -4  -2   21.52    4.87
  -2   4   2   19.87    4.66
   2  -4   2   20.65    5.17
   2  -4   2   17.79    4.78
  -2   4   2   16.80    5.24
   1  -4  -2    0.75    0.94
  -1   4  -2    0.59    1.25
   1  -4  -2    1.04    1.55
   1  -4  -2    0.28    0.57
   1  -4  -2    0.32    0.44
  -1   4   2   -0.14    0.62
   1  -4   2    0.37    1.01
  -1   4   2    0.20    0.86
  -1   4   2    1.12    1.30
   0  -4  -2    2.12    0.59
   0  -4  -2    2.25    0.77
   0   4  -2    1.01    1.44
   0  -4  -2    1.61    1.16
   0  -4  -2    1.28    1.73
   0  -4   2    2.14    1.11
   0   4   2    2.07    1.16
   0   4   2    0.81    1.66
   1   4  -2    0.66    1.64
  -1  -4  -2    1.11    1.30
  -1  -4  -2    0.51    1.95
  -1  -4  -2    0.62    0.60
  -1  -4   2   -0.25    1.80
  -1  -4   2    0.71    1.20
   1   4   2    1.53    1.95
   2   4  -2   21.84    5.70
  -2  -4   2   21.47    5.08
  -2  -4   2   15.38    6.11
   3   4  -2   75.72   18.12
  -3  -4   2   74.88   19.59
   3  -5  -2   17.02    4.84
   3  -5  -2   15.79    4.61
   3  -5  -2   19.46    4.71
   3  -5  -2   19.94    5.80
  -3   5   2   19.37    5.65
  -3   5   2   20.86    4.73
   2  -5  -2   82.18   18.06
   2  -5  -2   74.94   18.32
   2  -5  -2   74.58   20.79
   2  -5  -2   77.25   17.42
  -2   5   2   69.02   19.58
  -2   5   2   70.36   18.36
   1  -5  -2    7.35    2.69
   1  -5  -2    5.47    1.57
   1  -5  -2    2.79    1.43
  -1   5  -2    8.67    2.39
   1  -5  -2    6.23    1.86
  -1   5   2    5.44    2.52
  -1   5   2    6.60    1.99
  -1   5   2    7.42    1.64
   1  -5   2    6.47    1.98
   0  -5  -2    0.38    0.49
   0   5  -2   -0.45    1.83
   0  -5  -2   -0.53    0.82
   0  -5  -2   -0.08    2.27
   0  -5  -2   -0.84    1.47
   0  -5   2   -0.14    1.39
   0   5   2    0.38    1.37
   0   5   2   -0.94    2.18
  -1  -5  -2    5.77    3.14
   1   5  -2   -0.09    2.42
  -1  -5  -2    5.12    2.41
  -1  -5  -2    7.04    1.43
  -1  -5   2   -0.08    2.56
   1   5   2    5.62    2.95
  -1  -5   2    5.48    2.08
   4  -6  -2    7.25    3.04
  -4   6   2    3.18    2.97
  -3   6  -2   77.11   30.96
   3  -6  -2  127.59   26.52
  -3   6   2   96.10   26.77
   3  -6   2  113.36   28.51
   3  -6   2  121.20   26.62
   2  -6  -2    7.42    2.28
   2  -6  -2   10.53    2.32
  -2   6  -2   11.66    3.48
   2  -6   2   10.73    3.60
   2  -6   2    6.95    2.90
  -2   6   2    6.44    2.40
   1  -6  -2    8.81    2.42
   1  -6  -2   10.23    2.59
   1  -6   2    9.31    3.98
  -1   6   2   10.28    2.67
   1  -6   2   -0.09    2.79
  -1   6   2   11.70    3.22
   1  -6   2   15.69    2.67
   0  -6  -2    8.92    1.66
   0   6  -2    2.44    1.28
   0  -6  -2    7.13    1.30
   0   6   2    8.21    2.47
   0  -6   2    5.25    1.36
  -1  -6  -2    3.90    4.38
  -1  -6  -2   10.90    2.27
   1   6  -2    6.51    3.95
   1   6   2    9.73    4.22
  -1  -6   2   -0.09    2.96
  -2  -6  -2    3.22    3.34
   2   6  -2    8.04    3.96
  -2  -6  -2    6.83    4.52
  -2  -6   2    9.90    3.22
  -2  -6   2    8.41    4.21
   2   6   2    5.60    4.35
   3   6  -2  133.44   31.77
   4   6  -2    3.89    4.32
   4  -7  -2   -0.08    1.58
   4  -7  -2   -0.10    3.26
   4  -7  -2    2.95    2.56
   4  -7   2   -0.19    2.79
  -4   7   2   -4.60    3.51
   3  -7  -2   21.05    7.16
   3  -7  -2   23.72    5.89
  -3   7  -2   17.34    7.13
  -3   7   2   24.28    6.67
   3  -7   2   26.87    6.06
   3  -7   2   23.61    6.79
   2  -7  -2    4.84    1.68
  -2   7  -2    5.65    3.05
   2  -7  -2    3.00    1.68
   2  -7  -2    1.02    2.33
   2  -7   2    5.53    3.49
   2  -7   2    4.20    1.64
  -2   7   2    4.24    1.89
  -2   7   2    8.00    3.38
   2  -7   2    6.39    2.45
   1  -7  -2    2.53    3.59
   1  -7  -2   -0.10    0.91
   1  -7  -2    0.09    2.08
  -1   7  -2    0.27    2.90
   1  -7  -2   -0.51    1.11
   1  -7   2   -0.21    3.42
  -1   7   2   -0.17    1.83
  -1   7   2    0.52    1.15
  -1   7   2   -1.29    3.08
   1  -7   2    0.21    0.83
   1  -7   2   -0.59    2.02
   0   7  -2    0.20    0.69
   0   7  -2    0.93    2.98
   0  -7  -2    0.64    2.40
   0  -7  -2    0.76    3.61
   0  -7  -2    0.29    1.27
   0   7  -2    0.07    1.20
   0  -7  -2   -0.26    0.72
   0   7   2   -0.62    3.61
   0   7   2    0.61    2.29
   0  -7   2   -0.30    2.31
   0  -7   2   -0.61    0.71
   0  -7   2   -0.35    0.67
  -1  -7  -2    1.10    3.82
  -1  -7  -2    0.65    2.64
  -1  -7  -2    0.51    0.83
   1   7  -2    0.74    3.64
  -1  -7   2    0.12    0.35
   1   7   2   -0.71    3.73
  -1  -7   2   -0.11    2.33
   2   7  -2    5.75    4.19
  -2  -7  -2    3.75    3.21
  -2  -7  -2    4.94    4.52
   2   7   2    6.23    4.43
  -2  -7   2    7.48    4.18
  -2  -7   2    8.23    3.08
  -2  -7   2    5.51    1.37
   3   7  -2   15.72    7.32
  -3  -7  -2   19.16    6.11
   3   7   2   23.48    7.60
  -3  -7   2   23.93    6.22
  -3  -7   2   18.08    7.68
   4   7  -2   -0.63    4.71
  -4  -7   2   -1.79    4.88
  -4  -7   2   -0.16    3.45
   5  -8  -2   38.81    8.93
   5  -8  -2   46.70   10.25
  -5   8   2   17.53   10.48
   4  -8  -2   98.65   18.72
   4  -8  -2   81.12   19.15
  -4   8  -2   37.16   22.23
  -4   8   2   82.34   21.46
   4  -8   2   70.45   19.17
   4  -8   2   85.65   20.22
   3  -8  -2   -3.86    3.27
  -3   8  -2    1.47    4.37
   3  -8   2    4.25    3.11
  -3   8   2  -11.10    4.88
   3  -8   2    5.38    3.98
   2  -8  -2    6.02    2.02
   2  -8  -2    6.35    1.93
  -2   8  -2    5.88    3.70
   2  -8  -2   -1.39    3.20
   2  -8   2    4.22    1.79
  -2   8   2   10.02    2.18
  -2   8   2    0.62    3.06
   2  -8   2    4.96    3.01
   2  -8   2    0.35    5.00
  -2   8   2   -3.91    4.49
   1  -8  -2    0.63    1.13
  -1   8  -2   -2.31    3.56
   1  -8  -2   -4.35    4.57
   1  -8  -2    0.78    1.29
  -1   8  -2   -0.42    1.47
   1  -8  -2   -0.33    2.60
  -1   8   2   -0.74    2.24
   1  -8   2   -0.11    0.93
   1  -8   2    1.12    2.39
  -1   8   2   -0.51    3.79
  -1   8   2    0.06    1.44
   1  -8   2    1.48    4.16
   0   8  -2    5.66    2.56
   0  -8  -2    6.66    1.61
   0   8  -2    4.04    4.09
   0  -8  -2    6.16    3.14
   0  -8  -2    8.25    2.20
   0  -8  -2    4.94    4.59
   0   8  -2    7.86    1.86
   0   8   2    1.26    3.41
   0   8   2    6.87    4.66
   0  -8   2    4.66    1.81
   0  -8   2    7.15    1.78
   0  -8   2    9.52    3.01
   0   8   2    5.97    4.49
  -1  -8  -2   -0.44    3.17
   1   8  -2   -0.98    4.21
  -1  -8  -2   -1.92    4.43
   1   8  -2    0.09    0.62
  -1  -8  -2   -0.04    0.91
  -1  -8   2    0.25    0.50
  -1  -8   2   -1.67    3.09
   1   8   2   -2.11    4.24
  -2  -8  -2   -0.32    5.57
   2   8  -2    2.20    5.23
  -2  -8  -2    5.46    3.90
   2   8   2    1.54    5.36
  -2  -8   2    8.06    3.65
  -2  -8   2   -0.57    5.27
  -2  -8   2    6.04    1.37
   3   8  -2   10.12    5.26
  -3  -8  -2   -2.46    6.00
  -3  -8  -2    5.97    4.01
  -3  -8   2    6.52    3.63
  -3  -8   2    4.57    5.53
   3   8   2    5.97    5.48
   4   8  -2   85.26   21.88
  -4  -8   2   79.10   18.72
  -4  -8   2   70.50   23.08
   6  -9  -2   20.83    6.11
   6  -9  -2   23.92    7.40
   5  -9  -2   37.39    7.33
   5  -9  -2   10.75    8.72
   5  -9  -2   40.31    7.91
  -5   9   2   15.27    9.18
   4  -9  -2    4.68    4.89
  -4   9  -2   -2.53    4.84
   4  -9  -2    0.85    2.10
   4  -9  -2    3.36    3.10
  -4   9   2   -0.97    4.18
   4  -9   2   -2.24    3.59
   4  -9   2    2.41    4.20
   3  -9  -2   71.10   15.30
   3  -9  -2   74.34   18.76
  -3   9  -2   63.22   17.64
   3  -9  -2   60.75   16.51
   3  -9  -2   65.68   15.93
  -3   9   2   60.20   17.57
   3  -9   2   68.24   17.84
   3  -9   2   81.52   15.53
  -3   9   2   65.61   16.85
   2  -9  -2    4.04    5.15
  -2   9  -2    0.82    3.80
   2  -9  -2   -0.61    2.61
   2  -9   2   -0.14    4.73
  -2   9   2    1.01    3.92
   2  -9   2    0.56    1.22
   2  -9   2   -0.13    2.65
  -1   9  -2    1.01    1.76
   1  -9  -2   -0.64    1.52
   1  -9  -2    1.00    5.23
   1  -9  -2    1.50    1.27
   1  -9  -2    0.25    2.86
  -1   9  -2   -0.48    4.19
   1  -9   2    1.15    2.93
  -1   9   2    0.83    4.25
  -1   9   2    2.96    5.25
   1  -9   2    0.59    4.96
  -1   9   2    0.55    1.59
  -1   9   2   -0.23    2.65
   0  -9  -2   -0.82    1.00
   0  -9  -2   -1.08    1.87
   0  -9  -2    2.50    5.12
   0   9  -2    0.38    4.63
   0  -9  -2   -4.51    3.30
   0  -9   2   -0.15    5.79
   0   9   2   -0.63    3.23
   0   9   2   -3.09    5.04
   0  -9   2   -1.59    3.14
   0   9   2   -2.70    5.06
   1   9  -2    0.14    5.14
  -1  -9  -2    1.40    5.21
  -1  -9  -2   -1.65    3.76
  -1  -9  -2    0.42    0.96
  -1  -9   2   -0.44    3.58
   1   9   2    6.01    5.05
  -2  -9  -2    1.48    3.99
  -2  -9  -2   -1.41    5.52
  -2  -9  -2   -0.62    1.22
  -2  -9   2   -1.31    3.79
   2   9   2   -2.34    5.39
   3   9  -2   62.30   17.57
  -3  -9  -2   37.54   19.30
  -3  -9  -2   71.68   15.72
  -3  -9   2   75.85   15.78
   3   9   2   67.73   18.19
  -3  -9   2   43.78   18.28
   4   9  -2    0.25    6.14
  -4  -9   2    8.22    6.46
  -4  -9   2    0.19    4.33
   5   9  -2   34.80   10.30
  -5  -9   2   27.30    8.23
   6 -10  -2   -1.11    2.87
   6 -10  -2    2.18    5.11
   5 -10  -2   23.69    6.59
  -5  10  -2   12.28    8.04
   5 -10  -2   17.45    5.88
   5 -10  -2   15.18    7.99
  -5  10   2   16.45    8.16
   5 -10   2   32.43    7.34
   4 -10  -2   42.14   11.56
   4 -10  -2   60.19   14.07
   4 -10  -2   49.26   11.28
  -4  10  -2   40.69   13.81
   4 -10   2   48.89   11.48
   4 -10   2   59.56   12.99
  -4  10   2   22.52   12.87
   3 -10  -2    5.47    3.40
  -3  10  -2    9.76    5.09
   3 -10  -2    4.17    2.31
   3 -10  -2    6.53    2.66
   3 -10  -2    5.66    6.07
   3 -10   2   10.77    3.60
  -3  10   2    3.56    3.14
  -3  10   2    3.34    2.79
  -3  10   2    4.97    4.37
   3 -10   2    9.66    5.61
  -2  10  -2    8.04    4.78
   2 -10  -2    5.78    3.50
   2 -10  -2    4.07    6.48
   2 -10   2    4.61    3.42
   2 -10   2   11.65    6.36
  -2  10   2    5.42    5.03
   1 -10  -2   -2.99    6.00
   1 -10  -2   -0.29    3.33
  -1  10  -2    0.41    4.72
  -1  10   2   -0.40    3.09
   1 -10   2   -6.48    6.09
   1 -10   2    0.73    3.29
  -1  10   2   -1.11    5.10
  -1  10   2    4.79    6.04
   0  10  -2    4.27    5.40
   0  10  -2    9.72    6.54
   0 -10  -2   -1.85    6.07
   0 -10  -2    3.69    3.84
   0  10   2    2.21    3.99
   0  10   2    6.30    5.85
   0  10   2   11.15    5.87
   0 -10   2    9.88    6.71
   0 -10   2    3.66    3.69
  -1 -10  -2    0.92    4.12
   1  10  -2    0.32    6.01
  -1 -10  -2   -1.40    5.97
  -1 -10   2    0.66    3.92
   1  10   2   -2.94    6.16
   2  10  -2   14.21    6.96
  -2 -10  -2    5.82    6.51
  -2 -10  -2    6.57    5.06
   2  10   2   19.55    6.83
  -2 -10   2    5.82    4.91
   3  10  -2   10.37    6.97
  -3 -10  -2    2.19    6.79
  -3 -10  -2    5.42    4.77
   3  10   2    6.80    6.88
  -3 -10   2    7.26    4.93
  -3 -10   2    8.78    6.65
  -4 -10  -2   54.67   12.33
   4  10  -2   62.00   14.37
  -4 -10   2   37.86   12.42
   4  10   2   53.67   14.80
  -4 -10   2   41.86   15.04
   5  10  -2   33.03    9.98
  -5 -10   2   35.30    8.19
   6 -11  -2    2.96    6.61
   5 -11  -2   27.91    6.73
   5 -11  -2   15.50    8.73
  -5  11  -2   18.34    8.90
  -5  11   2   21.35    8.55
   5 -11   2   28.39    8.01
   4 -11  -2   -0.17    3.78
  -4  11  -2    0.40    5.93
   4 -11  -2   -3.85    6.76
   4 -11   2    1.43    4.04
   4 -11   2    1.48    6.00
  -4  11   2    1.44    5.15
   3 -11  -2    9.45    7.79
   3 -11  -2   10.40    4.28
  -3  11  -2   11.31    6.07
  -3  11   2    8.63    5.66
   3 -11   2   10.37    4.49
   3 -11   2   21.05    7.47
  -2  11  -2    1.04    5.12
   2 -11  -2    1.69    7.52
   2 -11  -2    0.47    3.53
   2 -11   2    0.96    3.58
  -2  11   2    2.35    5.24
   2 -11   2    0.75    7.12
  -1  11  -2    1.89    5.56
   1 -11  -2    1.90    7.50
   1 -11  -2    3.79    4.03
  -1  11   2    9.07    7.30
  -1  11   2    0.32    6.04
   1 -11   2    0.82    3.71
   1 -11   2    3.35    7.48
   0 -11  -2   -8.63    7.38
   0  11  -2   -1.01    6.34
   0 -11  -2   -2.52    4.39
   0  11  -2   -0.73    7.61
   0 -11   2   -2.76    4.06
   0 -11   2   -9.32    7.50
   0  11   2   -0.18    6.93
   0  11   2    3.13    6.80
   1  11  -2    5.67    6.91
  -1 -11  -2   -0.99    6.67
  -1 -11  -2    0.20    4.77
  -1 -11   2    3.72    4.35
   1  11   2    5.72    6.91
  -1 -11   2  -16.10    7.33
   1  11   2    2.14    7.76
  -2 -11  -2   -4.92    6.86
  -2 -11  -2    7.51    5.48
   2  11  -2   -2.79    7.89
   2  11   2   15.18    7.29
  -2 -11   2    4.23    4.88
   3  11  -2    8.29    8.11
  -3 -11  -2    0.71    8.06
  -3 -11  -2    8.16    5.98
  -3 -11   2   12.74    6.05
   3  11   2   17.70    7.75
   4  11  -2   -1.19    7.77
  -4 -11  -2    0.24    5.46
  -4 -11   2    0.24    7.55
   4  11   2   -5.36    7.49
  -4 -11   2    2.91    5.46
   5  11  -2   20.59    9.94
  -5 -11   2   16.56    7.27
  -5 -11   2    1.05   10.34
   7 -12  -2    1.47    7.12
   6 -12  -2    4.32    7.56
  -6  12   2   -0.25    6.90
  -5  12  -2    4.32    7.63
   5 -12  -2    0.86    4.76
   5 -12  -2   -4.49    7.90
   5 -12   2    2.02    5.12
   5 -12   2   -6.74    7.11
  -5  12   2    1.32    7.11
   4 -12  -2    7.60    8.48
  -4  12  -2    6.73    7.17
   4 -12  -2    3.70    4.51
   4 -12   2    4.60    4.56
  -4  12   2    8.10    6.40
   4 -12   2    8.57    7.31
   3 -12  -2    5.30    8.13
  -3  12  -2   -2.14    5.92
   3 -12  -2    0.17    3.99
  -3  12   2    2.03    5.66
   3 -12   2   -0.20    7.74
   3 -12   2    2.12    4.23
  -2  12  -2   -6.81    6.48
   2 -12  -2    0.70    4.24
   2 -12  -2   -9.31    8.74
  -2  12   2    8.52    8.58
  -2  12   2   -0.17    6.46
   2 -12   2   -7.31    4.37
  -1  12  -2    3.92    7.11
   1 -12  -2    8.54    5.23
   1 -12  -2   18.83    9.27
   1 -12   2    7.74    5.37
  -1  12   2    9.83    8.92
  -1  12   2    1.81    7.68
   0  12   2   46.36   17.34
   1  12  -2   35.44    9.89
  -1 -12  -2    4.68    8.38
   1  12  -2    7.84    9.05
  -1 -12  -2    2.00    6.22
   1  12   2   15.89    8.89
  -1 -12   2    4.35    6.49
   1  12   2    1.31    8.75
  -2 -12  -2  -21.77    8.34
   2  12  -2  -16.88    9.24
  -2 -12  -2   -1.69    5.95
  -2 -12   2   -3.34    5.77
   2  12   2   -4.38    8.28
  -3 -12  -2    1.52    6.18
  -3 -12  -2   -0.26    8.27
  -3 -12   2    1.65    5.79
   3  12   2    5.63    8.28
  -4 -12  -2    2.93    6.51
  -4 -12  -2   17.80    9.17
   4  12  -2    4.92    9.12
  -4 -12   2    0.26    8.78
   4  12   2    9.89    8.41
  -4 -12   2   17.73    6.43
   5  12  -2   48.83   11.39
   6 -13   2    8.88    7.55
  -6  13   2    5.58    8.08
   5 -13  -2   26.45    8.04
  -5  13   2   24.54   10.47
   4 -13  -2    3.83    4.30
   4 -13  -2   10.59    9.33
  -4  13   2   -3.11    6.61
  -3  13  -2    1.19    6.82
   3 -13  -2   -0.76    4.39
   3 -13  -2   -5.81    9.63
  -3  13   2    1.58    6.27
   3 -13   2    3.80    4.68
   2 -13  -2    1.96    4.95
  -2  13  -2    0.93    7.06
   2 -13  -2    4.68    9.77
   2 -13   2   -0.25    8.75
  -2  13   2   -0.92    7.26
   2 -13   2    1.59    4.81
  -2  13   2   -1.14    9.86
  -1  13  -2   -0.39    7.46
   1 -13  -2   -2.73    5.26
   1 -13  -2   -1.23    9.79
  -1  13   2    6.30   10.08
  -1  13   2    7.17    8.12
   1 -13   2   10.75    5.35
   0 -13  -2   -1.71    9.94
   0 -13  -2   -5.39    6.34
   0  13  -2   -1.30    8.93
   0  13   2   -2.67    9.49
   0 -13   2    2.20    6.14
   0  13   2    9.00   10.29
   1  13  -2    8.79    9.12
  -1 -13  -2   -0.25    9.02
  -1 -13  -2    0.49    6.11
   1  13   2   -6.68    9.46
   1  13   2   -5.08    9.74
  -1 -13   2   -0.26    8.56
  -1 -13   2    2.30    6.14
   2  13  -2    0.74   10.15
  -2 -13  -2    9.21    7.09
   2  13   2    9.74   10.56
  -2 -13   2    1.96    6.57
  -3 -13  -2   -0.28    6.64
   5  13  -2   14.69   12.03
  -5 -13   2   -9.46   11.46
   7 -14  -2    4.46    9.50
   6 -14  -2    1.97    5.87
   6 -14  -2    1.93   10.05
  -6  14   2   15.34    8.37
   6 -14   2   12.66    9.13
  -5  14  -2  -17.20    9.82
   5 -14  -2    3.84   10.37
   5 -14   2   -7.34    9.32
   5 -14   2   -4.29    6.03
  -4  14  -2    0.52    8.59
   4 -14   2   31.54   10.24
   4 -14   2    2.21    5.42
  -3  14  -2   21.33    7.42
   3 -14   2   -0.27   10.29
   3 -14   2    8.38    5.27
   2 -14   2    1.12   11.89
   2 -14   2   36.74    6.51
  -1  14  -2   -7.67   12.05
   1 -14   2   -5.52   11.26
   0  14  -2   -2.13   11.39
   0 -14   2    0.29   11.20
   0 -14   2   -0.25    4.75
   1  14  -2   30.27    9.81
  -1 -14  -2   -0.28    9.72
   1  14  -2  -29.14   12.04
   1  14   2   -6.95   10.75
  -1 -14   2    3.22   11.06
  -2 -14  -2    4.11   10.18
   2  14  -2    4.93   10.46
  -2 -14  -2   -0.29    6.38
  -2 -14   2   -8.86   11.31
  -2 -14   2    0.27    6.60
   2  14   2   -5.10   10.42
  -3 -14  -2   11.44    7.43
  -3 -14  -2    0.31   10.13
   3  14  -2    6.23   11.17
   3  14   2    0.38   10.34
  -3 -14   2  -17.40    7.10
  -4 -14  -2  -10.02   10.51
  -4 -14  -2    0.62    7.77
   4  14  -2   -3.64   11.34
  -4 -14   2   -0.29    6.98
   4  14   2    4.04   10.56
   5  14  -2   13.16   11.07
  -5 -14   2  -19.59   11.80
  -5 -14   2   -5.09    7.47
   7 -15  -2    0.27   10.75
  -6  15  -2  -11.23    9.53
   6 -15  -2   -0.30    6.07
   6 -15  -2    7.27   10.97
   6 -15   2    4.59    9.98
  -6  15   2    6.15    9.43
  -5  15  -2   -9.68    9.57
   5 -15  -2   -4.80    5.43
   5 -15  -2    0.87   11.43
   5 -15   2   -3.07    6.20
   5 -15   2    4.03   10.95
  -5  15   2    7.88    8.78
   4 -15  -2   -0.24    5.41
  -4  15  -2   -7.91    8.60
   4 -15  -2    3.01   12.42
   4 -15   2    8.57    5.90
  -4  15   2   -5.26    8.31
   4 -15   2   16.12   11.49
   3 -15  -2    0.23    5.39
  -3  15  -2    1.47    8.25
   3 -15  -2  -15.50   12.83
   3 -15   2    3.02   11.99
  -3  15   2    5.00   12.55
  -3  15   2   16.91    8.48
   3 -15   2   -1.03    5.94
  -2  15  -2   -8.75    8.52
  -2  15  -2   10.26   13.16
   2 -15  -2    0.24    5.73
   2 -15  -2   -7.16   11.99
   2 -15   2   -6.23    5.95
   2 -15   2    0.32   12.47
  -2  15   2  -11.91   12.80
  -2  15   2   -4.36    8.59
  -1  15  -2    0.25    8.90
   1 -15  -2    2.18   12.22
   1 -15  -2    4.17    6.37
  -1  15  -2    4.32   13.41
  -1  15   2    8.37   10.44
  -1  15   2   -5.46   11.81
   1 -15   2  -12.35   13.33
   1 -15   2   13.87    6.26
   0  15  -2    9.65   10.54
   0 -15  -2   -1.86   12.10
   0 -15  -2   -7.00    7.00
   0  15  -2  -25.99   13.49
   0 -15   2   10.33    7.04
   0 -15   2    3.94   12.64
   0  15   2    3.93   11.23
   0  15   2   29.26   12.10
   1  15  -2   -4.07   12.97
  -1 -15  -2    4.43   11.65
   1  15  -2   -7.01   11.21
  -1 -15  -2   -1.48    7.49
   1  15   2    0.78   11.97
  -1 -15   2    3.61   12.52
  -1 -15   2    0.29    7.04
   1  15   2   12.53   11.74
   2  15  -2   -0.42   13.22
  -2 -15  -2    3.75    7.70
   2  15  -2    4.24   11.54
  -2 -15  -2    0.33   11.60
   2  15   2   -4.07   12.09
   2  15   2    3.73   12.67
  -2 -15   2    1.48    7.34
  -2 -15   2   -4.64   11.95
  -3 -15  -2    0.34   11.14
   3  15  -2   -4.66   11.95
  -3 -15  -2   -7.14    8.21
   3  15   2    0.42   11.20
   3  15   2   17.39   12.27
  -3 -15   2   -5.18    7.43
  -4 -15  -2    8.64    8.42
  -4 -15  -2   -0.35   10.87
   4  15  -2    6.92   12.98
   4  15   2   12.86   11.63
  -4 -15   2   -0.31    7.61
   5  15  -2    5.62   12.01
  -5 -15   2    0.36   11.47
  -5 -15   2    7.44    7.67
   6  15  -2   -3.44   12.17
   7 -16  -2  -32.99   14.96
   6 -16  -2  -37.66   13.96
  -6  16  -2    1.11   10.87
   6 -16  -2    4.81    7.26
   6 -16   2   -7.03   12.16
  -6  16   2  -30.08   11.51
   5 -16  -2  -19.62   14.11
   5 -16  -2  -15.06    6.59
  -5  16  -2  -17.65   11.53
  -5  16   2  -31.97   10.61
   5 -16   2  -11.04   12.55
   5 -16   2  -18.29    7.28
  -4  16  -2   -7.91   10.06
   4 -16  -2   -5.18    5.85
   4 -16  -2   -8.83   13.86
  -4  16   2  -26.58   14.07
  -4  16   2   -8.00    9.20
   4 -16   2    9.97    6.46
   4 -16   2   12.00   13.03
  -3  16  -2   -2.57    9.53
   3 -16  -2   -7.95   13.86
   3 -16  -2   -4.41    5.76
  -3  16   2   13.70    9.17
   3 -16   2   13.93   13.52
   3 -16   2   -1.14    6.10
  -3  16   2   28.45   14.11
  -2  16  -2   -5.95   14.55
  -2  16  -2    1.36    9.75
   2 -16  -2    1.35    6.39
   2 -16  -2   11.86   13.59
  -2  16   2   -3.62    9.41
   2 -16   2   16.34   14.20
   2 -16   2    1.94    6.24
  -2  16   2  -17.80   13.72
  -1  16  -2   -0.44   14.59
  -1  16  -2    3.86   10.22
   1 -16  -2    3.82   13.07
   1 -16  -2    7.83    7.03
   1 -16   2   10.16   13.71
  -1  16   2    4.94   13.35
   1 -16   2   -8.30    6.73
  -1  16   2    0.29   11.09
   0 -16  -2    0.31    7.57
   0  16  -2   12.06   14.60
   0 -16  -2   19.53   13.02
   0  16  -2    3.98   11.31
   0  16   2   -6.78   13.44
   0  16   2   -4.08   11.99
   0 -16   2  -10.28    7.42
   0 -16   2    0.37   14.13
   1  16  -2   -8.22   14.89
  -1 -16  -2    0.32    7.83
   1  16  -2    2.59   12.37
  -1 -16  -2    2.47   12.67
  -1 -16   2    1.92    7.71
  -1 -16   2    1.10   13.67
   1  16   2   15.16   12.76
   1  16   2   18.46   13.79
   2  16  -2   11.03   14.79
  -2 -16  -2   -0.36   12.86
   2  16  -2   11.12   13.21
  -2 -16  -2  -11.91    8.30
  -2 -16   2    0.32    8.06
   2  16   2   22.86   13.80
   2  16   2   11.37   13.07
  -2 -16   2    3.37   13.47
   3  16  -2    6.14   13.54
  -3 -16  -2   -7.73    8.89
  -3 -16  -2   13.45   12.55
   3  16   2   -6.92   13.80
   3  16   2   14.51   13.11
  -3 -16   2    1.00    8.46
  -3 -16   2   -4.97   13.71
  -4 -16  -2  -11.11    8.90
   4  16  -2    1.72   13.37
  -4 -16  -2   10.78   12.49
  -4 -16   2    3.74    8.33
   4  16   2   20.04   12.90
   5  16  -2    6.24   14.46
   5  16  -2    7.20   14.24
  -5 -16   2    0.35    8.72
   7 -17  -2   15.54   14.70
   6 -17  -2   -7.93    7.31
  -6  17  -2  -10.84   11.03
   6 -17  -2   -9.61   15.22
   6 -17   2    8.34   13.29
  -6  17   2   -0.36   11.09
   5 -17  -2   -9.92   14.91
  -5  17  -2   14.37   11.92
   5 -17  -2    2.85    6.78
   5 -17   2    4.86   13.94
  -5  17   2   17.52   10.77
   5 -17   2   17.73    7.74
   4 -17  -2    0.30    6.46
   4 -17  -2  -12.15   15.36
  -4  17  -2  -18.32   11.83
  -4  17   2   -8.36   10.17
   4 -17   2    0.36   14.49
   4 -17   2   -9.98    6.95
  -4  17   2   11.77   15.52
  -3  17  -2  -20.45   16.10
   3 -17  -2  -10.38   15.47
  -3  17  -2    1.60   10.87
   3 -17  -2    5.61    6.88
  -3  17   2    3.43   10.20
   3 -17   2  -16.98    6.99
  -3  17   2    5.34   14.94
   3 -17   2   -1.91   15.81
  -2  17  -2   -0.48   16.86
  -2  17   2  -21.74   16.12
  -1  17  -2   63.91   21.96
   1 -17  -2   51.33   13.88
  -1  17  -2   60.75   18.03
  -1  17   2   34.08   18.41
   1 -17   2   25.19   13.59
  -1  17   2   52.72   20.81
   0 -17  -2   41.41   20.04
   0  17  -2   28.42   24.77
   0  17  -2   55.79   28.21
   0  17   2   79.20   26.92
   0  17   2   57.83   26.20
   0 -17   2   69.84   19.51
   1  17  -2   68.25   23.40
  -1 -17  -2   82.45   22.04
   1  17   2   64.97   21.84
   1  17   2   75.68   22.15
  -1 -17   2   46.64   22.82
   2  17  -2  -14.45   15.17
  -2 -17  -2  -12.91   14.42
   2  17  -2  -25.35   17.31
  -2 -17  -2   15.20    9.41
  -2 -17   2   -8.37   16.20
   2  17   2  -13.13   16.02
  -2 -17   2  -32.39    9.66
   2  17   2  -15.25   15.83
  -3 -17  -2   24.80   14.51
  -3 -17  -2   -6.49    9.38
   3  17  -2   -5.61   14.85
   3  17  -2   -2.77   16.19
  -3 -17   2  -11.52   15.19
   3  17   2   30.57   16.76
  -3 -17   2   17.07    8.82
   3  17   2  -19.81   14.53
  -4 -17  -2    0.39    9.38
  -4 -17  -2  -40.66   15.79
   4  17  -2   22.81   15.07
   4  17   2  -30.26   14.59
  -4 -17   2   -5.88    9.18
   5  17  -2   20.25   15.23
   5  17  -2  -10.46   15.21
  -5 -17   2  -17.60    9.19
   7 -18  -2    6.19   15.94
   6 -18  -2   -4.86   12.04
  -6  18  -2   73.87   18.04
   6 -18  -2   39.84   20.98
  -6  18   2   85.71   17.71
   6 -18   2   31.64   18.98
   5 -18  -2    3.71   17.09
   5 -18  -2    0.35    7.62
  -5  18  -2  -15.49   13.10
  -5  18   2  -23.13   12.44
  -5  18   2   14.69   16.92
   5 -18   2   27.35   16.27
   5 -18   2   -7.13    7.83
   4 -18  -2  -27.35   17.15
  -4  18  -2   -2.93   17.43
  -4  18  -2  -13.82   12.54
   4 -18  -2   -4.63    7.19
   4 -18   2    0.36    7.51
  -4  18   2  -10.49   11.59
   4 -18   2   29.14   16.91
  -4  18   2   -9.73   17.03
  -3  18  -2    3.55   17.21
   3 -18  -2   -9.85   16.75
  -3  18  -2   -3.25   12.03
   3 -18  -2    0.66    7.58
  -3  18   2   13.54   11.66
   3 -18   2    4.29    7.72
   3 -18   2   -2.55   16.52
  -3  18   2   16.36   16.77
   2 -18  -2  -10.75   16.39
  -2  18  -2   21.69   18.18
   2 -18  -2  -10.36    8.09
  -2  18  -2  -17.32   12.09
   2 -18   2    1.75   16.84
  -2  18   2   22.85   17.19
  -2  18   2   18.14   12.18
   2 -18   2   12.66    8.14
  -1  18  -2   13.06   18.10
   1 -18  -2   -7.76   16.82
   1 -18  -2  -21.04    8.76
  -1  18  -2    4.92   13.00
   1 -18   2   13.00   17.60
  -1  18   2  -10.66   13.23
   1 -18   2    9.92    8.28
  -1  18   2    5.16   16.67
   0 -18  -2   -3.96   16.27
   0 -18  -2    0.38    9.41
   0  18  -2   39.40   18.86
   0  18  -2   21.60   14.08
   0  18   2    9.37   14.92
   0  18   2   33.65   17.59
   0 -18   2    4.82    9.23
   0 -18   2    6.34   18.09
  -1 -18  -2    9.76   15.91
  -1 -18  -2    7.92    9.61
   1  18  -2    1.99   15.20
   1  18  -2   28.08   19.12
  -1 -18   2   11.56    9.38
  -1 -18   2   -7.82   16.88
   1  18   2   14.51   17.38
   1  18   2   15.02   16.41
  -2 -18  -2    1.61    9.77
  -2 -18  -2   27.69   16.38
   2  18  -2   25.05   19.08
   2  18  -2   -3.68   15.79
  -2 -18   2   -0.39    9.25
  -2 -18   2  -48.07   18.14
   2  18   2   18.89   16.63
   2  18   2   26.70   16.88
   3  18  -2    0.83   16.23
  -3 -18  -2   14.90   10.07
  -3 -18  -2   11.92   15.56
   3  18  -2    3.73   18.32
   3  18   2    9.51   16.55
  -3 -18   2  -21.37    9.69
   3  18   2   16.86   16.05
  -3 -18   2   -3.81   16.31
   4  18  -2   -4.50   16.60
  -4 -18  -2   -3.77    9.98
   4  18   2    4.93   17.18
  -4 -18   2  -10.79   10.21
   4  18   2    1.20   15.41
   5  18  -2    1.22   15.97
  -5 -18   2    2.03    9.95
   7 -19  -2  -14.71   18.87
   6 -19  -2   48.27   18.97
   6 -19  -2   22.81    9.44
  -6  19  -2  -16.48   14.46
   6 -19   2   19.08   17.78
  -6  19   2   16.90   18.74
  -6  19   2    6.18   14.21
   5 -19  -2   22.39   19.14
  -5  19  -2   -7.18   14.47
   5 -19  -2   11.12    8.66
  -5  19   2   -0.53   18.79
   5 -19   2    1.74    9.43
  -5  19   2   17.24   14.20
   5 -19   2  -26.78   17.89
  -4  19  -2   -3.99   14.01
   4 -19  -2  -27.99   18.97
  -4  19  -2    4.34   18.16
   4 -19  -2   -1.46    8.14
   4 -19   2   14.67   18.86
  -4  19   2    6.29   13.60
  -4  19   2  -11.35   19.14
   4 -19   2   19.00    8.98
  -3  19  -2  -54.80   21.45
   3 -19   2   -2.78    9.68
  -3  19   2  -39.52   14.60
  -3  19   2  -40.25   20.49
   2 -19  -2  -59.19   26.57
  -2  19  -2   -8.18   23.08
  -2  19   2    2.26   22.51
   1 -19  -2  532.21  148.83
  -1  19  -2  673.24  171.22
  -1  19  -2  462.22  180.20
  -1  19   2  723.71  178.93
  -1  19   2  824.25  174.54
   1 -19   2  914.80  145.99
   0  19  -2  592.78  154.13
   0 -19  -2  317.17  131.02
   0  19  -2  538.97  161.80
   0  19   2  544.57  159.13
   0  19   2  514.98  158.84
   0 -19   2  656.73  128.10
  -1 -19  -2  795.17  163.18
  -1 -19  -2  176.63  128.39
   1  19  -2  268.26  156.11
   1  19  -2  381.05  163.81
   1  19   2  388.71  157.71
   1  19   2  293.45  160.82
   2  19  -2  -14.99   20.25
  -2 -19  -2  -36.60   13.26
  -2 -19  -2   10.63   21.31
   2  19  -2  -69.23   23.61
   2  19   2  -45.13   20.97
  -2 -19   2  -52.96   23.33
   2  19   2  -31.34   20.38
  -3 -19  -2  -14.81   11.63
   3  19  -2  -15.78   18.34
   3  19  -2    6.97   21.13
  -3 -19   2    7.86   11.49
   3  19   2   -5.42   18.54
   3  19   2  -46.88   19.47
   4  19  -2    0.45   17.80
  -4 -19  -2   -5.44   10.95
   4  19   2   14.02   17.07
  -4 -19   2  -21.03   19.09
  -4 -19   2   13.05   11.32
   4  19   2   10.29   18.00
   5  19  -2    8.88   18.51
  -5 -19   2   10.11   11.32
   7 -20  -2  -17.94   21.05
  -7  20   2  -32.89   16.58
   6 -20  -2  -15.35   20.72
   6 -20  -2   -5.35    9.54
  -6  20   2   13.09   20.21
  -6  20   2  -16.33   14.82
  -5  20  -2   38.04   16.83
   5 -20  -2    6.56   20.61
   5 -20  -2    7.22    9.67
  -5  20   2    8.71   16.07
   5 -20   2    6.28   10.62
  -5  20   2   19.26   20.63
   4 -20  -2    3.74    9.43
  -4  20  -2  -12.53   16.46
   4 -20  -2  -37.57   21.30
  -4  20   2    0.60   20.48
   4 -20   2   17.07   10.20
  -4  20   2   25.33   15.00
  -3  20  -2   13.50   16.09
  -3  20  -2   20.69   22.29
   3 -20  -2   35.50   21.58
   3 -20  -2  -24.65    9.67
  -3  20   2  -24.61   21.71
   3 -20   2  -29.85   20.67
   3 -20   2  -12.35   10.12
  -3  20   2  -17.03   15.88
  -2  20  -2   64.00   16.69
   2 -20  -2  -22.18   10.28
   2 -20  -2  -21.65   20.63
  -2  20  -2   20.11   21.33
  -2  20   2  -46.62   21.32
  -2  20   2   38.45   15.99
   2 -20   2   23.14   21.39
   2 -20   2  -22.06   10.40
   1 -20  -2    0.44   10.31
   1 -20  -2   15.57   20.21
  -1  20  -2   -3.18   16.85
  -1  20  -2  -12.87   22.59
  -1  20   2    1.30   16.26
  -1  20   2  -39.96   21.90
   1 -20   2  -35.64   21.52
   1 -20   2    0.44   10.58
   0  20  -2   12.80   22.23
   0 -20  -2   -9.70   11.02
   0 -20  -2    0.55   20.60
   0  20  -2   -1.36   16.71
   0  20   2   43.29   22.01
   0  20   2  -29.76   17.51
   0 -20   2    0.45   10.98
   0 -20   2    8.43   21.38
   1  20  -2    0.48   17.80
   1  20  -2    1.49   22.39
  -1 -20  -2  -13.39   11.42
  -1 -20  -2   25.02   20.50
  -1 -20   2    2.88   21.47
  -1 -20   2   -1.87   11.61
   1  20   2   -1.40   20.99
   1  20   2    0.50   19.02
  -2 -20  -2    2.44   11.76
   2  20  -2  -11.44   19.19
  -2 -20  -2    9.61   20.13
   2  20   2   36.37   21.20
  -2 -20   2    1.18   22.02
  -2 -20   2   17.57   11.85
   2  20   2    7.98   19.55
  -3 -20  -2  -29.29   12.27
  -3 -20  -2   10.81   20.24
   3  20  -2  -46.57   20.16
  -3 -20   2  -29.45   12.52
   3  20   2   11.82   19.63
   4  20   2  -27.89   19.92
   0   0  -3   -0.11    0.24
   0   0  -3    0.08    0.20
   0   0   3    0.02    0.20
   1   0  -3  190.20   27.44
   1   0  -3  197.05   27.39
   0  -1  -3  171.27   27.67
   0   1   3  186.83   28.42
   0  -1   3  197.01   28.46
   0  -1   3  164.00   27.60
   1  -1  -3    0.07    0.28
   1   1  -3    0.10    0.24
   1   1  -3    0.09    0.18
  -1  -1   3   -0.03    0.06
  -1  -1   3   -0.05    0.16
   1  -2  -3   30.52   12.34
   1  -2  -3   55.18   11.35
   1  -2  -3   56.46   10.71
  -2  -1   3   37.94   11.20
  -1   2   3   47.71   12.13
  -1   2   3   46.88   12.24
   0  -2  -3    0.36    0.80
   2   0  -3   -0.04    0.38
   0   2  -3   -0.12    0.58
   0  -2  -3   -0.09    0.29
   0  -2  -3   -0.17    0.40
   0   2   3    0.44    0.68
   0  -2   3    0.17    0.49
  -2   0   3   -0.03    0.36
   0   2   3   -0.13    0.78
   0  -2   3    0.12    0.71
   2  -1  -3   45.65   11.53
  -1  -2   3   50.45   12.69
  -1  -2   3   44.98   11.27
   2  -2  -3    0.15    0.52
   2  -2  -3    0.04    0.43
   2  -2  -3    0.14    0.58
   2   2  -3    0.32    1.16
  -2  -2   3    0.11    1.35
  -2   2   3    0.14    0.60
  -2   2   3   -0.04    0.51
   2  -3  -3    6.65    1.66
   2  -3  -3    4.14    1.47
   2  -3  -3    6.41    1.56
   2  -3  -3    7.31    1.99
  -2   3   3    7.53    1.85
  -2   3   3    5.98    1.57
   1  -3  -3   19.40    5.17
   1  -3  -3   24.46    5.65
   1  -3  -3   22.87    6.30
   1  -3  -3   18.91    5.43
  -1   3  -3   24.63    6.80
  -1   3   3   24.40    6.19
   1  -3   3   25.97    6.50
  -1   3   3   25.04    6.16
   1  -3   3   26.48    5.84
   0  -3  -3   12.43    3.40
   0  -3  -3   12.32    2.85
   0  -3  -3   12.44    4.19
   0   3  -3   15.30    3.53
   0  -3  -3   13.28    3.02
   0  -3   3   13.09    3.18
   0   3   3   11.22    3.59
   0  -3   3    9.92    3.65
   0   3   3   13.22    3.75
  -1  -3   3   15.61    5.46
  -1  -3   3   26.11    6.23
   3  -2  -3    6.98    1.51
   2   3  -3    4.45    2.24
  -2  -3   3    7.01    2.47
  -3   2   3    2.29    1.43
  -2  -3   3    5.23    1.79
   3  -3  -3   -0.26    0.88
   3   3  -3    0.43    1.85
   3  -3  -3    0.39    0.87
   3  -3  -3    0.17    0.88
  -3   3   3   -0.43    0.85
   3  -4  -3   -0.35    1.10
   3  -4  -3    1.01    1.23
   3  -4  -3   -0.49    1.05
   3  -4  -3   -0.05    1.57
  -3   4   3    0.64    1.67
  -3   4   3   -0.13    1.04
   2  -4  -3   69.38   15.63
  -2   4  -3   37.97   17.78
   2  -4  -3   61.52   14.75
   2  -4  -3   64.96   17.18
   2  -4  -3   57.42   14.23
   2  -4   3   60.05   15.20
  -2   4   3   75.91   14.99
  -2   4   3   66.00   16.54
   1  -4  -3   11.27    2.81
  -1   4  -3   13.80    3.55
   1  -4  -3   11.18    3.52
   1  -4  -3   12.95    2.96
   1  -4  -3   11.94    2.63
   1  -4   3   11.34    3.15
  -1   4   3   10.25    3.29
  -1   4   3   11.26    3.36
   0  -4  -3   -0.03    0.43
   0  -4  -3    0.34    1.23
   0  -4  -3    0.46    1.77
   0   4  -3    0.32    1.37
   0  -4  -3   -0.22    0.71
   0   4   3    0.20    1.16
   0  -4   3    0.06    1.54
   0   4   3    0.15    1.61
   0  -4   3   -0.23    1.01
  -1  -4  -3    9.46    2.62
  -1  -4  -3    9.79    4.21
   1   4   3   10.59    3.83
  -1  -4   3   11.32    3.52
  -1  -4   3   10.44    2.96
   2   4  -3   67.06   16.63
  -2  -4   3   53.84   18.31
  -2  -4   3   71.87   15.72
   3   4  -3    1.87    2.70
  -4   3   3    1.47    1.18
  -3  -4   3   -0.75    1.86
  -3  -4   3   -0.11    2.87
   4  -5  -3    8.51    2.95
   3  -5  -3   76.55   19.79
   3  -5  -3   75.35   24.32
   3  -5  -3   99.90   20.49
  -3   5   3   87.78   23.30
   2  -5  -3  228.04   59.37
   2  -5  -3  287.09   57.73
   2  -5  -3  298.11   60.86
   2  -5  -3  251.45   67.56
  -2   5   3  278.89   60.94
  -2   5   3  252.51   64.89
  -1   5  -3    9.17    4.12
   1  -5  -3   14.42    3.32
   1  -5  -3   12.84    3.08
   1  -5  -3   14.79    4.37
   1  -5  -3   12.06    3.50
  -1   5   3   16.65    3.99
  -1   5   3   13.39    4.09
   1  -5   3   10.23    3.65
   0  -5  -3    3.64    2.02
   0   5  -3    4.56    2.32
   0  -5  -3    4.12    2.85
   0  -5  -3    5.37    1.45
   0  -5  -3    4.42    1.17
   0   5   3    4.06    2.15
   0  -5   3    4.08    1.77
   0   5   3    2.22    2.66
  -1  -5  -3    9.26    5.15
  -1  -5  -3   18.77    3.21
   1   5  -3    9.41    4.39
  -1  -5  -3    3.95    4.03
   1   5   3   18.62    4.81
  -1  -5   3   12.53    3.59
  -2  -5   3   -0.09   49.30
   4   5  -3    7.42    4.43
   5  -6  -3    5.80    3.07
   4  -6  -3   24.30    7.27
   4  -6  -3   18.82    5.89
  -4   6   3   25.84    6.08
  -3   6  -3    2.17    3.14
   3  -6  -3   -0.06    1.58
   3  -6   3    4.29    2.40
   3  -6   3    5.32    2.33
   2  -6  -3    1.11    1.06
   2  -6  -3    0.88    1.22
  -2   6  -3    1.35    2.69
   2  -6   3    3.47    2.73
  -2   6   3    0.94    1.34
   2  -6   3    0.53    2.02
  -1   6  -3    2.79    2.46
   1  -6  -3    1.37    0.87
   1  -6  -3    1.97    1.23
  -1   6   3    0.63    1.84
   1  -6   3    3.07    1.90
   0  -6  -3    0.28    0.77
   0  -6  -3    0.41    1.25
   0   6  -3    3.63    2.55
   0   6   3    0.11    2.20
   0  -6   3    4.22    1.87
  -1  -6  -3    1.06    1.06
   1   6  -3    8.44    3.18
   1   6  -3    1.93    3.34
  -1  -6  -3    2.10    3.72
  -1  -6   3    4.32    3.48
  -1  -6   3    7.68    2.15
   1   6   3    2.01    3.61
  -2  -6  -3    0.99    3.82
   2   6  -3    0.25    3.28
   2   6   3    3.06    3.69
  -2  -6   3    2.38    2.32
  -2  -6   3   -0.21    3.55
   3   6  -3    4.51    4.12
  -3  -6   3    3.66    2.86
  -3  -6   3    5.99    4.13
   4   6  -3   26.88    8.31
  -4  -6   3   30.08    8.87
  -4  -6   3   28.95    6.82
   5  -7  -3   -2.64    3.51
   5  -7  -3    0.10    2.00
   4  -7  -3    2.27    3.51
   4  -7  -3    1.81    1.88
   4  -7  -3    1.73    2.79
   4  -7  -3    4.30    2.07
  -4   7   3    1.81    3.65
  -4   7   3    2.86    2.03
   3  -7  -3   27.46    6.13
  -3   7  -3    9.20    7.78
   3  -7  -3   26.18    7.50
   3  -7   3   23.50    6.42
  -3   7   3   33.53    6.96
   3  -7   3   19.00    6.98
   2  -7  -3    3.32    1.24
   2  -7  -3    3.86    3.75
   2  -7  -3    0.62    1.41
   2  -7  -3    2.54    2.10
  -2   7  -3    1.65    3.01
   2  -7   3    1.37    3.06
   2  -7   3    2.19    2.29
  -2   7   3   -0.07    1.26
  -2   7   3    0.91    3.02
  -2   7   3    0.84    2.05
   1  -7  -3    2.80    1.33
  -1   7  -3    3.00    2.88
   1  -7  -3   -0.40    3.74
   1  -7  -3    0.81    1.04
   1  -7  -3    4.58    2.16
   1  -7   3    1.10    2.08
  -1   7   3    1.13    3.16
  -1   7   3    2.20    2.12
   1  -7   3    2.13    0.90
  -1   7   3    2.30    3.55
   0  -7  -3   38.85    9.14
   0  -7  -3   24.34   10.85
   0  -7  -3   38.54    8.06
   0  -7  -3   35.27    9.33
   0   7  -3   29.97    9.91
   0  -7   3   34.21    8.70
   0   7   3   37.65   10.10
   0   7   3   39.43   11.59
   1   7  -3    3.82    3.75
  -1  -7  -3    2.50    1.09
  -1  -7  -3   -0.26    4.16
   1   7  -3    2.15    3.44
  -1  -7  -3    1.22    2.94
  -1  -7   3    0.34    4.01
   1   7   3    2.41    4.08
  -1  -7   3    0.97    2.49
  -2  -7  -3    0.31    4.55
  -2  -7  -3    0.78    3.22
   2   7  -3    2.33    4.03
  -2  -7   3   -0.50    2.82
  -2  -7   3    0.37    4.04
   2   7   3   -0.54    4.23
   3   7  -3   21.00    7.70
  -3  -7   3   20.79    8.07
  -3  -7   3   24.26    6.56
   4   7  -3    3.69    5.08
  -4  -7   3    0.15    3.55
  -4  -7   3   -2.94    5.46
  -5  -7   3   -2.64    3.59
   6  -8  -3   31.46    9.89
   6  -8  -3   35.71    8.68
   5  -8  -3   12.06    3.28
   5  -8  -3   11.64    4.90
  -5   8   3    3.00    4.76
   4  -8  -3    5.63    2.34
   4  -8  -3    2.02    4.21
   4  -8  -3   11.52    3.04
   4  -8  -3    4.01    2.23
  -4   8  -3    3.35    4.57
   4  -8   3    1.80    3.72
  -4   8   3    7.87    3.97
  -4   8   3    2.65    2.44
   3  -8  -3   31.41    7.41
  -3   8  -3   39.51    9.27
   3  -8  -3   24.61    9.41
   3  -8  -3   27.33    7.41
   3  -8  -3   34.25    7.39
   3  -8   3   39.06    8.72
  -3   8   3   20.43    7.83
   3  -8   3   29.83    7.65
  -3   8   3   25.34    8.31
   2  -8  -3   14.37    3.95
   2  -8  -3   -4.76    6.88
  -2   8  -3   24.75    5.11
   2  -8   3   10.84    3.36
   2  -8   3    5.34    5.41
   2  -8   3    9.55    4.04
   1  -8  -3    6.61    1.60
   1  -8  -3    4.90    1.88
  -1   8  -3    5.32    3.92
   1  -8  -3    1.64    3.18
  -1   8   3    2.47    4.77
  -1   8   3   -3.90    4.78
  -1   8   3    1.31    3.13
   1  -8   3    6.05    2.73
  -1   8   3    8.79    1.96
   1  -8   3    4.12    1.43
   0  -8  -3   -2.42    4.48
   0  -8  -3   -2.52    1.78
   0  -8  -3   -2.16    2.93
   0   8  -3   -1.10    3.75
   0   8  -3   -0.39    1.21
   0  -8  -3   -0.48    0.95
   0  -8   3    0.46    0.65
   0   8   3    3.49    4.29
   0  -8   3   -2.31    2.82
   0   8   3    0.67    3.03
   1   8  -3    2.25    4.99
  -1  -8  -3    1.45    4.91
  -1  -8  -3    6.62    1.56
   1   8  -3    5.98    4.78
  -1  -8  -3    6.49    3.59
  -1  -8   3    4.49    3.30
   1   8   3    5.94    4.98
  -1  -8   3   -2.29    5.18
  -2  -8  -3   17.81    3.39
  -2  -8  -3    0.17    6.77
   2   8  -3    8.26    5.79
  -2  -8  -3   10.58    5.05
  -2  -8   3   21.04    4.82
   2   8   3   12.44    6.14
  -2  -8   3   14.38    6.08
  -3  -8  -3   25.91    8.20
   3   8  -3   20.97    9.29
  -3  -8   3   46.85    8.17
  -3  -8   3   23.55    9.69
   3   8   3   30.46    9.73
   4   8  -3    2.67    5.66
  -4  -8   3    5.01    5.78
  -4  -8   3   10.28    4.15
   5   8  -3    9.30    6.33
  -5  -8   3    9.70    4.49
   6  -9  -3    3.47    3.15
   6  -9  -3    7.20    4.97
   5  -9  -3   59.47   13.00
   5  -9  -3   51.35   14.47
   5  -9  -3   50.56   12.63
  -5   9   3   44.68   14.84
   4  -9  -3   44.87    9.65
  -4   9  -3   24.20   12.02
   4  -9  -3   40.26    9.89
   4  -9  -3   40.51    9.68
   4  -9  -3   44.81   11.72
   4  -9   3   48.30   10.16
  -4   9   3   30.54   10.90
   4  -9   3   34.78   10.73
  -4   9   3   45.42   10.45
   3  -9  -3    7.49    2.95
   3  -9  -3   10.02    2.80
   3  -9  -3    7.75    5.72
   3  -9  -3   11.91    3.39
  -3   9  -3   13.39    4.98
  -3   9   3   12.38    4.37
   3  -9   3    7.62    4.90
  -3   9   3    6.67    3.64
   3  -9   3    9.71    3.77
  -3   9   3    6.39    3.12
  -2   9  -3    4.70    4.04
   2  -9  -3    0.60    2.65
   2  -9  -3    0.96    1.76
   2  -9  -3    0.41    5.25
   2  -9   3    1.34    2.91
  -2   9   3    3.85    2.10
   2  -9   3    2.02    4.65
  -2   9   3    2.81    4.08
  -1   9  -3    2.15    4.18
   1  -9  -3   -2.39    5.02
   1  -9  -3   -0.38    2.83
  -1   9   3   -2.40    4.27
   1  -9   3    4.33    5.29
   1  -9   3    1.68    2.91
  -1   9   3    1.77    5.13
   0   9  -3    0.13    4.55
   0  -9  -3   -0.05    0.91
   0  -9  -3   -0.43    3.27
   0  -9  -3   -0.15    5.01
   0  -9  -3   -0.60    1.91
   0   9   3    1.69    4.94
   0  -9   3   -3.05    3.12
   0   9   3    1.14    3.51
   0   9   3    0.96    5.07
   1   9  -3   -0.97    4.97
  -1  -9  -3    2.19    1.15
  -1  -9  -3   -1.02    3.63
  -1  -9  -3    4.04    5.04
   1   9  -3    3.59    5.45
  -1  -9   3   -0.71    3.17
   1   9   3    2.49    5.42
  -2  -9  -3    4.56    4.38
   2   9  -3    1.36    5.77
  -2  -9  -3    6.67    1.66
  -2  -9  -3    1.67    5.54
   2   9  -3    1.55    5.65
  -2  -9   3    1.43    3.89
   2   9   3    7.40    5.72
  -2  -9   3    4.99    5.45
   3   9  -3   15.79    6.33
  -3  -9  -3    9.13    5.00
  -3  -9  -3    4.62    6.46
   3   9   3    7.65    6.20
  -3  -9   3    0.88    6.19
  -3  -9   3   13.88    4.80
   4   9  -3   47.93   11.59
  -4  -9   3   23.50    9.65
  -4  -9   3   24.23   12.09
   5   9  -3   44.57   14.98
  -5  -9   3   40.24   15.69
  -5  -9   3   57.52   12.31
   6 -10  -3   20.73    5.95
   6 -10  -3   21.62    7.80
   5 -10  -3   28.24    8.30
   5 -10  -3   20.03    5.98
   5 -10  -3   21.08    6.48
   5 -10   3   30.30    7.43
  -5  10   3   16.48    8.02
  -4  10  -3    6.10    6.21
   4 -10  -3   13.45    6.37
   4 -10  -3   10.70    3.33
   4 -10  -3    7.02    3.63
   4 -10  -3    6.68    2.99
  -4  10   3    6.16    3.67
  -4  10   3    7.05    5.06
   4 -10   3    8.47    4.39
   4 -10   3   17.66    5.34
   3 -10  -3    9.08    3.34
  -3  10  -3    2.38    4.94
   3 -10  -3    5.99    2.73
   3 -10  -3    7.53    2.52
   3 -10  -3    4.25    6.45
  -3  10   3    4.94    2.89
  -3  10   3    6.55    4.51
   3 -10   3   10.06    5.65
  -3  10   3    3.07    3.52
   3 -10   3    5.05    3.69
   2 -10  -3    9.42    3.22
   2 -10  -3    6.26    6.76
  -2  10  -3   12.68    5.38
   2 -10  -3   15.30    4.09
   2 -10  -3   11.70    3.20
   2 -10   3   10.24    3.98
  -2  10   3   14.26    3.62
  -2  10   3   10.85    5.57
   2 -10   3   18.94    6.50
  -2  10   3    5.05    4.33
   1 -10  -3   12.21    7.07
  -1  10  -3   14.52    5.76
   1 -10  -3   12.97    4.52
  -1  10   3    8.84    6.21
   1 -10   3   21.12    7.70
   1 -10   3   11.83    4.43
  -1  10   3   16.31    6.86
   0  10  -3    2.93    5.19
   0 -10  -3   -1.47    3.88
   0 -10  -3    3.17    6.02
   0  10   3    2.33    6.03
   0  10   3   -0.16    5.81
   0 -10   3   -2.41    3.40
  -1 -10  -3    4.65    5.18
   1  10  -3    9.84    6.57
  -1 -10  -3    5.42    6.72
   1  10   3   20.44    6.99
  -1 -10   3   11.96    4.65
   2  10  -3   16.45    7.41
   2  10  -3    7.57    7.29
  -2 -10  -3    6.80    6.92
  -2 -10  -3    8.23    5.36
   2  10   3   15.84    6.87
  -2 -10   3    5.31    7.16
  -2 -10   3    9.04    4.72
   3  10  -3   14.58    7.20
  -3 -10  -3    7.87    6.97
  -3 -10  -3   11.32    5.24
   3  10   3    8.03    6.60
  -3 -10   3    1.18    6.83
  -3 -10   3   13.87    5.26
   4  10  -3   11.77    7.50
  -4 -10   3    6.14    5.00
  -4 -10   3    0.22    7.20
   5  10  -3   19.02    9.08
  -5 -10   3    3.14    9.06
  -5 -10   3   24.15    6.88
   7 -11  -3    0.86    3.31
   7 -11  -3    2.46    6.21
   6 -11  -3    0.17    6.50
   6 -11  -3    0.87    3.06
  -6  11   3   -0.44    5.88
  -5  11  -3    1.47    6.63
   5 -11  -3    5.63    6.70
   5 -11  -3    9.01    4.15
  -5  11   3    3.55    6.30
   5 -11   3   -7.33    5.74
  -4  11  -3    6.36    6.52
   4 -11  -3    6.53    7.10
   4 -11  -3    4.83    3.85
  -4  11   3    7.60    5.31
   4 -11   3    2.95    4.59
   4 -11   3   -0.16    6.00
   3 -11  -3    4.22    3.76
  -3  11  -3    9.35    5.73
   3 -11  -3    8.82    7.46
  -3  11   3    8.33    5.21
   3 -11   3   16.36    6.63
   3 -11   3    1.47    4.03
   2 -11  -3    1.31    7.10
   2 -11  -3   -0.46    3.49
  -2  11  -3   -1.51    5.01
   2 -11   3   -0.16    3.79
  -2  11   3   -6.84    7.08
   2 -11   3   -0.18    7.03
  -2  11   3    1.46    5.48
  -1  11  -3   -2.16    5.37
   1 -11  -3    1.12    7.00
   1 -11  -3    3.93    3.87
   1 -11   3    2.30    3.75
   1 -11   3   -0.99    7.27
  -1  11   3    3.24    6.88
  -1  11   3    1.60    5.94
   0 -11  -3   32.46    7.49
   0  11  -3   23.95    8.93
   0 -11  -3   23.11    9.64
   0  11   3   11.08    9.22
   0 -11   3   33.19    7.12
   0  11   3   23.40    9.96
   0 -11   3   11.44   10.42
  -1 -11  -3    4.43    6.65
   1  11  -3   -1.44    6.88
  -1 -11  -3   -0.21    4.96
   1  11   3   -0.97    7.19
  -1 -11   3   -1.27    4.09
   2  11  -3   -1.27    7.22
  -2 -11  -3    7.01    7.17
  -2 -11  -3   -1.80    5.17
   2  11  -3    6.48    7.27
   2  11   3    0.80    7.01
  -2 -11   3    2.17    4.82
   3  11  -3   10.68    8.03
  -3 -11  -3    6.99    5.83
  -3 -11  -3    8.22    7.58
  -3 -11   3    0.22    7.50
  -3 -11   3    1.69    5.40
   3  11   3    0.29    7.56
  -4 -11  -3    9.29    5.76
   4  11  -3   -8.57    8.51
  -4 -11   3   -8.95    8.02
  -4 -11   3   -0.22    5.85
   4  11   3    8.36    7.54
   5  11  -3  -11.59    9.18
  -5 -11   3   -0.24    5.87
  -6 -11   3    0.24    5.62
   7 -12  -3   -0.37    7.46
   6 -12  -3   10.34    8.18
  -6  12   3   11.49    7.53
  -5  12  -3    2.12    8.25
   5 -12  -3    3.55    5.33
   5 -12  -3    6.25    8.95
  -5  12   3    6.50    7.47
   5 -12   3   21.27    7.22
   4 -12  -3   -2.00    4.08
  -4  12  -3    3.15    6.80
   4 -12  -3   -2.05    8.15
   4 -12   3    0.45    4.75
   4 -12   3    3.34    6.94
  -4  12   3    3.81    5.79
   3 -12  -3    5.91    8.33
   3 -12  -3    2.34    3.73
  -3  12  -3    3.42    6.26
   3 -12   3   -3.32    4.03
  -3  12   3   -0.61    5.77
   3 -12   3    1.19    7.62
   2 -12  -3    0.52    4.34
  -2  12  -3    7.25    6.02
   2 -12  -3    2.35    8.58
  -2  12   3    8.79    8.23
   2 -12   3    5.12    8.39
  -2  12   3    2.66    6.29
   2 -12   3    6.93    4.14
   1 -12  -3   20.54    5.43
  -1  12  -3    9.06    7.62
   1 -12  -3   12.79    8.60
   1 -12   3    2.02    6.10
  -1  12   3   14.99    8.68
  -1  12   3   21.74    7.71
   0 -12  -3   -2.66    5.14
   0 -12  -3    6.86    8.02
   0  12  -3    4.51    9.83
   0  12   3   -5.82    7.93
   0  12   3   -0.40    8.07
   0 -12   3  -33.28   11.23
   1  12  -3  -28.69   11.11
  -1 -12  -3   18.72    6.10
  -1 -12  -3   23.85    8.28
   1  12   3   17.89    9.35
   1  12   3   30.77    8.75
  -1 -12   3  -14.88    7.64
   2  12  -3   -0.66    8.50
  -2 -12  -3    7.46    6.21
  -2 -12  -3   -7.21    8.26
   2  12   3    4.99    8.31
  -2 -12   3    3.93    5.46
  -3 -12  -3    3.65    8.24
   3  12  -3   -2.16    9.47
   3  12  -3   -2.55    9.07
  -3 -12  -3    0.26    6.22
  -3 -12   3    0.73    8.65
  -3 -12   3    5.60    5.85
   3  12   3    7.91    7.86
  -4 -12  -3    0.82    6.00
   4  12  -3   -1.97    9.14
   4  12   3    2.08    7.97
  -4 -12   3    1.45    6.21
  -4 -12   3    0.26    8.75
   5  12  -3   58.95   13.26
  -5 -12   3   65.52   12.93
   6 -13  -3   24.52    7.78
   6 -13  -3   -1.56    5.54
  -6  13   3   -2.31    7.85
   5 -13  -3    3.86    4.41
   5 -13  -3   11.38    9.39
  -5  13   3    2.21    7.17
   4 -13  -3    0.60    4.62
   4 -13  -3    3.06    9.67
  -4  13   3    0.73    6.34
   3 -13  -3   -2.04    4.16
   3 -13  -3   -2.89   10.03
  -3  13   3    8.97    6.14
  -2  13  -3   -1.35    6.87
   2 -13  -3    2.41    9.38
   2 -13  -3   -5.65    4.84
  -2  13   3    1.67    9.64
   2 -13   3   -1.22    4.84
  -2  13   3   -0.19    7.13
  -1  13  -3    4.13    7.09
   1 -13  -3    2.72    5.05
   1 -13  -3    1.44    9.14
   1 -13   3   -4.11    5.05
  -1  13   3    0.28    9.35
  -1  13   3    7.62    8.05
   0 -13  -3   13.88    5.79
   0 -13  -3    6.52    9.09
   0  13  -3    4.12    8.13
   0 -13   3   -1.52    5.56
   0  13   3    2.93    9.15
   0  13   3   -6.28    8.99
  -1 -13  -3    5.02    8.71
  -1 -13  -3    3.23    5.86
   1  13  -3    1.62    9.18
   1  13   3   -0.25    9.57
   1  13   3   -0.61    9.26
  -1 -13   3    0.91    5.56
  -2 -13  -3   -2.40    6.37
   2  13  -3    2.69    9.50
  -2 -13   3   -0.24    6.41
   2  13   3   36.45    9.19
  -3 -13  -3   -0.28    6.85
   5  13  -3   -3.85    9.99
  -5 -13   3  -12.72   10.08
  -5 -13   3   -0.27    4.96
   6  13  -3   -7.01   10.26
  -6 -13   3   -0.28    6.76
   7 -14  -3   -1.92    9.79
   6 -14  -3   11.83   10.70
   6 -14   3   18.44    9.28
  -5  14  -3    5.17    9.33
   5 -14   3    3.53    6.25
   5 -14   3   18.90    9.23
  -4  14  -3    6.66    8.58
   4 -14   3   -5.25    5.53
   4 -14   3  -21.25    9.79
  -3  14  -3    0.23    7.93
   3 -14   3  -19.22   10.51
   3 -14   3    7.75    5.01
  -2  14  -3   31.43    8.06
   2 -14   3    8.53    5.62
   2 -14   3    0.28   11.17
  -1  14  -3   40.68   10.20
  -1  14  -3    8.43   13.84
   1 -14   3   28.47    7.85
   1 -14   3    0.29   13.56
   0  14  -3   52.77   11.96
   0  14  -3    4.32   14.24
   0 -14   3   12.39   14.03
   0 -14   3   31.52    8.87
   1  14  -3   54.26   12.50
  -1 -14   3   28.65    9.12
  -1 -14   3    0.30   13.54
  -2 -14  -3   -0.29    5.20
   2  14  -3    1.36   10.52
  -2 -14  -3    3.51   10.00
   2  14   3   14.46   10.71
  -2 -14   3    0.27    6.61
  -3 -14  -3    0.31    9.92
   3  14  -3   -0.39   11.86
   3  14  -3    7.05   11.09
  -3 -14  -3    6.39    7.64
   3  14   3    8.75   10.25
  -3 -14   3   -0.28    6.94
  -4 -14  -3    0.31    7.58
   4  14  -3    3.74   11.16
   4  14  -3  -13.03   11.63
  -4 -14   3    2.84    7.05
   4  14   3   17.06   10.47
  -4 -14   3    0.32   11.29
   5  14  -3   -7.65   11.41
  -5 -14   3    5.63   11.25
  -5 -14   3    0.29    7.02
   6  14  -3   16.16   11.89
  -6 -14   3    0.30    7.78
   7 -15  -3   -7.85   11.68
   6 -15  -3   27.88   11.65
   6 -15  -3    5.24    5.98
   6 -15   3  -14.16    9.93
  -6  15   3    8.41    9.28
  -5  15  -3   -1.65    9.86
   5 -15  -3    5.99    5.57
   5 -15  -3   -0.29   12.22
   5 -15   3  -12.80   10.54
   5 -15   3    2.20    6.27
  -5  15   3    3.71    8.60
   4 -15  -3   -3.10    5.49
   4 -15  -3  -15.73   12.12
  -4  15  -3   -8.49    9.26
  -4  15   3   -8.44    8.25
   4 -15   3    3.54    5.68
   4 -15   3    0.28   10.62
   3 -15  -3   -3.36   12.13
   3 -15  -3    1.86    5.30
  -3  15  -3    8.81    9.01
  -3  15   3    5.02    8.32
   3 -15   3   -0.26    5.67
  -3  15   3    1.05   11.87
   3 -15   3    3.27   11.95
  -2  15  -3  -11.70    8.94
   2 -15  -3   16.22   12.49
   2 -15  -3    3.87    5.78
   2 -15   3   -4.74    5.90
   2 -15   3  -21.53   12.91
  -2  15   3    8.82   12.05
  -2  15   3    2.57    8.80
  -1  15  -3    1.18   13.11
   1 -15  -3  -10.94   11.83
  -1  15  -3   -7.10    8.86
   1 -15  -3    2.10    6.46
  -1  15   3    5.00   10.22
  -1  15   3   -3.93   11.68
   1 -15   3   -0.26    6.21
   1 -15   3   -0.33   13.23
   0 -15  -3   -5.58    7.01
   0 -15  -3    2.14   11.66
   0  15  -3    0.27   10.02
   0  15  -3    8.50   13.53
   0 -15   3    0.27    6.67
   0  15   3    7.03   11.49
   0 -15   3   -2.65   12.80
   0  15   3   -7.93   10.99
   1  15  -3   -2.89   13.65
  -1 -15  -3  -17.66   11.75
   1  15  -3   13.31   11.40
  -1 -15  -3    0.60    7.33
  -1 -15   3   -4.01    7.26
   1  15   3   -0.78   11.64
  -1 -15   3   -0.33   12.72
   1  15   3    5.12   11.82
  -2 -15  -3   -6.15   11.32
  -2 -15  -3   -0.32    7.79
   2  15  -3    6.92   11.44
   2  15   3   -3.76   12.36
   2  15   3   -5.63   11.68
  -2 -15   3   -0.29    7.51
  -3 -15  -3    0.68   10.89
   3  15  -3    7.14   12.43
  -3 -15  -3   -0.33    7.67
   3  15   3    2.52   11.24
  -3 -15   3    0.30    7.65
   4  15  -3   10.07   12.30
  -4 -15  -3   -0.34    8.20
   4  15  -3   18.65   12.83
  -4 -15   3    1.25    7.71
  -4 -15   3   -7.43   12.02
   4  15   3   10.64   11.05
   5  15  -3  -15.06   12.41
  -5 -15   3    3.16    8.00
  -5 -15   3   -2.91   11.93
   6  15  -3  -17.23   12.28
  -6 -15   3    0.32    7.79
   7 -16  -3    7.09   12.33
   6 -16  -3  -33.61   14.55
   6 -16  -3  -12.46    7.48
   6 -16   3   -8.85   12.08
   5 -16  -3  -19.79    6.92
   5 -16  -3  -39.50   14.43
  -5  16  -3    3.97   11.34
   5 -16   3  -17.68    7.68
  -5  16   3  -34.40   10.89
   5 -16   3   -2.11   12.37
  -4  16  -3    5.18    9.90
   4 -16  -3    9.49   13.69
   4 -16  -3    1.05    5.82
   4 -16   3   10.78   12.67
  -4  16   3   -3.86   13.59
   4 -16   3    0.89    6.54
  -4  16   3    4.71    9.19
   3 -16  -3   -9.26    6.26
  -3  16  -3   15.38   10.00
   3 -16  -3   -1.70   13.54
   3 -16   3    3.69   13.54
   3 -16   3   12.62    6.56
  -3  16   3   12.53    9.08
  -3  16   3   21.58   14.03
  -2  16  -3   -2.20    9.54
  -2  16  -3  -13.99   14.35
   2 -16  -3  -11.05    6.85
   2 -16  -3  -19.48   13.85
   2 -16   3   24.29   14.24
  -2  16   3    1.98   13.40
   2 -16   3    1.71    6.74
  -2  16   3   -9.53    9.67
  -1  16  -3    4.96    9.66
   1 -16  -3    2.91    6.96
   1 -16  -3   15.64   12.94
  -1  16  -3    4.86   15.08
  -1  16   3    1.61   13.04
   1 -16   3    0.72   13.73
   1 -16   3    2.57    6.64
  -1  16   3   -3.50   10.84
   0 -16  -3  -15.91    7.62
   0  16  -3   18.15   14.91
   0 -16  -3   16.78   12.57
   0  16  -3    0.30   10.83
   0  16   3   -6.01   12.33
   0  16   3   -4.16   13.52
   0 -16   3    6.62    7.38
   0 -16   3   25.43   14.42
  -1 -16  -3    1.97    8.04
   1  16  -3   31.15   15.13
   1  16  -3    7.81   12.11
  -1 -16  -3  -16.14   12.73
   1  16   3  -21.61   13.12
   1  16   3   -1.31   12.81
  -1 -16   3   -0.37   14.19
  -1 -16   3    0.32    7.55
  -2 -16  -3    2.77    8.16
   2  16  -3   -7.70   13.49
  -2 -16  -3   -2.90   12.74
   2  16   3   -2.69   12.78
  -2 -16   3  -29.27    8.65
   2  16   3  -12.37   13.79
  -3 -16  -3    0.71    8.61
   3  16  -3  -13.63   13.45
  -3 -16  -3    0.37   12.22
  -3 -16   3    4.30    8.14
   3  16   3  -11.62   12.65
   3  16   3   18.80   14.33
   4  16  -3  -13.75   14.05
   4  16  -3   22.64   13.38
  -4 -16  -3    0.37    8.76
   4  16   3   25.76   12.48
  -4 -16   3    0.34    8.07
  -4 -16   3  -18.88   13.53
   5  16  -3  -15.19   14.52
   5  16  -3    6.19   14.03
  -5 -16   3    9.89    8.93
  -5 -16   3  -18.05   13.94
   6  16  -3   -1.09   14.40
  -6 -16   3  -22.27    8.87
   7 -17  -3   -4.51   14.43
   6 -17  -3    2.68    7.28
   6 -17  -3   -5.03   14.49
  -6  17   3   -3.57   10.97
   6 -17   3   -5.27   13.31
   5 -17  -3   -9.18    6.95
  -5  17  -3   -7.14   12.01
   5 -17  -3   21.83   15.23
   5 -17   3   11.64   14.20
   5 -17   3    0.74    7.66
  -5  17   3    8.07   10.55
  -5  17   3  -21.08   15.79
   4 -17  -3   -1.15    6.33
  -4  17  -3   11.17   11.60
   4 -17  -3  -29.02   15.17
   4 -17   3   -1.37    7.25
   4 -17   3    0.36   14.09
  -4  17   3   12.59   10.18
  -4  17   3  -19.01   15.45
  -3  17  -3  -16.95   10.85
   3 -17  -3   10.83    6.66
  -3  17  -3    9.11   15.55
   3 -17  -3   12.18   15.13
   3 -17   3  -12.46   15.55
  -3  17   3  -17.51   15.23
   3 -17   3   17.19    7.41
  -3  17   3    4.52   10.31
  -2  17  -3   -9.53   12.11
  -2  17  -3   11.85   16.52
  -2  17   3  -44.10   16.38
  -2  17   3  -24.31   12.04
   1 -17  -3  -20.97    9.18
  -1  17  -3  -30.68   12.68
  -1  17  -3  -12.82   17.70
   1 -17  -3  -23.15   16.29
   1 -17   3  -46.43   17.67
  -1  17   3   -0.33   13.77
  -1  17   3  -26.61   16.13
   0 -17  -3   15.31    9.68
   0  17  -3   22.73   17.44
   0  17  -3    3.33   13.20
   0  17   3   15.45   14.90
   0 -17   3    7.31    9.15
   0  17   3   -7.11   15.99
   0 -17   3  -13.57   17.33
   1  17  -3  -20.78   17.44
   1  17  -3   -5.77   14.89
  -1 -17  -3  -12.61    9.71
  -1 -17  -3   -5.47   15.16
   1  17   3    4.81   15.74
  -1 -17   3  -14.05   16.62
   1  17   3  -12.68   15.75
  -2 -17  -3  -25.74   14.99
  -2 -17  -3   -0.75    9.36
   2  17  -3   -3.71   14.63
  -2 -17   3   10.70    9.19
   2  17   3   -7.49   15.11
  -2 -17   3  -38.09   16.40
   2  17   3   -6.42   15.90
  -3 -17  -3    3.28   14.01
  -3 -17  -3   -9.26    9.35
   3  17   3    3.09   14.14
  -3 -17   3   23.00    8.92
   3  17   3    0.76   16.39
   4  17  -3   10.88   14.71
  -4 -17  -3  -17.77   10.12
   4  17  -3   30.80   16.36
  -4 -17   3    0.73    9.13
   5  17  -3  -13.10   15.22
   5  17  -3   -5.26   15.44
  -5 -17   3    0.44   14.37
  -5 -17   3   -5.18    8.78
   6  17  -3   -3.37   15.28
   6  17  -3   12.04   15.38
  -6 -17   3  -14.61    9.17
   7 -18  -3   -4.67   16.29
   6 -18  -3  114.14   26.56
   6 -18  -3   40.67   17.11
   6 -18   3   93.52   23.54
  -6  18   3   77.98   22.24
   5 -18  -3   -0.68    7.44
  -5  18  -3  -10.53   13.57
   5 -18  -3   -9.88   16.94
   5 -18   3   -3.23    8.40
  -5  18   3   -4.69   16.32
   5 -18   3    3.85   15.65
  -5  18   3    9.70   11.69
  -4  18  -3  -25.75   13.27
   4 -18  -3  -11.70   16.71
   4 -18  -3    1.96    6.98
   4 -18   3    0.38    7.89
  -4  18   3    2.63   11.05
   4 -18   3    3.61   16.39
  -4  18   3   32.09   17.62
  -3  18  -3   14.15   12.54
   3 -18  -3  -22.36   16.98
   3 -18  -3    3.90    7.59
  -3  18  -3   20.75   17.56
   3 -18   3  -18.69    8.10
  -3  18   3   47.36   12.00
  -3  18   3    0.49   16.81
   3 -18   3   26.58   17.07
   2 -18  -3   41.01   16.78
  -2  18  -3   13.27   12.65
   2 -18  -3   -4.33    7.52
  -2  18  -3    6.33   17.22
  -2  18   3   -7.87   12.07
  -2  18   3   -8.94   16.83
   2 -18   3  -41.35   17.56
   2 -18   3   12.34    8.12
  -1  18  -3  -18.33   12.86
  -1  18  -3   -1.65   17.85
   1 -18  -3   14.48   16.36
   1 -18  -3    2.86    8.22
   1 -18   3   -6.26   17.13
  -1  18   3    3.56   13.38
  -1  18   3  -21.10   16.51
   1 -18   3   -2.15    8.26
   0  18  -3    7.28   13.21
   0 -18  -3   16.38   16.18
   0 -18  -3  -25.53    9.44
   0  18  -3   53.84   18.74
   0 -18   3    0.46   17.32
   0  18   3    3.54   14.98
   0 -18   3   -8.48    8.69
   0  18   3   -3.19   16.68
  -1 -18  -3    1.32   15.88
   1  18  -3    3.57   14.75
  -1 -18  -3   -3.20    9.84
   1  18  -3   17.76   19.25
   1  18   3  -11.78   16.33
  -1 -18   3   -4.98    9.08
   1  18   3  -19.17   16.99
  -1 -18   3    3.70   17.27
   2  18  -3   -9.83   19.48
  -2 -18  -3  -34.88   16.24
  -2 -18  -3  -19.20   10.19
   2  18  -3    0.41   15.42
   2  18   3   -0.56   16.23
  -2 -18   3    5.13    9.59
   2  18   3   12.40   16.32
  -2 -18   3    9.90   17.42
  -3 -18  -3   11.27   10.36
  -3 -18  -3   25.85   15.79
   3  18  -3   -2.89   16.13
   3  18   3   23.52   15.62
   3  18   3   -3.73   17.17
  -3 -18   3   -7.94    9.94
  -4 -18  -3   11.96   10.52
   4  18  -3   36.47   16.70
   4  18   3    7.43   16.60
   4  18   3  -36.79   15.77
  -4 -18   3  -14.28    9.64
   5  18  -3   15.04   17.01
   5  18  -3   -4.89   16.78
  -5 -18   3  -39.93   16.89
  -5 -18   3    1.20   10.21
   6  18  -3  101.20   26.20
   6  18  -3   29.34   24.07
   7 -19  -3    5.69   18.18
   6 -19  -3   11.51    8.80
   6 -19  -3    7.62   18.45
  -6  19   3  -13.83   13.78
  -6  19   3   33.18   18.66
   6 -19   3    3.77   16.95
   5 -19  -3  -11.22    7.99
   5 -19  -3   18.67   18.48
  -5  19  -3  -13.17   14.79
  -5  19   3    7.32   18.60
   5 -19   3    4.91    9.18
  -5  19   3    0.40   12.95
   5 -19   3   -7.36   17.37
  -4  19  -3  -48.45   19.34
  -4  19  -3   14.92   14.62
   4 -19  -3   12.51   18.83
   4 -19  -3    5.41    8.03
   4 -19   3   15.15    9.09
   4 -19   3    0.45   18.34
  -4  19   3    3.48   13.05
  -4  19   3   -4.25   18.64
  -3  19  -3  -19.19   19.82
   3 -19  -3  -23.32   19.35
  -3  19  -3  -28.54   14.47
   3 -19  -3   -9.02    8.76
   3 -19   3  -28.52   18.89
  -3  19   3    0.37   13.13
   3 -19   3    5.58    8.85
  -3  19   3  -17.44   19.16
  -2  19  -3  -76.79   24.89
  -1  19  -3  228.90   46.79
  -1  19   3  192.94   45.97
   0 -19  -3  121.22   97.84
   0 -19  -3  591.15  124.69
   0  19   3  375.93  121.01
   1  19  -3   76.41   32.80
   1  19  -3  182.81   38.07
  -1 -19  -3   22.99   24.89
  -1 -19   3  -10.98   23.76
   1  19   3   69.55   34.08
   1  19   3   58.76   33.50
   2  19  -3  -27.63   22.31
  -2 -19  -3  -37.44   14.99
   2  19   3  -61.73   22.13
   2  19   3  -42.90   22.31
  -3 -19  -3  -26.18   17.57
  -3 -19  -3    5.45   11.05
   3  19  -3   12.23   18.36
  -3 -19   3  -41.29   20.39
   3  19   3   19.03   18.36
   3  19   3   25.58   17.53
  -4 -19  -3   -7.39   11.34
   4  19  -3    1.34   18.34
  -4 -19   3   26.71   11.50
   4  19   3   17.52   18.02
   4  19   3   -3.95   16.67
   5  19  -3   -6.60   19.55
   5  19  -3   28.92   18.37
  -5 -19   3    0.43   11.02
   6  19  -3    9.75   17.77
   6  19  -3  -24.72   19.97
   6 -20  -3  -12.17    9.26
   6 -20  -3  -20.77   20.27
  -6  20   3   11.49   14.97
  -6  20   3  -24.98   20.75
   5 -20  -3  -36.79   21.11
   5 -20  -3    9.94    9.18
  -5  20   3   30.69   20.29
  -5  20   3    9.94   15.56
   4 -20  -3  -21.99   21.08
   4 -20  -3    2.39    8.94
  -4  20  -3  -23.62   17.05
   4 -20   3  -12.21   10.08
  -4  20   3    3.92   15.09
  -4  20   3   -7.67   20.27
  -3  20  -3   16.65   16.71
   3 -20  -3   11.35   21.48
   3 -20  -3   25.22   10.16
  -3  20   3   14.51   20.86
  -3  20   3    4.98   15.37
   3 -20   3    5.47   10.80
  -2  20  -3  -32.53   21.75
   2 -20  -3    0.52   19.89
   2 -20  -3   28.75   10.13
  -2  20  -3   23.77   16.77
  -2  20   3   -0.63   20.99
   2 -20   3   36.31   21.23
   2 -20   3    0.45    9.85
  -2  20   3  -22.87   16.27
  -1  20  -3  -18.31   22.45
  -1  20  -3   20.09   16.45
   1 -20  -3    6.56   10.44
   1 -20  -3    0.53   20.20
   1 -20   3   30.65   21.54
  -1  20   3   49.63   20.75
   1 -20   3   -6.81   10.67
  -1  20   3   -3.90   16.34
   0  20  -3   12.14   23.56
   0 -20  -3   -0.46   11.16
   0  20  -3  -31.14   16.95
   0 -20  -3  -13.46   20.19
   0 -20   3  -29.83   11.17
   0 -20   3    0.56   21.28
   0  20   3   16.64   18.48
   0  20   3  -14.11   20.82
  -1 -20  -3   14.00   12.43
   1  20  -3    3.32   17.36
  -1 -20  -3    0.55   19.57
   1  20  -3  -40.54   24.08
  -1 -20   3   -1.85   11.42
   1  20   3    0.68   20.29
   1  20   3   10.46   19.49
  -1 -20   3  -15.05   21.42
  -2 -20  -3   -1.47   12.00
   2  20  -3    5.91   18.77
  -2 -20  -3    0.55   19.44
   2  20   3    6.98   19.54
   2  20   3   13.03   20.00
  -2 -20   3  -23.58   11.94
   3  20  -3    7.51   20.16
  -3 -20  -3    3.94   13.03
  -3 -20  -3   24.64   19.57
  -3 -20   3   29.65   13.31
   3  20   3   33.63   20.09
  -4 -20  -3  -18.55   12.34
   4  20   3  -11.79   19.94
   0   0  -4  188.02   43.05
   0   0  -4  177.87   40.69
   0   0   4  165.32   47.54
   0  -1  -4   -0.36    0.45
   1   0  -4    0.06    0.23
   1   0  -4   -0.30    0.34
   0   1   4   -0.14    0.67
  -1   0   4   -0.06    0.44
   1   1  -4    0.99    0.38
   1   1  -4    0.86    0.31
   1  -1  -4    0.64    0.44
   1   1  -4    0.93    0.51
  -1  -1   4    0.93    0.47
  -1  -1   4    0.40    0.63
  -1   1   4    0.64    0.59
  -1  -1   4    0.84    0.46
   2   1  -4    0.13    0.83
   1  -2  -4    0.67    0.37
   1  -2  -4    0.65    0.84
   2   1  -4    0.95    0.48
   2   1  -4    0.41    0.45
   1  -2  -4    1.53    0.51
   1  -2  -4    0.36    0.50
  -1   2   4    1.25    0.73
  -1   2   4    0.97    0.80
  -2  -1   4    0.33    0.49
   0  -2  -4   50.60    9.96
   0   2  -4   57.79   12.16
   2   0  -4   49.36   10.40
   2   0  -4   51.91   10.55
   0  -2  -4   42.15   10.43
   0  -2   4   41.43   12.28
  -2   0   4   53.98   10.66
   0  -2   4   55.05   10.93
   1   2  -4    0.49    0.31
   2  -1  -4    1.09    0.57
   1   2  -4    0.81    0.80
   1   2  -4    1.15    0.38
  -1  -2   4    0.85    0.65
  -1  -2   4    0.87    0.99
  -1  -2   4    1.11    0.49
   2  -2  -4   15.99    4.51
   2  -2  -4   11.67    4.53
   2   2  -4   28.00    5.49
   2  -2  -4   29.57    5.65
   2   2  -4   27.28    4.65
   2   2  -4   16.01    4.74
   2  -2  -4   14.97    4.41
  -2   2   4   20.70    4.59
  -2  -2   4   18.05    4.62
  -2  -2   4   27.38    4.90
  -2  -2   4   23.46    6.12
  -2   2   4   13.41    5.10
   2  -3  -4   23.33    8.00
   2  -3  -4   32.95    6.91
   2  -3  -4   28.09    7.56
   2  -3  -4   33.69    6.75
  -2   3   4   31.66    7.94
  -2   3   4   34.63    7.01
   1  -3  -4    7.33    2.08
  -1   3  -4    3.53    2.65
   1  -3  -4   10.81    2.00
   1  -3  -4    9.83    2.58
   1  -3  -4   11.13    1.86
  -1   3   4    9.02    2.38
   1  -3   4    9.60    2.24
  -1   3   4    6.25    2.32
  -3  -1   4    5.74    2.09
   1  -3   4    9.45    2.36
   0  -3  -4    0.27    0.45
   0  -3  -4   -0.36    1.41
   3   0  -4    0.21    0.68
   0   3  -4    0.21    1.00
   0  -3  -4   -0.24    0.65
   0  -3   4   -0.39    1.13
   0   3   4   -0.21    1.10
   0  -3   4    0.19    0.82
   0   3   4   -0.13    1.34
  -3   0   4    0.21    0.62
   1   3  -4    6.05    2.26
   3  -1  -4   -0.07    1.90
  -1  -3   4    7.07    1.94
  -1  -3   4    4.76    2.41
  -3   1   4    8.44    1.89
   2   3  -4   34.53    7.59
   3  -2  -4   28.71    6.62
   3  -2  -4   19.88    6.78
  -3   2   4   25.59    6.74
  -2  -3   4   20.03    8.43
  -2  -3   4   28.83    7.02
   3  -3  -4   40.92   14.04
   3   3  -4   49.45   14.46
   3  -3  -4   54.43   11.89
   3  -3  -4   60.58   11.53
   3  -4  -4   25.30    6.23
   3  -4  -4   24.54    6.06
   3  -4  -4   25.55    7.50
  -3   4   4   25.91    6.11
  -3   4   4   23.67    7.05
   2  -4  -4   16.75    4.93
  -2   4  -4    3.11    5.20
   2  -4  -4   16.82    4.49
   2  -4  -4   19.26    4.16
   2  -4  -4   19.48    4.04
  -2   4   4   16.84    4.85
  -2   4   4   22.73    4.26
   1  -4  -4    1.86    1.70
   1  -4  -4    0.87    0.59
  -1   4  -4    0.54    1.59
   1  -4  -4    1.30    1.12
   1  -4  -4    0.38    0.81
  -1   4   4    1.18    1.70
   1  -4   4    1.18    1.22
  -1   4   4    0.89    1.52
   1  -4   4    1.09    1.47
  -1   4   4    1.25    1.23
   0  -4  -4  111.19   21.25
   0  -4  -4  112.42   22.71
   0  -4  -4   87.28   30.21
   0  -4  -4   85.37   24.62
   0   4  -4   96.40   25.27
   0   4   4  102.86   26.64
   0   4   4   66.52   26.89
   0  -4   4  102.66   26.34
   0  -4   4   98.75   22.87
  -1  -4  -4    0.26    0.80
   1   4  -4    0.99    1.62
   1   4   4   -0.10    1.91
  -4   1   4    0.22    0.92
  -1  -4   4    1.53    1.96
  -1  -4   4    1.36    1.14
   2   4  -4   17.83    4.96
  -2  -4   4   17.70    4.50
  -2  -4   4   12.00    5.41
   3   4  -4   31.53    7.81
  -3  -4   4   32.05    6.78
  -3  -4   4   17.75    8.46
   4  -4  -4   23.77    6.79
   4  -5  -4    6.79    3.00
   4  -5  -4    8.15    2.43
  -4   5   4    7.48    2.38
   3  -5  -4    0.19    1.40
   3  -5  -4    1.35    2.27
   3  -5  -4    1.10    1.51
  -3   5   4    2.49    2.13
   2  -5  -4   15.75    5.06
   2  -5  -4   20.67    4.10
   2  -5  -4   16.22    4.29
   2  -5  -4   14.73    3.90
  -2   5   4   16.95    4.17
  -2   5   4   12.86    4.79
  -2   5   4   14.90    4.73
   1  -5  -4   43.09   10.13
   1  -5  -4   45.68   11.92
   1  -5  -4   47.47    9.85
   1  -5  -4   36.70    9.26
  -1   5   4   36.05   11.34
  -1   5   4   39.11   10.91
  -1   5   4   38.48   11.67
   0  -5  -4    0.17    1.94
   0  -5  -4    1.12    0.75
   0  -5  -4    1.63    1.25
   0   5  -4   -0.34    2.03
   0  -5  -4    1.20    2.85
   0   5   4    0.58    2.66
   0  -5   4    0.14    1.51
   0   5   4    0.27    1.93
  -1  -5  -4   37.36   14.18
  -1  -5  -4   46.21   11.40
   1   5  -4   45.53   11.65
  -1  -5  -4   45.36    9.85
  -1  -5   4   42.84   10.28
   1   5   4   41.42   12.69
   4   5  -4    6.23    4.37
  -4  -5   4    4.16    4.71
   5  -5  -4    7.35    2.24
  -5   5   4    3.49    2.31
   5  -6  -4    7.42    3.72
   5  -6  -4    9.95    2.90
  -5   6   4    9.42    3.00
   4  -6  -4    2.08    1.62
   4  -6  -4    0.65    1.72
  -4   6   4   -0.39    1.70
  -3   6  -4    0.40    3.17
  -2   6  -4   72.39   19.02
  -2   6   4   92.74   18.17
   1  -6  -4    1.08    1.23
   1  -6  -4   -0.39    0.89
  -1   6  -4   -0.16    2.43
  -1   6   4   -0.59    2.00
   1  -6   4    1.38    1.97
   1  -6   4   -0.94    2.80
   0  -6  -4   13.89    3.22
   0  -6  -4   18.06    3.72
   0   6  -4    9.41    4.58
   0  -6   4   10.76    3.79
   0  -6   4   15.95    4.98
   0   6   4   11.54    4.83
  -1  -6  -4   -0.32    1.05
   1   6  -4    0.25    2.93
  -1  -6  -4   -0.13    3.73
  -1  -6   4    1.06    1.96
  -1  -6   4    0.57    3.36
   1   6   4   -0.28    3.52
   2   6  -4  111.25   19.03
   2   6   4   81.35   20.46
  -2  -6   4   94.55   18.24
   3   6  -4    0.45    4.12
  -3  -6   4    2.12    3.89
  -3  -6   4    0.97    2.69
   4   6  -4    0.92    4.34
  -4  -6   4    0.95    2.88
  -4  -6   4    2.96    4.58
   6  -7  -4    7.66    3.18
   5  -7  -4    8.81    3.35
   5  -7  -4    9.52    4.47
   5  -7  -4    9.00    3.38
  -5   7   4   15.31    3.47
   4  -7  -4   -5.45    3.22
   4  -7  -4    5.56    1.98
   4  -7  -4    6.69    2.14
   4  -7  -4  -10.42    4.30
  -4   7   4    0.84    2.41
  -4   7   4  -10.91    4.74
   3  -7  -4    2.88    1.68
   3  -7  -4    2.57    2.30
   3  -7  -4    0.09    3.77
   3  -7  -4    5.28    1.71
  -3   7  -4    4.24    3.96
   3  -7   4   -1.18    3.07
  -3   7   4    2.78    1.83
  -3   7   4    4.92    3.07
   3  -7   4    5.44    2.97
  -2   7  -4   -0.34    3.35
   2  -7  -4   -1.34    2.14
   2  -7  -4   -4.11    4.05
   2  -7   4    2.08    2.37
  -2   7   4   -1.94    3.13
   1  -7  -4    0.76    2.18
   1  -7  -4    2.40    1.41
  -1   7  -4    1.47    2.88
   1  -7  -4    5.68    3.80
   1  -7  -4   -0.05    0.87
  -1   7   4    3.42    2.34
  -1   7   4   -1.92    3.47
  -1   7   4    5.97    3.52
   1  -7   4    1.75    1.99
   0  -7  -4    0.60    0.92
   0  -7  -4    4.08    3.85
   0  -7  -4    0.31    1.58
   0  -7  -4    1.03    2.42
   0   7  -4   -0.09    3.14
   0  -7   4    0.99    3.66
   0   7   4   -2.13    2.73
   0   7   4    0.13    3.79
   0  -7   4   -0.10    2.27
  -1  -7  -4    0.70    3.02
   1   7  -4    2.01    3.52
  -1  -7  -4    2.79    1.13
  -1  -7  -4   -1.24    4.21
   1   7   4   -0.48    4.13
  -1  -7   4    1.16    2.48
  -1  -7   4    3.46    4.13
   2   7  -4   -0.43    4.17
  -2  -7  -4    1.95    4.29
  -2  -7  -4    2.41    3.14
  -2  -7   4    0.12    4.24
   2   7   4   -0.93    4.30
  -2  -7   4   -0.48    2.81
   3   7  -4    0.33    4.44
  -3  -7   4    5.34    3.25
  -3  -7   4    2.33    4.47
   4   7  -4    5.97    5.11
  -4  -7   4    8.76    3.59
  -4  -7   4    4.68    5.53
   5   7  -4    7.08    5.85
  -5  -7   4   11.02    4.30
   6  -8  -4    4.76    2.80
   6  -8  -4    2.75    4.24
   5  -8  -4    7.02    2.86
   5  -8  -4   10.11    3.66
   5  -8  -4   13.31    4.69
   5  -8  -4    5.56    2.97
  -5   8   4    7.68    3.13
  -5   8   4    5.08    4.42
   4  -8  -4    7.48    2.86
   4  -8  -4   16.47    3.46
   4  -8  -4    7.53    4.92
   4  -8  -4    6.19    2.88
   4  -8   4    6.81    4.01
  -4   8   4    7.66    4.25
  -4   8   4    8.63    3.02
  -3   8  -4    0.81    4.17
   3  -8  -4   -1.25    1.79
   3  -8  -4    1.70    2.41
   3  -8  -4   -0.78    4.47
   3  -8  -4   -0.15    1.76
  -3   8   4   -1.05    2.01
  -3   8   4   -2.03    3.22
   3  -8   4   -0.16    3.10
   3  -8   4    0.34    3.72
  -3   8   4   -1.01    2.63
  -2   8  -4    9.09    4.50
   2  -8  -4    5.54    3.02
   2  -8   4    3.42    3.51
   1  -8  -4   -5.18    3.46
  -1   8  -4   -0.10    3.68
  -1   8   4   -8.84    6.06
   1  -8   4   -3.59    2.85
   1  -8   4   -0.40    0.87
   0  -8  -4    9.38    2.84
   0   8  -4   14.98    4.44
   0  -8  -4   12.23    3.86
   0  -8   4    8.15    3.69
   0   8   4    6.10    5.81
   0  -8   4   -5.11    6.63
   0   8   4    3.60    5.01
   1   8  -4   -4.00    4.43
  -1  -8  -4   -3.63    3.85
   1   8  -4   -2.79    5.22
   1   8   4   -4.25    5.16
  -1  -8   4   -2.68    3.32
  -2  -8  -4   29.10    6.88
   2   8  -4   11.93    5.70
   2   8  -4   12.49    5.58
  -2  -8  -4    9.37    4.83
   2   8   4    8.17    6.09
  -2  -8   4    6.72    4.13
  -2  -8   4   25.36    6.43
   3   8  -4   -2.05    5.13
  -3  -8   4    1.39    3.58
  -3  -8   4    0.61    5.01
   4   8  -4   10.02    5.93
  -4  -8   4    5.34    4.18
  -4  -8   4    0.18    5.96
   5   8  -4    9.09    6.21
  -5  -8   4    8.99    6.56
  -5  -8   4    0.18    4.30
   6  -9  -4   38.20    8.61
   6  -9  -4   26.47   10.21
   5  -9  -4    5.33    3.64
   5  -9  -4    5.03    5.25
   5  -9  -4    3.52    2.93
   5  -9  -4    5.39    2.80
  -5   9   4    5.09    4.90
  -5   9   4    9.81    3.09
   4  -9  -4   54.41   13.86
   4  -9  -4   63.98   16.69
  -4   9  -4   33.01   17.07
   4  -9  -4   58.10   14.06
   4  -9  -4   53.52   14.14
   4  -9   4   55.42   14.46
  -4   9   4   63.25   14.86
  -4   9   4   68.49   15.62
   4  -9   4   63.21   15.02
   3  -9  -4    6.70    2.59
  -3   9  -4    7.01    5.09
   3  -9  -4    8.87    2.67
   3  -9  -4   10.10    5.60
   3  -9  -4    7.15    3.17
  -3   9   4    5.08    3.56
   3  -9   4    4.54    3.67
  -3   9   4    5.82    2.77
   3  -9   4    9.78    4.66
  -3   9   4   11.75    4.17
   2  -9  -4   11.62    2.86
  -2   9  -4    9.21    4.83
   2  -9  -4    9.80    3.61
   2  -9  -4    8.12    5.86
   2  -9  -4   10.08    3.05
  -2   9   4    5.35    3.24
   2  -9   4   10.95    3.79
   2  -9   4    6.72    5.49
  -2   9   4   11.05    4.09
  -2   9   4   14.76    4.83
   1  -9  -4    0.07    1.29
   1  -9  -4   -2.17    3.08
  -1   9  -4   -0.36    3.83
   1  -9  -4    0.28    4.97
  -1   9   4    2.07    4.95
  -1   9   4   -1.21    4.51
  -1   9   4   -0.78    1.83
   1  -9   4    1.30    2.84
   0  -9  -4   -0.45    3.43
   0  -9  -4   -4.13    5.31
   0   9  -4   -0.64    4.40
   0   9   4   -3.24    5.08
   0  -9   4   -0.27    3.10
   1   9  -4   -2.18    4.62
   1   9  -4    0.38    5.59
  -1  -9  -4    0.33    5.57
  -1  -9  -4   -2.23    3.97
  -1  -9   4   -0.79    5.78
   1   9   4   -5.34    5.60
  -1  -9   4    1.26    3.33
   2   9  -4   11.32    6.10
  -2  -9  -4    9.84    5.03
  -2  -9  -4    9.62    6.60
   2   9  -4   10.31    6.09
  -2  -9   4   18.56    4.65
  -2  -9   4    1.13    6.19
   2   9   4   13.21    6.26
  -3  -9  -4    7.34    4.47
   3   9  -4    2.32    6.16
  -3  -9   4    5.18    4.45
   3   9   4    7.36    6.02
  -3  -9   4    4.47    5.98
   4   9  -4   40.53   16.12
  -4  -9   4   70.59   14.01
  -4  -9   4   46.98   16.67
   5   9  -4    3.25    6.67
  -5  -9   4    7.53    6.88
  -5  -9   4    1.35    4.61
   7 -10  -4    2.36    5.84
   7 -10  -4    8.40    3.70
   6 -10  -4    5.11    5.66
   6 -10  -4    1.88    2.95
   5 -10  -4   20.75    5.81
   5 -10  -4   17.23    6.33
   5 -10  -4   19.76    8.31
  -5  10   4   24.15    6.45
  -5  10   4   25.54    7.95
   4 -10  -4    3.57    2.70
   4 -10  -4    5.48    6.20
   4 -10  -4    3.47    2.61
  -4  10  -4    8.63    6.03
   4 -10  -4    4.47    3.43
   4 -10   4    2.26    4.91
  -4  10   4    5.54    2.95
  -4  10   4    4.45    3.42
  -4  10   4    4.61    4.55
   4 -10   4    8.53    4.53
   3 -10  -4    1.91    2.68
  -3  10  -4    8.95    5.38
   3 -10  -4    0.16    6.40
   3 -10  -4    7.45    2.68
   3 -10  -4    6.13    3.43
  -3  10   4    8.19    2.95
  -3  10   4    9.54    4.45
   3 -10   4    7.06    5.45
   3 -10   4    5.64    3.88
  -3  10   4    8.38    3.72
   2 -10  -4    6.26    3.54
  -2  10  -4   11.34    4.97
   2 -10  -4    5.56    7.58
   2 -10  -4    6.98    2.41
   2 -10  -4    5.42    2.30
  -2  10   4    3.99    4.98
  -2  10   4    3.88    2.88
  -2  10   4    1.62    6.19
   2 -10   4    6.23    5.95
  -2  10   4    6.37    3.78
   2 -10   4    8.50    3.63
  -1  10  -4    6.30    4.63
   1 -10  -4    3.47    2.14
   1 -10  -4    2.23    1.64
   1 -10  -4    1.29    6.15
   1 -10  -4    1.89    3.63
  -1  10   4    2.51    5.20
  -1  10   4    4.96    5.93
   1 -10   4    0.15    3.30
  -1  10   4    1.25    2.08
  -1  10   4    0.09    3.63
   0 -10  -4   33.97    7.89
   0 -10  -4   31.74   10.86
   0 -10  -4   51.84    9.20
   0  10   4   45.17   11.25
   0 -10   4   34.71    8.61
   0  10   4   48.93   10.46
  -1 -10  -4   -0.19    4.60
   1  10  -4    1.99    6.68
   1  10  -4    2.66    5.83
  -1 -10  -4    1.05    1.35
  -1 -10  -4    0.37    5.93
   1  10   4    3.09    6.11
  -1 -10   4   -5.10    6.58
  -1 -10   4    0.63    3.73
   2  10  -4   10.99    6.79
  -2 -10  -4    4.99    6.67
   2  10  -4    4.71    6.74
  -2 -10  -4    5.76    5.03
  -2 -10  -4    8.08    2.15
  -2 -10   4    3.47    4.36
  -2 -10   4    0.18    6.65
   2  10   4    6.12    6.69
  -3 -10  -4    6.09    5.18
   3  10  -4   13.89    6.80
  -3 -10   4    1.16    6.74
   3  10   4   15.37    6.78
  -3 -10   4    5.53    4.84
   4  10  -4   11.41    7.35
  -4 -10   4   -0.21    7.12
  -4 -10   4    1.61    5.00
   5  10  -4   29.23    9.36
  -5 -10   4   10.88    9.38
  -5 -10   4   24.02    7.12
  -6 -10   4  -18.22    5.43
   7 -11  -4    4.07    3.76
   7 -11  -4   12.41    6.99
   6 -11  -4    8.04    6.78
   6 -11  -4    1.88    3.18
  -6  11   4    7.06    6.12
   5 -11  -4    1.71    3.82
   5 -11  -4   -0.22    2.76
   5 -11  -4    4.81    6.95
  -5  11   4    1.81    5.69
  -5  11   4   -2.44    3.37
   5 -11   4   -6.37    5.64
  -4  11  -4   20.69    7.77
   4 -11  -4   19.35    8.48
   4 -11  -4   16.78    4.73
   4 -11  -4   13.02    5.04
   4 -11   4    0.16    6.77
   4 -11   4   12.05    5.66
  -4  11   4   19.07    6.25
  -4  11   4   15.45    5.02
  -4  11   4   16.14    5.32
   3 -11  -4    6.13    7.42
  -3  11  -4    5.05    5.85
   3 -11  -4    8.47    3.72
  -3  11   4    5.05    4.04
   3 -11   4    8.94    4.30
   3 -11   4    2.35    6.29
  -3  11   4    7.32    5.06
  -3  11   4    5.78    3.18
  -2  11  -4    7.09    5.56
   2 -11  -4   11.52    7.44
   2 -11  -4    7.21    3.97
   2 -11   4    8.87    4.22
  -2  11   4   15.81    7.38
   2 -11   4    1.09    7.46
  -2  11   4    6.62    5.95
   1 -11  -4   31.26    9.58
  -1  11  -4   28.96   10.68
   1 -11  -4   30.41   12.51
   1 -11   4   40.69    9.08
  -1  11   4   33.76   11.71
  -1  11   4   51.38   11.80
   0 -11  -4   -2.07    6.69
   0  11  -4   -5.21    6.03
   0 -11  -4    0.19    4.43
   0  11   4    2.88    6.99
   0 -11   4   -4.27    4.10
   0  11   4   -2.42    6.78
   1  11  -4   47.58   12.05
  -1 -11  -4   31.73   10.77
   1  11  -4   50.40   13.10
  -1 -11  -4   26.48   12.48
  -1 -11   4   33.05   13.03
  -1 -11   4   29.23    9.80
   1  11   4   47.07   12.14
  -2 -11  -4    6.99    7.78
  -2 -11  -4   11.63    5.80
   2  11  -4   10.06    7.66
   2  11  -4   10.05    7.97
  -2 -11   4    1.88    8.16
  -2 -11   4    7.53    4.96
   2  11   4    6.71    7.39
   3  11  -4    5.96    8.01
  -3 -11  -4    6.18    5.69
  -3 -11  -4    5.96    7.61
   3  11  -4   11.23    8.17
   3  11   4    6.82    7.52
  -3 -11   4    1.51    7.88
  -3 -11   4    2.92    5.24
   4  11  -4    5.60    9.39
  -4 -11   4    0.67    6.33
   5  11  -4   -2.22    8.39
  -5 -11   4    0.23    5.52
   6  11  -4    8.39    8.65
  -6 -11   4   -0.24    5.72
   7 -12  -4   13.17    8.52
   6 -12  -4   -0.96    4.99
   6 -12  -4    4.38    7.89
  -6  12   4    0.47    6.85
   5 -12  -4    2.92    4.71
  -5  12  -4    2.45    7.92
   5 -12  -4   -7.30    8.69
   5 -12   4   14.27    6.83
  -5  12   4   -0.39    6.95
   4 -12  -4   -2.04    8.25
   4 -12  -4    1.38    4.07
  -4  12  -4    3.42    7.18
   4 -12   4    0.46    4.84
   4 -12   4    0.18    6.67
  -4  12   4   -3.55    5.54
   3 -12  -4    0.99    3.81
  -3  12  -4    7.15    6.48
   3 -12  -4    3.31    8.54
   3 -12   4    6.64    7.31
  -3  12   4    0.15    5.57
   3 -12   4    7.11    4.28
   2 -12  -4   17.29    9.50
   2 -12  -4   11.41    5.68
  -2  12  -4   20.18    7.45
   2 -12   4   22.99    5.82
  -2  12   4   15.55    7.84
  -2  12   4   20.26    9.52
   2 -12   4    0.42    9.36
   1 -12  -4   -0.93    4.69
  -1  12  -4   -2.40    6.36
   1 -12  -4   -0.42    7.89
   1 -12   4  -12.87    4.77
  -1  12   4    0.55    7.34
  -1  12   4   -3.85    8.23
   0 -12  -4   40.72   11.27
   0  12  -4   19.23   13.97
   0 -12  -4   44.34   13.73
   0  12   4   38.08   14.24
   0 -12   4   39.18   10.58
   0  12   4   61.38   13.31
   1  12  -4  -17.65    8.72
  -1 -12  -4   -3.87    7.88
  -1 -12  -4    2.31    5.76
  -1 -12   4  -10.59    5.32
   1  12   4    8.81    7.91
   1  12   4    6.72    8.55
  -2 -12  -4   18.35    7.65
  -2 -12  -4   16.97    9.84
   2  12  -4   19.95   10.58
   2  12  -4   16.74    9.94
  -2 -12   4   19.23    7.16
  -2 -12   4   30.05   10.74
   2  12   4   19.18    9.37
  -3 -12  -4    6.08    6.14
   3  12  -4   -3.92    8.54
  -3 -12  -4   12.23    8.49
   3  12  -4    3.06    9.03
  -3 -12   4    0.23    5.99
  -3 -12   4  -24.24    9.04
   3  12   4   -0.32    8.34
   4  12  -4  -12.16    9.38
  -4 -12   4   -9.90    6.08
  -4 -12   4    0.26    8.91
   5  12  -4   49.78   12.80
  -5 -12   4   74.46   12.70
   6 -13  -4    5.72    9.24
   6 -13  -4    5.81    5.36
  -6  13   4   -1.00    8.29
   5 -13  -4   -2.10    4.80
   5 -13  -4   10.43    9.53
   5 -13   4   13.97    7.60
  -5  13   4   -0.21    7.04
   4 -13  -4   -3.72    9.58
   4 -13  -4    0.19    4.40
  -4  13   4   -2.15    6.27
   3 -13  -4    0.37    4.20
   3 -13  -4    6.15    9.87
  -3  13   4   -4.29    9.31
  -3  13   4    1.69    6.15
   2 -13  -4    0.47    9.87
   2 -13  -4    0.58    5.16
  -2  13   4   -3.26    9.67
  -2  13   4    3.57    7.82
  -1  13  -4    5.41    7.41
   1 -13  -4   17.43    9.17
   1 -13  -4    4.42    5.53
  -1  13   4    4.74    8.37
  -1  13   4   28.53    9.80
   1 -13   4   10.07    5.33
   0 -13  -4   -3.12    8.74
   0 -13  -4    0.46    5.58
   0  13  -4   -4.48    8.07
   0 -13   4   -0.65    5.32
   0  13   4   -2.00    9.36
   0  13   4   -4.09    8.90
  -1 -13  -4    7.85    6.42
   1  13  -4   11.24    9.19
  -1 -13  -4    1.51    9.34
   1  13   4    9.44   10.39
   1  13   4    7.37    9.32
  -1 -13   4    3.64    6.02
  -2 -13  -4   63.77   13.24
   2  13   4   62.79   13.35
  -3 -13  -4   -0.29    7.15
   5  13  -4   21.87   10.78
  -5 -13   4    2.71    9.81
  -5 -13   4   -0.27    5.69
   6  13  -4   -0.41   10.16
  -6 -13   4    1.65    6.80
   8 -14  -4    8.24    9.61
   7 -14  -4   14.40   10.90
   6 -14  -4  -16.08   10.23
  -5  14  -4   -8.52    9.08
   5 -14   4    3.19    8.59
   5 -14   4   -1.21    5.91
  -4  14  -4   24.09   10.78
   4 -14   4   22.56   10.65
   4 -14   4    0.80    6.94
  -3  14  -4  -13.80    7.78
   3 -14   4   -4.13    5.39
   3 -14   4    7.95    9.95
  -2  14  -4   -3.51    7.81
   2 -14   4    4.65   10.57
   2 -14   4    1.16    5.26
  -1  14  -4   -4.35    7.97
  -1  14  -4    2.84   11.88
   1 -14   4    6.89    5.39
   1 -14   4    5.20   11.33
   0  14  -4   13.46    9.31
   0 -14   4    0.24    6.31
   0 -14   4   26.68   11.85
   1  14  -4   -0.26    9.97
  -1 -14   4   -0.26    6.11
   2  14  -4   -0.38   12.16
  -2 -14  -4  -17.43   10.15
   2  14  -4    1.35   10.38
   2  14   4   -4.31   10.23
  -2 -14   4   -9.46    6.76
  -3 -14  -4   -4.35    9.91
  -3 -14  -4   -1.56    7.69
   3  14  -4  -12.09   11.27
   3  14  -4    2.77   11.93
   3  14   4   -1.15    9.74
  -3 -14   4    9.22   10.72
  -3 -14   4    0.27    7.10
   4  14  -4    9.45   13.24
   4  14  -4    4.61   12.87
  -4 -14   4    5.10    8.71
   4  14   4   15.97   11.50
   5  14  -4    5.95   11.48
  -5 -14   4    0.29    7.05
  -5 -14   4    5.94   11.12
   6  14  -4   14.31   10.98
  -6 -14   4    0.30    7.16
   8 -15  -4  -10.34   11.38
   7 -15  -4    9.40   11.42
   6 -15  -4    3.13   11.92
   6 -15  -4   17.34    6.37
  -6  15   4    4.40    9.37
   5 -15  -4    9.07    5.61
   5 -15  -4   -4.39   12.05
  -5  15  -4    3.38    9.50
  -5  15   4  -20.49    8.52
   5 -15   4    1.81   10.06
   5 -15   4    3.56    6.31
   4 -15  -4   11.49    5.41
  -4  15  -4    0.30    9.56
   4 -15  -4   -2.09   12.45
   4 -15   4   -2.20   10.93
  -4  15   4   -6.22    7.87
  -4  15   4   -0.34   11.46
   4 -15   4   -0.29    6.06
  -3  15  -4   14.83    8.74
   3 -15  -4   -8.37    5.43
   3 -15  -4   -6.29   12.26
   3 -15   4   21.12    6.15
  -3  15   4   20.20   12.19
  -3  15   4    9.05    8.26
   3 -15   4   -4.66   11.77
  -2  15  -4   -7.89    8.68
   2 -15  -4  -18.54   11.69
   2 -15  -4  -13.30    6.09
   2 -15   4  -10.01    5.96
  -2  15   4   -2.80    8.93
  -2  15   4   20.32   11.70
   2 -15   4    2.16   12.09
   1 -15  -4   -7.65    6.68
   1 -15  -4  -17.25   11.64
  -1  15  -4   -7.67    9.10
  -1  15  -4    5.96   12.99
   1 -15   4    0.26    5.90
  -1  15   4   30.81   11.45
  -1  15   4    0.26   10.45
   1 -15   4   -0.32   12.73
   0 -15  -4   -0.28    7.11
   0  15  -4   -0.41   14.01
   0  15  -4   12.16    9.60
   0 -15  -4    6.02   10.82
   0  15   4    0.37   11.64
   0 -15   4   -4.31   13.47
   0  15   4    9.61   11.50
   0 -15   4    0.27    6.75
  -1 -15  -4    1.82    7.69
  -1 -15  -4   13.98   11.13
   1  15  -4   10.73   11.15
   1  15   4   -8.05   11.30
   1  15   4    5.16   12.25
  -1 -15   4  -11.04    7.00
  -2 -15  -4  -10.09   11.15
  -2 -15  -4    6.43    7.98
   2  15  -4   -7.24   11.43
  -2 -15   4    2.32    7.13
   2  15   4    3.98   11.18
   2  15   4   10.75   12.72
  -3 -15  -4  -10.50   11.10
  -3 -15  -4   -3.72    8.39
   3  15  -4    4.46   12.85
   3  15  -4    6.51   11.98
  -3 -15   4   -1.37   12.08
   3  15   4   10.90   11.16
  -3 -15   4    1.80    7.61
   4  15  -4   -3.15   12.48
  -4 -15  -4    7.93    8.31
   4  15  -4   21.63   13.69
  -4 -15   4    0.70   12.56
  -4 -15   4    3.38    7.44
   4  15   4   -7.56   10.89
   5  15  -4   37.41   13.25
   5  15  -4    0.94   12.65
  -5 -15   4    0.36   11.97
  -5 -15   4   -0.31    7.64
   6  15  -4   10.83   12.49
  -6 -15   4    8.38    8.23
   7 -16  -4   -2.81   12.96
   6 -16  -4  -34.26   13.70
   6 -16  -4   -8.21    6.70
  -5  16  -4   14.02   11.29
   5 -16  -4  -27.68    6.83
  -5  16   4   -6.37   13.62
   5 -16   4   10.54   12.20
   5 -16   4   -5.93    7.30
  -4  16  -4    6.30   10.33
   4 -16  -4   -3.10    6.20
   4 -16  -4    1.67   13.15
  -4  16   4  -12.88    8.92
   4 -16   4    0.32    6.70
   4 -16   4  -13.44   12.66
  -4  16   4   15.90   13.85
   3 -16  -4   -5.09    5.83
  -3  16  -4   -8.93    9.65
   3 -16  -4  -11.40   13.07
  -3  16   4   -8.82   13.44
   3 -16   4   -9.73    6.61
   3 -16   4    3.94   13.11
  -3  16   4   -4.36    9.14
  -2  16  -4   -7.11    9.82
   2 -16  -4    5.90    6.36
   2 -16  -4    7.34   12.95
  -2  16  -4    9.78   14.42
   2 -16   4    5.23   13.77
  -2  16   4    2.09    9.80
   2 -16   4    0.57    6.36
  -2  16   4   -3.11   13.13
  -1  16  -4   11.71   10.06
   1 -16  -4   -5.32   12.49
  -1  16  -4  -15.12   15.18
   1 -16  -4    5.82    7.22
   1 -16   4   15.90   14.69
  -1  16   4  -30.62   13.37
  -1  16   4   17.12   11.62
   1 -16   4   14.23    6.90
   0 -16  -4  -16.03    7.89
   0  16  -4   -6.51   10.91
   0  16  -4    0.91   15.15
   0 -16  -4   -8.84   12.62
   0  16   4   -9.51   13.22
   0  16   4   16.16   12.56
   0 -16   4    4.82   14.26
   0 -16   4   11.61    7.10
   1  16  -4    0.97   12.45
  -1 -16  -4   10.31    8.25
  -1 -16  -4    9.42   12.32
   1  16   4    8.60   13.31
   1  16   4   -4.02   13.75
  -1 -16   4    0.31    7.70
   2  16  -4   16.75   13.35
  -2 -16  -4  -14.01   12.31
  -2 -16  -4    0.35    8.55
  -2 -16   4   -0.32    8.06
   2  16   4   -2.77   13.69
   2  16   4   15.02   12.33
  -3 -16  -4    0.73    8.68
   3  16  -4   -2.54   15.70
   3  16  -4   -9.19   13.22
  -3 -16  -4   -2.22   12.06
  -3 -16   4   16.27   14.25
  -3 -16   4    0.33    7.96
   3  16   4   13.30   14.21
   3  16   4   10.62   12.16
  -4 -16  -4   -5.59    9.18
   4  16  -4  -18.05   15.33
   4  16  -4  -10.32   13.83
  -4 -16   4  -15.69   13.77
  -4 -16   4  -15.68    8.19
   4  16   4  -19.91   12.71
   5  16  -4   12.78   13.54
   5  16  -4    2.11   14.15
  -5 -16   4   -6.44   13.66
  -5 -16   4   -0.34    8.14
   6  16  -4    1.73   13.63
   6  16  -4   10.34   13.55
  -6 -16   4    6.22    8.55
   7 -17  -4    4.20   14.71
   6 -17  -4    1.80   14.73
   6 -17  -4    0.33    6.77
  -6  17   4   -7.68   10.74
  -5  17  -4  -19.44   11.74
   5 -17  -4   10.44    6.31
   5 -17  -4    2.58   14.77
  -5  17   4  -10.11   10.49
  -5  17   4   -4.17   14.68
   5 -17   4   -3.03    7.62
   5 -17   4    9.68   13.60
  -4  17  -4  -23.23   12.45
   4 -17  -4   -0.85    6.25
   4 -17  -4    4.82   14.75
   4 -17   4  -16.53   14.32
  -4  17   4   11.85   14.87
   4 -17   4    3.49    7.24
  -4  17   4   -6.90   10.14
  -3  17  -4    7.95   11.49
   3 -17  -4   -0.28    6.41
   3 -17  -4   -0.75   14.58
   3 -17   4    3.91    6.90
  -3  17   4   -4.29   14.60
  -3  17   4   -5.30   10.18
   3 -17   4  -11.08   14.93
   2 -17  -4  -26.79   15.10
  -2  17  -4   17.64   11.47
  -2  17  -4  -21.77   16.00
   2 -17  -4   -0.30    7.04
   2 -17   4   -6.98    7.21
   2 -17   4  -10.12   15.78
  -2  17   4  -10.42   14.65
  -2  17   4   -3.75   10.84
   1 -17  -4  -24.21    8.75
  -1  17  -4   -7.90   17.38
  -1  17   4  -13.01   15.90
  -1  17   4  -46.40   14.45
   1 -17   4  -20.58    8.75
   0  17  -4  -49.51   18.98
   0 -17  -4  -27.62   15.92
   0 -17  -4  -17.28   10.22
   0  17  -4  -24.69   14.16
   0  17   4  -45.00   17.07
   0  17   4  -18.70   16.34
   1  17  -4  -13.51   14.73
  -1 -17  -4   -8.35    9.65
  -1 -17  -4   -8.14   14.96
   1  17   4    0.37   15.54
  -1 -17   4  -43.23   17.61
  -1 -17   4   -8.61    9.25
   1  17   4  -14.87   15.69
  -2 -17  -4    7.22    9.30
  -2 -17  -4    5.57   13.79
   2  17  -4   43.60   14.28
   2  17   4    6.07   15.28
   2  17   4   -0.49   14.07
  -2 -17   4    5.01    8.52
   3  17  -4  -10.54   15.03
  -3 -17  -4    2.44   13.47
  -3 -17  -4    1.18    9.81
   3  17  -4  -11.41   16.86
   3  17   4    7.26   15.85
   3  17   4    3.57   13.75
  -3 -17   4  -35.40    9.16
   4  17  -4    6.02   14.83
   4  17  -4    3.47   16.55
  -4 -17  -4  -10.42    9.78
  -4 -17   4    0.36    8.84
   4  17   4    2.66   13.32
  -4 -17   4    8.82   15.46
   5  17  -4    7.51   14.63
   5  17  -4  -14.76   16.05
  -5 -17   4  -11.75    8.94
  -5 -17   4   14.27   15.06
   6  17  -4   -1.21   15.52
   6  17  -4   10.15   15.31
  -6 -17   4    2.61    8.88
   6 -18  -4   42.19   19.45
   6 -18  -4   30.10   10.19
  -6  18   4   18.79   14.94
  -6  18   4   21.35   18.27
  -5  18  -4  -34.42   14.48
   5 -18  -4    1.23   17.23
   5 -18  -4    5.08    7.22
  -5  18   4   -0.93   16.43
   5 -18   4   -0.76   15.76
  -5  18   4  -39.73   12.52
   5 -18   4    0.41    8.71
   4 -18  -4   -2.51    6.87
  -4  18  -4    9.50   13.51
   4 -18  -4    7.43   16.48
   4 -18   4  -17.34    8.23
   4 -18   4  -14.63   16.59
  -4  18   4   -6.13   11.56
  -4  18   4   25.90   16.41
  -3  18  -4   19.83   13.10
  -3  18  -4   10.03   17.37
   3 -18  -4    1.28    7.53
   3 -18  -4   -4.56   16.03
   3 -18   4   -3.24    7.75
  -3  18   4    8.16   16.07
   3 -18   4   -4.15   16.42
  -3  18   4   -5.97   11.36
   2 -18  -4   21.11   16.37
  -2  18  -4   17.38   12.96
  -2  18  -4    3.70   18.16
   2 -18  -4    7.63    8.01
  -2  18   4   20.04   12.62
   2 -18   4    2.92    8.30
   2 -18   4   -4.32   17.13
  -2  18   4    1.46   16.49
  -1  18  -4   -2.53   12.93
   1 -18  -4   -0.42   15.69
   1 -18  -4    4.65    8.46
  -1  18  -4    3.84   18.40
  -1  18   4   -0.50   16.18
   1 -18   4   -6.80    8.36
  -1  18   4   -5.09   13.88
   1 -18   4  -32.12   17.51
   0  18  -4    4.57   18.95
   0  18  -4    0.36   13.34
   0 -18  -4   -8.09   15.16
   0 -18  -4  -18.07    9.59
   0  18   4  -21.31   15.67
   0 -18   4   -2.20    8.85
   0 -18   4  -18.21   17.66
   0  18   4   -5.77   16.42
  -1 -18  -4   -5.57    9.88
  -1 -18  -4  -21.99   15.40
   1  18  -4   -5.88   18.43
   1  18  -4   14.59   14.87
  -1 -18   4   40.63   17.52
   1  18   4    0.54   15.82
   1  18   4   -6.54   16.37
  -1 -18   4  -19.03    9.48
  -2 -18  -4   21.60   15.28
  -2 -18  -4   32.66   10.66
   2  18  -4    4.93   15.71
   2  18   4  -15.38   16.89
  -2 -18   4    0.39    9.74
   2  18   4   25.23   16.31
  -3 -18  -4   21.10   15.04
  -3 -18  -4  -19.96   10.32
   3  18  -4    7.87   16.58
  -3 -18   4   -0.39    9.79
   3  18   4   15.86   15.42
   3  18   4   11.66   17.04
   4  18  -4  -27.90   16.43
   4  18  -4  -25.31   19.29
  -4 -18  -4  -20.72   10.70
  -4 -18   4   13.36   10.13
  -4 -18   4  -22.63   17.81
   4  18   4   -7.05   17.28
   5  18  -4   19.19   18.89
   5  18  -4   -1.23   16.71
  -5 -18   4  -11.42   18.11
  -5 -18   4  -43.80   10.81
   6  18  -4   14.71   19.08
   6  18  -4   43.25   20.05
   6 -19  -4    1.78   18.76
   6 -19  -4  -13.49    8.42
  -6  19   4   -4.23   13.28
  -6  19   4   14.15   17.78
   5 -19  -4    0.45   18.69
   5 -19  -4   13.50    8.24
  -5  19  -4  -11.43   14.77
  -5  19   4  -23.94   13.38
   5 -19   4    0.46    9.21
   5 -19   4    2.99   17.09
  -5  19   4    7.23   18.06
  -4  19  -4   12.35   19.18
   4 -19  -4   12.43    8.06
  -4  19  -4    3.39   15.51
   4 -19  -4   19.17   18.61
  -4  19   4   30.20   12.79
  -4  19   4    6.80   18.28
   4 -19   4    0.43    9.19
   4 -19   4    8.46   18.03
  -3  19  -4  -10.62   20.11
  -3  19  -4   21.48   14.60
   3 -19  -4   18.80   18.67
   3 -19  -4    5.35    8.55
  -3  19   4  -15.47   18.19
   3 -19   4   -9.23   18.91
  -3  19   4   14.14   13.19
   3 -19   4   35.03    9.65
   2 -19  -4  -37.84   11.43
   0 -19  -4   22.72   20.76
   0  19  -4  -64.02   25.20
   0 -19  -4  -45.05   13.22
   0  19   4  -41.65   22.39
  -1 -19  -4  -14.51   11.79
  -2 -19  -4  -32.80   13.01
   2  19  -4  -21.95   19.47
   2  19   4  -37.68   20.30
  -2 -19   4  -12.83   12.57
   2  19   4  -40.97   19.91
  -3 -19  -4    0.92   11.41
   3  19  -4    7.25   18.16
  -3 -19  -4  -16.90   16.42
   3  19   4  -10.47   18.28
   3  19   4   24.57   16.69
  -3 -19   4   -4.79   10.52
   4  19  -4    5.88   18.74
   4  19  -4  -12.41   21.16
  -4 -19   4  -19.20   19.31
   4  19   4  -27.97   18.36
  -4 -19   4   16.29   10.54
   5  19  -4  -15.60   20.44
   5  19  -4    0.45   17.81
  -5 -19   4    3.32   18.62
  -5 -19   4  -12.49   10.63
   6  19  -4  -29.41   18.54
   6  19  -4   -5.30   20.40
  -6 -19   4    1.74   10.97
  -6  20   4    3.36   20.19
   5 -20  -4  -17.37    9.13
   5 -20  -4  -14.49   20.16
  -5  20   4   11.85   14.87
  -5  20   4   21.15   19.60
   4 -20  -4    6.28    8.76
   4 -20  -4   15.59   20.16
  -4  20   4   -3.50   19.88
  -4  20   4    5.98   14.62
   3 -20  -4   21.29   19.98
   3 -20  -4   -9.49    9.32
  -3  20  -4  -22.87   16.81
  -3  20   4   -4.50   14.68
  -3  20   4    0.59   19.56
   3 -20   4   11.47    9.94
   2 -20  -4   -9.93   10.00
  -2  20  -4   -8.16   16.22
   2 -20  -4    3.60   19.71
   2 -20   4   -4.64   10.46
  -2  20   4  -21.80   15.47
  -2  20   4  -29.00   20.23
  -1  20  -4   -8.01   16.41
   1 -20  -4   20.02   19.56
   1 -20  -4    0.44   10.49
  -1  20   4    1.93   20.71
   1 -20   4    0.45   10.66
  -1  20   4  -18.59   16.48
   0  20  -4   -7.80   16.50
   0 -20  -4  -15.74   11.60
   0 -20  -4   32.96   20.06
   0 -20   4  -10.97   10.84
   0  20   4    1.91   18.11
   0  20   4    7.23   20.25
   1  20  -4    0.93   17.18
  -1 -20  -4   -2.70   19.01
  -1 -20  -4   10.20   12.22
   1  20   4    8.99   20.04
   1  20   4   35.40   19.77
  -1 -20   4    7.84   11.45
   2  20  -4   16.74   18.66
  -2 -20  -4   15.38   12.51
  -2 -20  -4  -18.51   19.33
   2  20   4   -7.52   19.13
   2  20   4   24.52   19.72
  -2 -20   4   18.78   12.16
  -3 -20  -4    3.00   12.56
   3  20   4   -9.44   19.55
   3  20   4   44.19   18.85
   0   0  -5    0.04    0.42
   0   0  -5    0.05    0.57
   0   0   5   -0.65    0.84
   0  -1  -5    7.40    2.73
   1   0  -5   14.23    2.56
   0   1  -5    9.56    2.63
   1   0  -5    9.65    2.47
   0   1   5   10.39    3.15
  -1   0   5   11.91    2.89
   1   1  -5    0.27    0.52
   1   1  -5    0.13    0.45
   1  -1  -5   -0.03    0.48
   1   1  -5    0.02    0.29
  -1  -1   5   -0.11    0.60
  -1  -1   5    0.11    0.66
  -1   1   5   -0.35    0.72
  -1  -1   5    0.18    0.48
   1  -2  -5   18.24    5.66
   2   1  -5   19.67    4.09
   1  -2  -5   17.77    3.82
   2   1  -5   18.66    5.11
   1  -2  -5   18.99    4.00
  -1   2   5   17.69    4.58
  -2  -1   5   20.98    5.72
  -2  -1   5   14.70    4.30
  -2  -1   5   14.58    4.30
  -1   2   5   15.49    4.93
   0  -2  -5    0.05    0.66
   2   0  -5   -0.07    0.54
   2   0  -5    0.15    0.44
   0   2  -5    0.22    0.87
   0  -2  -5   -0.14    0.42
   0  -2   5   -0.13    0.81
   0  -2   5   -0.04    0.73
  -2   0   5    0.26    0.53
   0   2   5   -0.23    1.04
   1   2  -5   18.19    3.94
   1   2  -5   16.48    3.87
   1   2  -5   17.88    4.62
   2  -1  -5   20.17    3.95
   2  -1  -5   13.87    3.93
  -1  -2   5   13.95    4.15
  -1  -2   5   15.85    4.43
  -1  -2   5   18.10    4.57
  -2   1   5   13.58    4.08
   2   2  -5   -0.34    0.56
   2   2  -5   -0.36    1.28
   2   2  -5    0.04    0.47
   2  -2  -5   -0.14    0.67
   2  -2  -5    0.06    0.44
   2  -2  -5    0.71    0.53
   2  -2  -5    0.25    0.64
  -2   2   5   -0.05    0.67
  -2  -2   5    1.28    1.50
  -2   2   5    0.36    0.64
  -2  -2   5   -0.10    0.50
  -2  -2   5   -0.48    0.90
   2  -3  -5    1.20    0.93
   2  -3  -5    1.67    0.93
   3   2  -5    1.23    1.69
   2  -3  -5    3.56    0.80
   3   2  -5    1.86    0.90
   2  -3  -5    1.38    1.27
  -2   3   5    2.40    1.18
  -3  -2   5    2.75    0.88
   3   1  -5   19.22    4.85
   1  -3  -5   18.01    4.54
   3   1  -5   21.86    4.92
  -1   3  -5    8.81    5.78
   1  -3  -5   22.08    6.35
   1  -3  -5   24.78    4.79
   1  -3  -5   19.88    4.28
  -1   3   5   21.28    5.49
  -1   3   5   20.31    5.31
  -3  -1   5   12.59    4.81
   1  -3   5   15.40    5.21
   3   0  -5    0.43    0.71
   0  -3  -5    0.23    0.55
   0  -3  -5    0.35    0.83
   0   3  -5    0.92    1.14
   3   0  -5    0.07    0.72
   0  -3   5   -0.05    0.96
   0   3   5    0.13    1.20
  -3   0   5    0.48    0.70
   0  -3   5   -0.09    1.25
   0   3   5    0.56    1.33
   1   3  -5   21.63    5.56
   3  -1  -5   24.14    5.09
   1   3  -5   28.44    5.01
   1   3  -5   17.32    4.86
  -1  -3   5   21.29    5.54
  -1  -3   5   22.20    5.68
  -1  -3   5   20.88    5.03
  -3   1   5   18.95    5.12
   2   3  -5    1.84    0.77
   2   3  -5    2.97    1.80
   3  -2  -5    1.61    1.01
   2   3  -5    1.93    0.75
  -2  -3   5    1.90    1.30
  -2  -3   5    2.39    0.76
  -2  -3   5    2.33    1.97
   3  -3  -5   -0.06    1.01
   3  -3  -5    0.71    1.27
   3   3  -5    0.50    2.27
   3  -3  -5    0.55    0.88
  -3  -3   5    0.81    1.69
  -3  -3   5    0.96    2.59
  -3   3   5    0.45    1.03
   3  -4  -5   66.03   16.65
   3  -4  -5   84.77   18.93
  -3   4   5   60.11   18.35
   2  -4  -5   26.74    6.30
   2  -4  -5   24.32    5.94
   2  -4  -5   22.70    5.73
   2  -4  -5   19.58    6.90
  -2   4   5   21.57    6.07
  -2   4   5   23.30    6.77
  -2   4   5   32.69    6.83
   1  -4  -5   89.38   20.21
   1  -4  -5   88.34   21.16
   1  -4  -5   85.56   26.02
   1  -4  -5   90.20   19.16
  -1   4  -5   93.36   25.67
  -1   4   5   86.16   22.99
  -1   4   5   84.46   23.59
   0  -4  -5    0.32    1.02
   0  -4  -5    0.48    0.63
   0  -4  -5    0.08    1.53
   4   0  -5    0.39    0.92
   0   4  -5   -0.90    1.61
   0  -4  -5   -0.24    2.23
   0  -4   5   -0.25    1.20
  -4   0   5    0.36    0.94
   0  -4   5    0.53    1.70
   0   4   5   -0.17    1.72
   0   4   5   -0.53    1.96
   1   4  -5   80.76   22.47
   4  -1  -5   69.14   20.50
  -1  -4   5   89.14   20.03
  -1  -4   5   73.59   23.04
  -4   1   5   93.44   20.66
   4  -2  -5   28.94    6.32
   2   4  -5   25.99    6.18
   2   4  -5   24.92    6.96
  -2  -4   5   22.71    6.42
  -2  -4   5   26.76    7.48
   3   4  -5   65.69   18.26
  -3  -4   5   61.70   19.97
  -3  -4   5   62.72   16.32
   4  -4  -5    0.35    1.69
   4  -4  -5   -2.09    1.54
  -4   4   5   -0.08    1.49
   4  -5  -5    2.12    1.77
   4  -5  -5    0.32    2.40
   4  -5  -5    1.99    1.66
  -4   5   5    1.18    1.60
  -4   5   5    0.61    2.04
   3  -5  -5   15.60    3.50
   3  -5  -5   12.04    4.06
  -3   5   5   10.88    3.86
   2  -5  -5    1.74    2.62
   2  -5  -5    4.56    1.59
   2  -5  -5    2.39    1.79
   2  -5   5    3.63    2.21
  -2   5   5    7.51    2.51
  -2   5   5    3.54    2.09
   1  -5  -5    5.57    1.90
   1  -5  -5    4.85    2.26
   1  -5  -5    4.79    1.63
   1  -5  -5    7.99    3.30
  -1   5   5    9.97    2.61
  -1   5   5    5.16    3.07
   0  -5  -5   12.47    3.64
   0  -5  -5   10.29    2.66
   0  -5  -5   14.20    3.11
   0  -5  -5    9.40    4.79
   0   5   5   11.16    3.98
   0   5   5   10.44    4.29
  -1  -5  -5    7.97    2.01
   1   5   5    7.58    3.45
   5  -3  -5    8.82    3.20
  -5   3   5   11.58    3.23
   5  -4  -5    2.61    1.91
   5  -4  -5    1.48    1.74
   4   5  -5   -0.65    4.07
  -4  -5   5    2.50    4.26
  -5   4   5    2.63    1.75
   5  -5  -5   -0.86    1.97
   5  -5  -5   -0.38    1.86
  -5   5   5    0.22    1.88
   5  -6  -5   -3.76    3.07
   5  -6  -5   -1.96    2.36
   5  -6  -5   -0.30    2.10
  -5   6   5   -0.24    2.18
   4  -6  -5   11.16    2.73
   4  -6  -5    7.09    2.63
  -4   6   5    7.41    2.79
   3  -6  -5   97.24   25.14
  -3   6   5  110.37   26.43
  -3   6   5  118.49   28.85
   2  -6  -5    0.58    1.75
  -2   6  -5    1.67    3.08
  -2   6   5    2.45    2.54
   2  -6   5    1.33    2.27
   2  -6   5   -0.08    2.51
  -1   6  -5   19.30    5.52
   1  -6  -5   13.49    4.29
   1  -6   5   24.47    5.63
   1  -6   5   20.20    4.74
  -1   6   5   13.83    5.49
  -1   6   5   16.48    5.40
   0   6  -5    0.49    2.69
   0  -6  -5   -0.16    0.87
   0  -6  -5    0.08    1.58
   0   6   5    0.57    2.65
   0  -6   5    0.70    1.94
   0  -6   5   -0.63    3.11
  -1  -6  -5   20.76    4.12
   1   6  -5   12.57    5.35
  -1  -6  -5   11.20    6.71
   1   6   5   16.44    6.14
  -1  -6   5   19.14    4.55
  -1  -6   5   16.70    5.85
   2   6  -5    1.59    3.74
   2   6  -5   -0.09    3.34
  -2  -6   5    0.79    2.32
  -2  -6   5   -1.86    3.63
   3   6  -5   94.03   28.52
  -3  -6   5  121.58   26.73
  -3  -6   5  102.66   30.76
   4   6  -5    4.60    4.72
  -4  -6   5    6.31    3.68
  -4  -6   5   11.11    5.42
   6  -5  -5    0.57    2.27
  -5  -6   5   -1.87    3.41
   6  -6  -5   -0.71    2.30
   6  -7  -5    1.88    3.39
   6  -7  -5    1.19    2.54
  -6   7   5    1.66    2.60
   5  -7  -5   -0.16    2.18
   5  -7  -5    3.14    3.55
   5  -7  -5    0.51    2.17
  -5   7   5    2.15    2.38
   4  -7  -5   39.72    6.29
   4  -7  -5   22.68    5.57
   3  -7  -5   -0.36    2.10
   3  -7  -5    0.22    1.70
   3  -7  -5   -0.09    1.49
  -3   7  -5   -0.80    3.73
   3  -7  -5   -1.09    3.63
   3  -7   5    1.42    2.80
  -3   7   5   -1.77    2.56
  -3   7   5   -3.54    3.07
  -3   7   5   -1.52    1.90
  -2   7  -5    2.87    3.88
   2  -7  -5    5.75    2.07
   2  -7  -5    5.83    2.72
   2  -7  -5   11.54    4.37
  -2   7   5   11.34    3.65
  -2   7   5    6.21    2.34
   2  -7   5    8.50    2.99
  -1   7  -5   -0.58    2.94
   1  -7  -5    0.19    2.38
   1  -7  -5   -0.62    3.85
   1  -7   5    1.43    3.48
  -1   7   5   -4.38    3.64
   1  -7   5    3.64    2.35
  -1   7   5    0.62    3.53
   0   7  -5   -3.35    3.30
   0  -7  -5    0.36    2.82
   0  -7  -5   -1.67    4.16
   0   7   5    1.23    3.84
   0  -7   5   -5.16    2.50
   0  -7   5   -3.27    3.98
  -1  -7  -5    0.15    3.05
  -1  -7  -5    0.88    4.44
   1   7  -5    1.29    3.45
   1   7   5    2.15    4.12
  -1  -7   5    0.72    2.42
  -1  -7   5   -1.62    4.15
  -2  -7  -5    0.98    3.59
   2   7  -5    6.46    4.26
   2   7  -5    4.81    4.34
   2   7   5    3.62    4.38
  -2  -7   5    3.34    3.04
  -2  -7   5    7.05    4.51
   3   7  -5    0.16    4.39
  -3  -7   5    0.67    2.98
  -3  -7   5    1.20    4.53
   4   7  -5   -0.97    5.47
  -4  -7   5   -1.78    3.74
  -4  -7   5    4.33    6.33
   5   7  -5    2.07    5.32
  -5  -7   5    2.69    5.60
  -5  -7   5   -0.95    3.59
   7  -8  -5   11.38    4.28
   6  -8  -5   20.50    5.70
   6  -8  -5   11.09    4.28
  -6   8   5   12.54    4.50
   5  -8  -5    1.96    3.09
   5  -8  -5    2.74    4.35
   5  -8  -5    1.26    2.42
   5  -8  -5    0.17    2.53
  -5   8   5    0.14    2.49
  -5   8   5   -0.14    3.94
   4  -8  -5    0.65    4.29
   4  -8  -5    0.63    2.02
   4  -8  -5    3.68    2.64
   4  -8  -5    2.44    2.21
  -4   8   5    1.14    2.16
  -4   8   5   -1.92    3.42
   3  -8  -5    0.11    4.38
   3  -8  -5    2.58    2.41
   3  -8  -5   -0.10    1.66
  -3   8  -5    0.17    4.54
   3  -8  -5    2.16    1.98
   3  -8   5    1.72    3.33
  -3   8   5    8.26    3.35
  -3   8   5    1.23    2.80
  -3   8   5    1.77    2.11
   2  -8  -5    2.75    2.74
   2  -8  -5    6.82    1.67
  -2   8  -5    2.08    3.90
   2  -8  -5    4.09    2.01
  -2   8   5    2.72    3.25
   2  -8   5    5.69    2.84
  -2   8   5   -0.33    2.21
  -2   8   5   -5.14    5.02
  -2   8   5   -8.40    4.09
   1  -8  -5   -2.24    3.47
  -1   8  -5    1.19    3.68
   1  -8  -5   -0.65    1.60
   1  -8   5    4.99    4.51
   1  -8   5   -2.48    2.81
   0   8  -5   16.59    6.48
   1   8  -5    1.51    4.30
  -1  -8  -5   -0.98    4.42
   1   8   5    6.80    5.43
  -1  -8   5   -4.67    3.58
  -1  -8   5   23.58    6.70
   2   8  -5    0.13    4.74
   2   8  -5    5.97    5.01
  -2  -8  -5    3.48    3.88
  -2  -8   5   -5.51    5.58
  -2  -8   5    9.65    3.25
   2   8   5    3.17    5.50
   3   8  -5    1.45    5.22
  -3  -8   5    1.20    5.11
  -3  -8   5    6.24    3.57
   4   8  -5    0.21    5.69
  -4  -8   5    3.42    3.71
  -4  -8   5   -1.05    5.64
   5   8  -5   -0.25    5.94
  -5  -8   5   -0.81    6.34
  -5  -8   5    5.61    4.14
  -6  -8   5    8.82    5.08
   7  -9  -5   19.42    7.10
   7  -9  -5   16.35    5.39
   6  -9  -5   13.74    3.74
   6  -9  -5   11.29    5.58
  -6   9   5    2.93    4.00
   5  -9  -5   25.50    7.22
   5  -9  -5   27.67    9.22
   5  -9  -5   25.81    7.21
   5  -9  -5   34.70    7.74
  -5   9   5   37.09    7.65
  -5   9   5   16.45    8.99
   4  -9  -5   -1.23    2.33
   4  -9  -5    2.65    2.89
   4  -9  -5    1.74    2.40
  -4   9  -5    1.88    5.01
   4  -9  -5    8.26    5.34
  -4   9   5    4.35    2.47
  -4   9   5    4.37    3.90
   4  -9   5   -4.89    4.19
  -3   9  -5    6.64    5.17
   3  -9  -5    4.77    2.54
   3  -9  -5    5.92    5.70
   3  -9  -5    9.55    3.21
   3  -9  -5    9.18    2.67
  -3   9   5    5.80    4.11
  -3   9   5    9.68    3.70
  -3   9   5    6.70    2.88
   3  -9   5    7.75    3.96
  -2   9  -5    1.14    4.41
   2  -9  -5    1.06    2.72
   2  -9  -5    0.52    1.58
   2  -9  -5   -0.08    2.04
   2  -9  -5    8.47    5.45
  -2   9   5    0.09    2.06
  -2   9   5    4.85    4.94
  -2   9   5    1.77    3.18
  -2   9   5    5.61    4.27
   2  -9   5    0.15    3.07
   1  -9  -5    3.34    5.22
   1  -9  -5    0.93    1.39
  -1   9  -5    3.53    3.92
   1  -9  -5    1.03    2.04
   1  -9  -5    0.90    3.04
  -1   9   5   -0.16    4.89
  -1   9   5    2.81    3.44
   1  -9   5    2.71    5.06
  -1   9   5   -2.31    4.63
   1  -9   5    3.83    2.92
   0   9  -5    8.01    4.59
   0  -9  -5   -0.15    5.48
   0  -9  -5   11.93    2.87
   0  -9  -5    3.07    3.96
   0  -9  -5    5.14    2.02
   0  -9   5    2.92    5.61
   0  -9   5    6.89    3.32
   0   9   5   13.90    4.68
   0   9   5    5.28    5.40
   1   9  -5   -2.98    4.79
  -1  -9  -5    1.78    3.96
  -1  -9  -5    1.01    1.38
  -1  -9  -5    1.74    5.70
   1   9  -5   -0.39    5.78
   1   9   5    2.65    5.40
  -1  -9   5   -3.19    5.72
  -1  -9   5    1.93    3.18
  -2  -9  -5   -0.80    5.75
   2   9  -5    1.98    5.76
  -2  -9  -5    0.60    4.19
  -2  -9  -5    3.39    1.75
   2   9  -5    1.78    5.48
  -2  -9   5    0.91    3.50
  -2  -9   5    2.61    5.91
   2   9   5    1.62    5.62
   3   9  -5    1.86    5.89
  -3  -9   5    6.90    4.44
  -3  -9   5    3.39    6.17
   4   9  -5    6.37    6.57
  -4  -9   5    2.87    4.29
  -4  -9   5    0.38    6.38
   5   9  -5   29.90   10.01
  -5  -9   5   28.33   10.40
  -5  -9   5   26.60    8.00
  -6  -9   5   16.07    5.47
   7 -10  -5    7.44    6.43
   7 -10  -5   11.26    4.27
   6 -10  -5   19.61    7.37
   6 -10  -5   36.36    9.86
  -6  10   5   11.28    9.59
   5 -10  -5    0.58    3.06
   5 -10  -5    1.90    3.66
   5 -10  -5   -5.44    6.02
   5 -10  -5    2.31    2.64
  -5  10   5   -2.25    4.98
  -5  10   5    2.68    3.01
  -4  10  -5   30.28   15.48
   4 -10  -5   40.78   15.41
   4 -10  -5   60.08   12.15
   4 -10  -5   51.86   12.55
   4 -10  -5   31.27   12.57
  -4  10   5   62.15   13.69
  -4  10   5   54.53   14.39
   4 -10   5   62.85   12.88
  -4  10   5   53.92   13.30
   4 -10   5   62.63   13.44
   3 -10  -5   -0.92    6.35
   3 -10  -5    1.19    2.38
  -3  10  -5    0.75    5.47
   3 -10  -5    0.50    2.04
   3 -10  -5    2.74    3.12
   3 -10   5    0.90    3.63
  -3  10   5   -1.04    4.11
  -3  10   5    1.51    2.58
  -3  10   5    2.44    3.44
   3 -10   5    5.20    4.92
   2 -10  -5    4.32    2.13
  -2  10  -5    9.46    5.00
   2 -10  -5    3.46    2.44
   2 -10  -5    6.52    3.42
   2 -10  -5   -3.27    6.27
   2 -10   5    2.76    3.62
  -2  10   5   10.90    5.90
  -2  10   5    2.16    5.06
  -2  10   5    6.09    3.90
  -2  10   5    5.92    2.65
  -1  10  -5   26.21    7.39
   1 -10  -5   17.87    6.09
   1 -10  -5   28.27    6.57
   1 -10  -5   20.29    8.74
   1 -10  -5   22.86    5.52
  -1  10   5   16.45    8.30
  -1  10   5   21.24    8.33
   1 -10   5   26.44    6.06
  -1  10   5   13.80    8.04
   0  10  -5    1.45    4.89
   0 -10  -5   -0.57    1.39
   0 -10  -5    0.17    4.07
   0 -10  -5    0.23    2.56
   0 -10  -5   -0.51    6.19
   0  10   5   -3.09    6.42
   0  10   5   -1.20    4.57
   0 -10   5   -2.13    6.58
   0  10   5    3.38    5.62
   0 -10   5   -1.05    3.57
   1  10  -5   25.51    8.48
  -1 -10  -5    9.24    7.59
   1  10  -5   35.28    9.47
  -1 -10  -5   19.11    9.17
  -1 -10  -5   27.97    5.63
  -1 -10   5   23.33    6.65
   1  10   5   24.18    8.77
  -1 -10   5   18.98    9.65
   2  10  -5    8.78    6.48
  -2 -10  -5    7.52    2.22
  -2 -10  -5    7.94    6.65
   2  10  -5    8.67    7.24
  -2 -10  -5    5.49    5.22
  -2 -10   5    8.96    7.17
  -2 -10   5    0.34    4.36
   2  10   5    1.51    6.63
   3  10  -5    5.65    6.68
  -3 -10  -5    3.27    5.18
   3  10  -5    1.66    6.59
   3  10   5   -2.81    6.30
  -3 -10   5   -0.19    4.37
  -3 -10   5   -4.40    6.91
   4  10  -5   31.26   14.55
  -4 -10   5   52.15   12.75
  -4 -10   5   53.14   15.09
   5  10  -5   -5.46    7.65
  -5 -10   5    3.12    4.98
  -5 -10   5   -9.99    7.41
  -6 -10   5   91.47   15.34
   7 -11  -5    4.26    3.59
   7 -11  -5   -0.83    6.81
   6 -11  -5   12.10    7.13
   6 -11  -5    0.51    3.42
  -6  11   5    3.75    6.17
   5 -11  -5   12.39    4.48
   5 -11  -5    5.38    3.87
   5 -11  -5    2.91    7.40
   5 -11  -5    9.03    3.51
  -5  11   5    9.58    4.50
  -5  11   5   10.88    3.97
  -5  11   5    2.11    6.10
   4 -11  -5   31.80    9.16
   4 -11  -5    8.48    4.94
   4 -11  -5    9.75    5.14
   4 -11  -5   16.85    5.38
  -4  11  -5   16.11    8.51
   4 -11   5   35.41    7.39
   4 -11   5   25.77    6.60
  -4  11   5   11.35    5.45
  -4  11   5    9.59    6.12
  -4  11   5   21.83    6.72
   3 -11  -5   14.32    4.83
   3 -11  -5   16.18    4.45
  -3  11  -5   18.44    7.17
   3 -11  -5   14.08    4.46
   3 -11  -5   15.18    8.54
  -3  11   5   19.85    5.81
   3 -11   5   14.65    7.14
   3 -11   5   22.01    5.47
  -3  11   5    6.30    6.14
  -3  11   5   12.97    4.79
   2 -11  -5   31.99   13.06
  -2  11  -5   41.94   11.17
   2 -11  -5   32.69    9.54
  -2  11   5   29.24   11.39
  -2  11   5   39.33   10.37
   2 -11   5   41.13    9.39
  -2  11   5   49.94   12.21
  -2  11   5   31.41   12.36
   1 -11  -5    6.48    4.23
   1 -11  -5    4.35    6.97
  -1  11  -5    3.21    5.32
   1 -11   5    7.92    3.92
  -1  11   5    0.84    6.78
  -1  11   5    5.62    6.30
   0 -11  -5   69.34   30.36
   0  11  -5  126.80   27.95
   0  11   5   90.70   31.40
   0  11   5  120.56   28.33
   0 -11   5  119.74   31.21
   1  11  -5   13.63    6.77
  -1 -11  -5    0.44    5.40
  -1 -11  -5    7.34    7.05
   1  11  -5    1.55    8.16
  -1 -11   5    1.26    8.00
  -1 -11   5    8.59    4.30
   1  11   5   -0.75    7.05
  -2 -11  -5   43.19   11.87
   2  11  -5   46.09   13.56
   2  11  -5   58.40   13.80
  -2 -11  -5   45.16   13.92
   2  11   5   49.32   13.33
  -2 -11   5   39.79   14.04
  -2 -11   5   42.97   11.18
   3  11  -5   28.80    9.33
  -3 -11  -5   12.28    6.87
   3  11  -5    5.36    9.16
  -3 -11   5    1.95    8.84
   3  11   5   38.82    8.81
  -3 -11   5   12.70    6.46
  -4 -11   5   41.19    9.32
   5  11  -5   14.16    8.68
  -5 -11   5    6.10    6.02
  -5 -11   5    5.79    8.62
   6  11  -5    6.20    8.94
  -6 -11   5    1.43    5.69
   8 -12  -5   12.74    8.70
   7 -12  -5   -1.87    7.77
   6 -12  -5   -6.32    8.22
   6 -12  -5   -2.09    4.85
  -6  12   5    1.80    7.03
   5 -12  -5    1.53    4.36
   5 -12  -5    7.14    8.45
  -5  12   5    7.14    6.01
  -4  12  -5    0.25    7.33
   4 -12  -5    7.45    4.01
   4 -12  -5    2.82    8.65
   4 -12   5   11.54    6.55
   4 -12   5   -2.74    5.03
  -4  12   5   -1.26    5.65
  -3  12  -5    8.22    6.83
   3 -12  -5   22.24    8.85
   3 -12  -5   10.76    4.54
   3 -12   5    0.76    7.83
  -3  12   5   25.60    8.81
  -3  12   5    8.44    6.15
   3 -12   5    4.43    5.20
   2 -12  -5   -1.21    4.19
   2 -12  -5    0.82    8.06
  -2  12  -5    1.29    6.11
  -2  12   5   -0.17    6.38
   2 -12   5    0.20    8.26
  -2  12   5   -8.60    7.87
   2 -12   5   -6.29    4.47
   1 -12  -5   32.24   11.69
   1 -12  -5   21.60    8.75
  -1  12  -5   35.99    9.88
   1 -12   5   33.91    8.19
  -1  12   5   30.96   11.07
  -1  12   5   24.94   11.12
   0 -12  -5   -0.21    5.19
   0 -12  -5   -7.68    8.05
   0  12  -5   -6.76    6.92
   0  12   5   -3.90    8.47
   0 -12   5   -4.58    4.72
   0  12   5  -11.88    8.13
   1  12  -5   33.35   12.96
  -1 -12  -5   32.19    9.91
   1  12  -5   56.61   11.71
  -1 -12  -5   31.41   11.66
   1  12   5   44.13   11.48
  -1 -12   5    1.67   12.96
  -1 -12   5   19.09    8.77
  -2 -12  -5    7.45    6.11
  -2 -12  -5  -11.53    8.36
   2  12  -5    3.56    9.28
   2  12  -5   -0.65    8.31
  -2 -12   5   -0.21    5.58
   2  12   5   -6.28    8.02
  -2 -12   5   -6.47    9.64
   3  12  -5    5.95    9.09
  -3 -12  -5    7.67    6.78
   3  12  -5    4.94    9.85
   3  12   5    9.82    8.52
  -3 -12   5    5.64    6.48
  -3 -12   5   31.14   10.33
   4  12  -5    8.85    9.41
   4  12  -5   -9.53    9.31
  -4 -12   5    0.77    9.06
  -4 -12   5    9.47    6.18
   5  12  -5   -0.35    8.17
  -5 -12   5    0.25    6.00
  -5 -12   5   -0.27    6.99
   7 -13  -5   77.44   22.95
   6 -13  -5   -4.91    5.65
   6 -13  -5   -0.22    9.54
  -6  13   5  -12.46    8.50
  -5  13  -5   24.63    9.25
   5 -13  -5   10.86   10.63
   5 -13  -5   13.80    6.24
   5 -13   5   12.35    8.47
  -5  13   5   11.80    8.27
   4 -13  -5    6.31    4.43
   4 -13  -5   13.79    9.83
   4 -13   5    0.21    7.75
  -4  13   5    7.01    6.54
   3 -13  -5   -2.08    9.68
   3 -13  -5    5.81    4.35
  -3  13   5    3.34    6.32
  -3  13   5    0.78    9.25
   2 -13  -5   16.23    7.59
   2 -13  -5   19.89   12.25
  -2  13   5   23.64   10.27
  -2  13   5   11.03   11.51
   1 -13  -5   -3.01    8.74
   1 -13  -5   -3.97    5.19
  -1  13   5    2.70    8.71
  -1  13   5    3.53    8.37
   0 -13  -5   23.05    9.09
   0 -13  -5   31.10   11.80
   0  13   5   37.18   12.25
   0  13   5   22.77   11.76
  -1 -13  -5    1.28    6.30
  -1 -13  -5   -3.82    8.92
   1  13   5   -5.79   10.22
   1  13   5   -4.93    9.23
  -2 -13  -5   25.64   12.13
  -2 -13  -5   62.39   13.85
   2  13   5   74.11   13.77
  -3 -13  -5   -0.29    7.06
  -4 -13   5   -0.28    9.84
   5  13  -5    4.21   11.81
  -5 -13   5   22.17   12.10
  -5 -13   5   49.56    8.69
   6  13  -5  -12.61   10.83
  -6 -13   5    0.27    6.77
   7 -14  -5   -1.94   10.32
  -5  14  -5  -10.02    9.09
   5 -14   5    5.13    8.24
  -4  14  -5  -27.86    9.66
   4 -14   5   -0.27    5.93
   4 -14   5   -1.41    8.99
  -3  14  -5  -19.83    8.52
   3 -14   5   -4.79   10.24
  -2  14  -5   -4.12    7.94
   2 -14   5   -4.65    4.94
   2 -14   5    2.95   10.71
  -1  14  -5    9.04    7.88
   1 -14   5    7.32    5.81
   0  14  -5   -5.14    8.46
   0 -14   5    0.24    6.07
   1  14  -5   -5.26   12.95
   1  14  -5    6.44    9.49
  -1 -14   5    5.81    6.56
  -1 -14   5    4.53   11.81
   2  14  -5    0.76   12.15
  -2 -14  -5    5.05    9.53
   2  14  -5    5.13   10.81
  -2 -14   5   -0.26    6.60
   2  14   5   -5.40   10.08
  -2 -14   5    0.30   11.28
   3  14  -5    5.05   11.18
   3  14  -5  -19.36   12.66
  -3 -14   5  -18.36   11.81
   3  14   5   -2.31    9.93
  -3 -14   5    0.27    7.08
   4  14  -5    0.87   11.57
   4  14  -5   -1.65   11.89
  -4 -14   5    0.28    7.27
  -4 -14   5   -7.88   11.59
   5  14  -5    8.96   11.60
   5  14  -5    4.97   11.55
  -5 -14   5    5.62   11.86
  -5 -14   5    0.29    7.10
   6  14  -5   28.13   11.84
  -6 -14   5    0.29    7.60
  -6 -14   5    8.59   11.20
   7 -15  -5  -22.66   13.06
   6 -15  -5   -2.50    5.87
   6 -15  -5    3.70   12.06
  -6  15   5   -1.40    8.99
  -5  15  -5   10.49   10.10
   5 -15  -5   -3.76   12.70
   5 -15  -5    9.40    5.87
  -5  15   5   10.60    8.38
   5 -15   5   13.04   10.46
  -4  15  -5    0.32    9.74
   4 -15  -5    0.22    5.36
   4 -15  -5   -0.88   12.67
  -4  15   5   -0.66   11.56
   4 -15   5   -2.08    6.04
  -4  15   5    7.84    7.93
   4 -15   5  -10.39   10.64
   3 -15  -5   -2.93   11.39
  -3  15  -5   -2.25    9.05
   3 -15  -5    4.71    5.58
  -3  15   5   -1.71    8.11
   3 -15   5   14.33   11.58
  -3  15   5   25.99   12.05
   3 -15   5    4.03    5.82
   2 -15  -5    3.13    5.90
  -2  15  -5   -9.99    8.46
   2 -15  -5    0.29   11.29
  -2  15   5    0.24    8.99
  -2  15   5   13.47   11.22
   2 -15   5   10.32    5.96
   2 -15   5    1.52   11.60
   1 -15  -5  -20.14    7.03
   1 -15  -5    4.94   11.26
  -1  15  -5  -10.93    9.05
   1 -15   5  -23.32    6.53
   1 -15   5  -12.86   12.73
  -1  15   5   -5.25   10.53
  -1  15   5   -1.74   11.49
   0 -15  -5  -15.26   11.09
   0  15  -5   -1.31    9.33
   0 -15  -5    2.83    7.26
   0  15   5   11.25   11.37
   0  15   5   15.10   11.87
   0 -15   5    0.27    6.63
   1  15  -5    1.15   10.80
  -1 -15  -5    2.45    7.64
  -1 -15  -5   -7.77   11.02
   1  15  -5   21.56   14.50
   1  15   5   -4.89   12.31
  -1 -15   5   -0.28    7.27
   1  15   5    0.38   11.50
  -2 -15  -5    0.65    7.85
  -2 -15  -5   11.06   11.02
   2  15  -5   -0.30   11.83
   2  15  -5  -21.14   14.16
  -2 -15   5  -28.15    7.41
   2  15   5   10.53   13.68
  -2 -15   5    1.69   12.78
   2  15   5   11.91   11.12
   3  15  -5    3.61   13.80
  -3 -15  -5    5.13    8.75
  -3 -15  -5   -7.84   10.86
   3  15  -5   -0.31   11.90
  -3 -15   5    1.04   12.63
  -3 -15   5    0.30    7.26
   3  15   5   -5.05   10.91
   4  15  -5   -1.26   12.49
   4  15  -5   -2.80   13.27
  -4 -15   5    4.96   12.59
  -4 -15   5    0.30    7.32
   5  15  -5   24.24   13.38
   5  15  -5    0.95   13.52
  -5 -15   5    0.31    7.77
  -5 -15   5    2.92   12.72
   6  15  -5   -5.92   12.78
  -6 -15   5  -10.52   12.15
  -6 -15   5  -11.40    7.86
  -7  16   5    9.84    9.82
   6 -16  -5  -11.84   13.35
   6 -16  -5   -6.54    6.53
  -6  16   5    9.48    9.62
  -5  16  -5   21.32   17.25
   5 -16  -5   53.35   12.30
   5 -16   5    8.56   12.34
  -5  16   5   80.07   19.45
   5 -16   5   35.54   17.09
   4 -16  -5   -4.58   13.17
   4 -16  -5   -9.39    5.84
  -4  16  -5    1.07   11.02
  -4  16   5  -12.41    8.88
   4 -16   5   -3.57    7.11
  -4  16   5  -19.28   13.10
   4 -16   5    9.73   11.99
   3 -16  -5   15.70   12.83
  -3  16  -5  -12.87   10.09
   3 -16  -5   -5.96    6.13
   3 -16   5   -0.30    6.41
  -3  16   5   10.83   13.08
   3 -16   5   13.57   13.02
  -3  16   5   -0.24    8.90
   2 -16  -5    0.27    6.73
  -2  16  -5  -14.69    9.76
   2 -16  -5  -16.60   12.42
  -2  16   5   10.97   10.31
   2 -16   5   -4.14    6.55
   2 -16   5    2.73   13.69
  -2  16   5    9.44   12.78
   1 -16  -5    8.84   12.57
   1 -16  -5    4.69    7.08
  -1  16  -5    5.04    9.97
  -1  16  -5    9.75   15.29
   1 -16   5  -27.64   14.13
  -1  16   5   -4.44   11.74
   1 -16   5    0.29    6.63
  -1  16   5   -5.86   12.45
   0 -16  -5   -7.75   11.90
   0 -16  -5    0.94    7.77
   0  16  -5    2.02   10.67
   0  16   5  -12.31   12.58
   0 -16   5    0.30    7.00
   0  16   5   13.08   13.03
   1  16  -5   -0.32   11.79
  -1 -16  -5    2.75   12.50
  -1 -16  -5    1.69    8.38
  -1 -16   5   -9.90    7.63
   1  16   5    6.75   13.83
   1  16   5   -5.92   12.59
  -2 -16  -5  -14.99   12.14
   2  16  -5    0.33   12.72
  -2 -16  -5  -24.09    9.12
   2  16  -5  -11.64   15.40
   2  16   5  -12.57   14.70
   2  16   5   -7.90   12.47
  -2 -16   5    0.38   14.47
  -2 -16   5    0.32    7.95
   3  16  -5    6.87   13.37
   3  16  -5   15.78   15.84
  -3 -16  -5  -17.06   12.06
  -3 -16  -5   11.78    9.07
  -3 -16   5  -16.62   14.03
   3  16   5   -3.23   11.84
  -3 -16   5   -8.12    7.82
   4  16  -5    9.68   13.63
   4  16  -5   -8.89   14.88
  -4 -16   5    3.95   14.03
  -4 -16   5    0.33    8.35
   5  16  -5   27.03   19.03
   5  16  -5   26.06   19.63
  -5 -16   5   16.98   18.89
  -5 -16   5    8.42   12.94
   6  16  -5   -3.13   14.38
   6  16  -5  -12.59   14.42
  -6 -16   5   -3.30   13.33
  -6 -16   5    0.34    7.81
   6 -17  -5   19.75   15.19
   6 -17  -5   14.39    7.30
  -6  17   5    2.83   14.45
  -6  17   5    4.01   10.37
   5 -17  -5   10.53    6.41
  -5  17  -5   -3.76   12.17
   5 -17  -5   -6.89   14.95
  -5  17   5   13.47   14.16
   5 -17   5   42.18   13.65
   5 -17   5   11.21    7.99
  -5  17   5  -13.59   10.01
   4 -17  -5   -9.49   14.29
  -4  17  -5   -9.48   12.68
   4 -17  -5   -3.64    6.35
   4 -17   5    0.36    7.20
  -4  17   5   -3.27    9.63
  -4  17   5   18.21   14.50
   4 -17   5   -9.28   13.82
  -3  17  -5   13.71   11.49
   3 -17  -5    6.15    6.74
   3 -17  -5   -1.82   14.27
  -3  17   5    5.83   14.21
   3 -17   5  -10.54   14.78
  -3  17   5   17.53   10.07
   3 -17   5    0.34    7.08
  -2  17  -5    2.59   10.62
  -2  17  -5  -15.03   16.04
   2 -17  -5  -38.46   14.54
   2 -17  -5   -5.93    7.32
   2 -17   5    0.38   15.05
  -2  17   5    8.48   13.79
  -2  17   5   12.87   11.32
   2 -17   5    0.33    7.15
  -1  17  -5   -4.45   16.87
   1 -17  -5   -5.17    8.25
   1 -17  -5   -5.85   13.30
  -1  17  -5   -1.61   11.62
   1 -17   5   -8.37   15.67
  -1  17   5  -22.43   13.17
  -1  17   5   11.56   14.47
   1 -17   5   -3.85    7.34
   0  17  -5    4.21   12.47
   0 -17  -5  -44.89   14.83
   0 -17  -5    4.87    9.00
   0 -17   5  -50.43   16.92
   0  17   5  -28.00   14.63
   0  17   5    7.45   14.46
   0 -17   5  -13.51    8.41
   1  17  -5    6.01   13.14
  -1 -17  -5    1.10    9.20
  -1 -17  -5  -32.36   14.13
   1  17   5  -12.23   14.49
  -1 -17   5    6.86    8.22
   1  17   5   -3.34   15.01
   2  17  -5    9.95   17.21
  -2 -17  -5  -23.41    9.92
  -2 -17  -5  -20.45   13.15
   2  17  -5   14.13   14.36
   2  17   5    2.29   15.67
  -2 -17   5   -0.35    8.70
   2  17   5   30.13   14.04
   3  17  -5  -42.20   18.32
  -3 -17  -5    1.19    9.93
   3  17  -5    9.02   14.83
  -3 -17   5    6.10    8.93
   3  17   5  -24.24   16.01
   3  17   5   -1.01   13.27
  -3 -17   5   -0.44   15.75
   4  17  -5   -7.93   14.39
   4  17  -5   19.95   17.13
  -4 -17   5  -21.56   15.83
  -4 -17   5    8.64    8.85
   5  17  -5  -10.13   16.35
   5  17  -5   -7.56   15.15
  -5 -17   5   10.32   15.73
  -5 -17   5  -26.21    8.79
   6  17  -5   -9.76   15.59
   6  17  -5    3.78   14.87
  -6 -17   5   22.35   15.01
  -6 -17   5    0.37    9.23
  -6  18   5    3.59   16.35
   5 -18  -5  -41.38   18.74
   5 -18  -5  -18.03    8.01
  -5  18   5    2.73   16.95
  -5  18   5  -13.73   13.04
   4 -18  -5    3.70    6.78
   4 -18  -5   11.31   16.16
  -4  18  -5   -5.73   13.51
  -4  18   5  -13.62   11.27
   4 -18   5   18.06    8.66
  -4  18   5   -4.61   15.44
   4 -18   5    1.55   15.33
  -3  18  -5   10.50   17.28
   3 -18  -5   -0.40   15.99
  -3  18  -5    3.95   12.80
   3 -18  -5    5.26    7.27
  -3  18   5   12.62   15.85
  -3  18   5  -18.28   11.44
   3 -18   5    8.57    8.00
   3 -18   5  -25.76   16.59
  -2  18  -5   11.52   18.27
  -2  18  -5   -3.03   12.62
   2 -18  -5   15.05   15.26
   2 -18  -5   10.53    8.10
  -2  18   5    8.68   15.65
   2 -18   5   -2.56    7.68
   2 -18   5  -33.25   16.84
  -2  18   5   19.28   12.37
  -1  18  -5   12.65   18.63
  -1  18  -5   -3.27   12.45
   1 -18  -5  -10.29   15.69
   1 -18  -5   16.05    8.71
  -1  18   5    1.00   15.94
   1 -18   5   -6.22    8.43
   1 -18   5   29.21   17.47
  -1  18   5    1.82   14.08
   0  18  -5   10.63   12.88
   0  18  -5   -6.84   19.67
   0 -18  -5   -2.94   15.42
   0 -18  -5    3.09    9.80
   0  18   5  -20.58   15.80
   0 -18   5    1.10    8.28
   0 -18   5  -30.50   18.36
   0  18   5   -7.44   15.71
  -1 -18  -5    8.55   15.22
  -1 -18  -5   20.46   10.27
   1  18  -5    1.54   13.97
   1  18   5   -5.24   15.55
  -1 -18   5    0.38    9.02
   1  18   5   11.92   16.50
  -2 -18  -5  -13.91   14.83
  -2 -18  -5   -4.60   10.26
   2  18  -5    3.28   15.89
   2  18  -5    1.24   19.66
   2  18   5   19.64   17.17
   2  18   5    7.56   15.16
  -2 -18   5    5.04    9.14
  -3 -18  -5   24.10   10.70
   3  18  -5   16.22   19.49
   3  18  -5    0.41   16.59
   3  18   5   19.57   14.67
   3  18   5    2.93   16.87
  -3 -18   5  -30.02   17.76
  -3 -18   5  -29.77    9.63
   4  18  -5    4.99   16.47
   4  18  -5  -19.10   19.23
  -4 -18   5    5.94   17.43
  -4 -18   5    1.17    9.65
   5  18  -5  -41.43   20.97
   5  18  -5  -36.25   18.71
   6  18  -5   -8.62   17.69
   6  18  -5  -33.42   19.22
   5 -19  -5   17.82   18.52
   5 -19  -5    8.20    7.77
  -5  19  -5   13.79   15.36
  -5  19   5   12.10   17.64
  -5  19   5    1.53   12.58
   5 -19   5    1.68   16.73
   4 -19  -5    7.84    7.97
  -4  19  -5    0.49   15.17
   4 -19  -5   10.30   18.02
  -4  19   5   28.12   13.09
   4 -19   5   10.46   17.97
  -4  19   5   -8.73   17.73
   4 -19   5   11.39    9.98
  -3  19  -5   28.92   19.07
   3 -19  -5   -9.85   17.84
   3 -19  -5  -10.20    8.42
  -3  19  -5  -16.79   14.90
   3 -19   5  -10.76    8.91
  -3  19   5   -1.04   17.64
   3 -19   5   -4.11   18.68
  -3  19   5   -6.98   13.01
   2 -19  -5   30.28   17.93
  -2  19  -5   -8.16   14.61
   2 -19  -5   24.10    8.77
  -2  19  -5    1.17   20.36
   2 -19   5  -14.61    9.35
   2 -19   5   22.68   18.89
  -2  19   5  -51.83   18.37
  -2  19   5    1.08   13.80
   1 -19  -5  -18.16   11.15
  -1  19  -5  -42.48   17.32
   1 -19   5  -39.90   11.31
   0 -19  -5  -60.23   20.90
   0 -19  -5  -37.14   13.20
   0  19   5  -57.61   20.81
   0  19   5   -1.15   20.43
  -1 -19  -5    4.43   12.12
   1  19  -5  -15.91   17.70
  -1 -19   5  -17.06   11.79
   1  19   5  -42.78   19.67
   2  19  -5   -7.61   17.33
  -2 -19  -5  -14.92   16.61
  -2 -19  -5   18.63   11.54
   2  19   5   15.52   18.09
  -2 -19   5   11.05   10.75
   2  19   5  -17.42   16.26
  -3 -19  -5    0.93   11.66
   3  19  -5    6.57   21.89
   3  19  -5  -13.74   18.07
   3  19   5   -4.57   18.31
  -3 -19   5   -0.43   11.10
  -3 -19   5   16.85   19.89
   3  19   5  -29.12   16.20
   4  19  -5  -10.34   21.18
   4  19  -5   23.99   18.25
  -4 -19   5    2.15   10.90
  -4 -19   5   30.93   20.22
   5  19  -5    0.75   20.77
   5  19  -5    1.34   18.00
  -5 -19   5    3.85   11.00
  -5 -19   5    1.11   19.19
   6  19  -5    3.58   17.69
   6  19  -5   -5.35   19.55
  -6 -19   5    2.16   10.72
  -5  20   5  -17.32   20.09
   4 -20  -5   13.32   19.51
   4 -20  -5   -1.93    8.65
  -4  20   5    3.42   19.43
  -4  20   5   12.45   14.18
   3 -20  -5   16.47   20.35
   3 -20  -5   10.93    9.91
  -3  20   5    1.77   19.93
  -3  20   5   21.36   15.48
   2 -20  -5    9.64   19.62
   2 -20  -5   -3.23    9.96
  -2  20  -5  -28.70   16.34
   2 -20   5   -6.04   10.27
  -2  20   5    3.06   20.29
  -2  20   5    0.41   15.35
   1 -20  -5   45.60   19.46
  -1  20  -5   -0.47   16.93
   1 -20  -5  -18.23   10.74
  -1  20  -5   -0.67   18.21
   1 -20   5   -9.97   10.63
  -1  20   5    3.14   19.32
  -1  20   5   11.41   16.91
   0  20  -5   -4.25   20.11
   0  20  -5  -24.00   17.88
   0 -20  -5   18.99   11.15
   0 -20  -5    3.67   18.97
   0 -20   5   -0.56   16.44
   0  20   5    2.86   18.66
   0 -20   5    4.10   11.05
   0  20   5  -10.88   19.43
  -1 -20  -5    0.53   18.04
  -1 -20  -5    0.98   12.15
   1  20  -5    0.46   17.35
  -1 -20   5  -12.87   11.25
   1  20   5  -15.01   19.06
   1  20   5   22.32   19.84
   2  20  -5   -3.86   18.45
  -2 -20  -5   18.30   12.86
  -2 -20  -5   -7.47   17.91
   2  20   5   29.67   20.47
   2  20   5   48.17   19.05
  -3 -20  -5   42.47   13.54
   3  20   5    3.44   18.27
   3  20   5   -6.49   20.83
   0   0  -6    0.06    0.72
   0   0  -6    0.15    0.51
   0   0   6    0.49    1.11
   1   0  -6   -0.10    0.38
   0  -1  -6    0.06    0.80
   1   0  -6   -0.22    0.57
   0   1  -6   -0.10    0.55
   0  -1  -6   -0.21    0.54
   0   1   6   -0.36    1.13
  -1   0   6   -0.25    0.82
   1   1  -6   17.94    5.33
   1   1  -6   15.88    4.21
   1   1  -6   17.81    4.28
   1  -1  -6   23.69    4.12
  -1  -1   6   15.86    5.27
  -1  -1   6   18.42    4.46
  -1   1   6   15.63    4.88
  -1  -1   6   19.32    4.88
   2   1  -6    3.11    0.97
   1  -2  -6    4.84    1.08
   1  -2  -6    4.03    1.17
   2   1  -6    3.51    1.00
   2   1  -6    3.34    1.36
  -2  -1   6    3.79    1.04
  -2  -1   6    2.46    1.61
  -1   2   6    4.35    1.48
  -2  -1   6    2.15    1.03
   0   2  -6   30.65   10.48
   2   0  -6   45.92    9.97
   0  -2  -6   57.50    9.66
   2   0  -6   48.86    9.86
   0   2  -6   17.32   12.21
   0  -2  -6   58.72   10.35
  -2   0   6   41.79   10.85
   0   2   6   48.47   11.81
   0  -2   6   42.77   11.52
   2  -1  -6    3.06    1.04
   2  -1  -6    5.03    0.97
   1   2  -6    2.80    1.32
   1   2  -6    2.90    0.88
   1   2  -6    4.16    1.03
  -2   1   6    2.84    1.26
  -1  -2   6    3.84    1.26
  -1  -2   6    3.25    1.44
  -1  -2   6    1.87    1.17
   2  -2  -6  175.87   46.54
   2   2  -6  186.07   52.26
   2   2  -6  181.70   46.89
   2   2  -6  222.55   49.38
  -2   2   6  178.72   51.95
  -2  -2   6  218.11   48.09
  -2  -2   6  215.33   57.12
  -2  -2   6  236.79   50.12
   2  -3  -6   33.08    9.50
   3   2  -6   35.03    8.54
   3   2  -6   40.99   10.38
   3   2  -6   39.36    8.55
   2  -3  -6   39.68    7.74
   2  -3  -6   34.87    8.70
   2  -3  -6   37.63    8.01
  -2   3   6   34.28    8.96
  -3  -2   6   37.18    8.91
  -2   3   6   29.24    9.20
  -3  -2   6   35.17    8.54
  -3  -2   6   33.38   11.36
   1  -3  -6   11.67    2.92
   1  -3  -6   13.65    3.40
   1  -3  -6   13.50    3.11
   3   1  -6   14.30    3.30
   1  -3  -6   14.43    4.62
   3   1  -6    7.89    3.26
  -3  -1   6   12.36    3.36
  -1   3   6   13.97    4.04
  -1   3   6   15.01    3.73
   1  -3   6   11.69    3.50
   3   0  -6    0.31    0.78
   0  -3  -6    0.11    0.65
   3   0  -6   -0.14    0.87
   0   3  -6   -0.79    1.32
   0  -3  -6    0.20    1.02
   0   3   6    0.06    1.56
  -3   0   6   -0.45    0.84
   0  -3   6    0.36    1.06
   0  -3   6   -0.24    1.38
   1   3  -6   15.66    3.86
   1   3  -6   15.09    3.45
   3  -1  -6   12.15    3.35
   3  -1  -6   15.54    3.35
   1   3  -6   12.67    3.20
  -1  -3   6   14.28    3.96
  -1  -3   6   12.36    3.42
  -3   1   6   18.97    3.46
  -1  -3   6   12.74    3.82
   2   3  -6   39.86    8.69
   2   3  -6   31.73    8.27
   2   3  -6   27.77    9.08
   3  -2  -6   35.27    7.87
   2   3  -6   30.68    7.75
   3  -2  -6   37.02    9.98
  -2  -3   6   23.13    9.29
  -2  -3   6   36.76    8.44
  -2  -3   6   32.94    8.45
  -2  -3   6   28.79    7.97
   3  -3  -6   -0.41    1.14
   3  -3  -6    0.58    1.30
   3   3  -6    0.28    2.49
   3   3  -6    0.13    0.91
   3   3  -6    0.19    0.89
  -3  -3   6    0.27    1.70
  -3  -3   6   -1.86    2.79
  -3  -3   6   -0.48    0.90
  -3   3   6   -0.11    1.10
   3  -4  -6   19.61    5.71
   3  -4  -6   14.77    5.21
  -3   4   6   20.48    5.70
   2  -4  -6   66.94   21.83
   2  -4  -6   96.15   19.44
   2  -4  -6   91.91   18.54
  -2   4   6   91.53   20.91
  -2   4   6   52.58   20.79
   1  -4  -6   24.62    6.26
   1  -4  -6   32.28    7.05
  -1   4  -6   20.33    8.76
   1  -4  -6   28.82    6.62
   1  -4  -6   24.80    9.31
  -1   4   6   30.96    7.85
  -1   4   6   28.98    8.20
   1  -4   6   30.18    7.73
   1  -4   6   37.39    7.26
   0  -4  -6    2.40    1.03
   0  -4  -6    2.93    1.39
   0   4  -6    2.37    1.85
   4   0  -6    2.20    1.33
   4   0  -6    3.11    1.41
   0   4   6    3.06    2.05
   0   4   6    2.32    2.14
   0  -4   6    2.36    1.47
  -4   0   6    3.16    1.28
   0  -4   6    2.36    2.07
   4  -1  -6   36.13    7.11
   1   4  -6   27.38    6.87
   1   4  -6   25.67    7.75
  -1  -4   6   25.94    8.04
  -1  -4   6   31.02    8.06
  -1  -4   6   34.04    6.93
   2   4  -6   83.81   18.55
   2   4  -6   64.28   20.24
   2   4  -6   72.19   21.42
   2   4  -6   89.03   19.83
  -2  -4   6   80.46   21.53
  -2  -4   6   84.99   18.72
  -2  -4   6   66.57   20.06
  -2  -4   6   79.35   19.83
   4  -3  -6   20.70    6.09
   4  -3  -6   24.16    5.24
   3   4  -6   23.68    5.56
   3   4  -6   24.19    6.55
  -3  -4   6   22.62    5.74
  -4   3   6   23.63    5.37
  -3  -4   6   21.59    7.06
   4  -4  -6   13.59    3.08
   4  -4  -6   13.89    3.18
   4  -4  -6    8.94    3.92
  -4  -4   6    8.90    3.76
  -4   4   6   11.85    3.28
   4  -5  -6   32.66    7.91
   4  -5  -6   27.88    6.28
   4  -5  -6   24.13    6.45
  -4   5   6   31.06    6.57
  -4   5   6   12.17    7.49
   3  -5  -6   83.10   20.74
   3  -5  -6   92.46   20.25
   3  -5  -6   96.49   22.65
   3  -5  -6   71.37   23.79
  -3   5   6   91.76   23.92
   2  -5  -6   35.00   10.41
   2  -5  -6   33.76    8.91
  -2   5  -6   13.53   11.23
   2  -5   6   39.07    9.66
  -2   5   6   38.54    9.75
  -2   5   6   40.39    9.55
   1  -5  -6   34.84    8.12
   1  -5  -6   39.11    7.66
   1  -5  -6   20.00   10.25
  -1   5   6   40.74    9.11
  -1   5   6   31.40    9.15
   0  -5  -6   -1.07    2.26
   0  -5  -6   -1.22    3.23
   0  -5  -6    2.33    0.91
   0  -5  -6   -0.72    1.57
   0   5   6   -0.29    2.54
   0   5   6    0.44    2.91
  -1  -5  -6   42.02    8.24
   2   5  -6   40.03    9.11
   5  -2  -6   38.03    9.22
  -2  -5   6   35.01    9.80
   5  -3  -6   93.38   22.49
   5  -3  -6  108.94   22.32
   3   5  -6  103.90   24.57
   5  -4  -6   29.19    6.70
   4   5  -6   27.82    8.70
   5  -4  -6   30.29    6.70
  -5   4   6   26.24    6.72
  -4  -5   6   25.31    9.46
   5  -5  -6    1.89    1.96
   5  -5  -6    1.14    1.86
   5  -5  -6    0.07    2.36
  -5  -5   6    0.87    2.90
  -5   5   6    0.22    1.90
   5  -6  -6   10.11    2.78
   5  -6  -6    7.07    2.91
  -5   6   6    3.42    2.78
   4  -6  -6   37.15    8.36
   4  -6  -6   35.13    8.15
  -4   6   6   28.12    8.49
   3  -6  -6   16.88    3.35
   3  -6  -6   12.75    3.67
   3  -6  -6   16.71    3.54
  -3   6   6    9.68    3.57
  -3   6   6   14.21    4.11
  -3   6   6   14.46    4.11
   2  -6  -6   74.15   14.46
  -2   6  -6   48.37   19.59
   2  -6   6   64.03   16.14
   2  -6   6   42.59   17.10
  -2   6   6   67.45   16.75
  -1   6  -6   -1.69    2.95
   1  -6  -6    0.42    2.01
   1  -6   6   -0.94    2.72
   1  -6   6   -0.94    2.06
   0   6  -6    3.71    2.86
   0  -6   6    7.87    2.35
   0  -6   6    2.51    3.51
   1   6  -6   -0.17    2.81
  -1  -6   6    1.05    1.98
   1   6   6   -2.57    3.62
  -1  -6   6    0.77    3.49
   2   6  -6   72.14   18.74
   2   6  -6   76.20   18.01
  -2  -6   6   67.35   18.77
  -2  -6   6   65.17   16.34
   3   6  -6   12.04    4.93
   3   6  -6   12.87    3.26
  -6   3   6    6.79    3.50
  -3  -6   6   12.38    4.00
  -3  -6   6   12.11    5.44
   4   6  -6   36.05   10.76
   6  -4  -6   31.45    8.70
  -4  -6   6   48.88   11.44
  -4  -6   6   39.35    9.36
  -6   4   6   33.99    8.84
   6  -5  -6    0.17    2.35
   6  -5  -6   -0.46    2.22
   5   6  -6    4.17    5.28
  -5  -6   6   -0.14    3.47
  -6   5   6    2.79    2.48
   6  -6  -6    1.51    2.50
   6  -6  -6    2.82    2.96
   6  -6  -6    4.86    2.54
  -6   6   6    3.91    2.59
   6  -7  -6    3.70    2.63
   6  -7  -6    5.37    3.67
   6  -7  -6    0.19    2.64
  -6   7   6    2.37    2.73
   5  -7  -6    0.55    3.55
   5  -7  -6    1.87    2.40
   5  -7  -6    3.40    2.35
  -5   7   6    2.89    2.54
  -5   7   6    0.11    3.20
   4  -7  -6    1.06    4.17
   4  -7  -6    7.97    2.63
   4  -7  -6    3.86    2.19
   4  -7  -6    2.85    2.28
  -4   7   6    2.74    3.62
  -4   7   6    7.86    2.48
  -3   7  -6    7.14    7.24
   3  -7  -6   24.36    5.25
   3  -7  -6   23.75    5.43
   3  -7  -6   27.34    5.64
  -3   7   6   37.05    6.33
  -3   7   6   22.86    5.62
  -3   7   6   22.01    6.50
   2  -7  -6   15.23    4.28
   2  -7  -6   14.61    6.30
   2  -7  -6   29.17    4.68
  -2   7  -6   14.66    6.35
   2  -7  -6   13.44    4.58
  -2   7   6   11.47    5.79
   2  -7   6   14.80    5.56
   2  -7   6   20.97    5.17
  -2   7   6   15.56    5.60
  -2   7   6   28.68    5.50
  -1   7  -6    2.02    3.28
   1  -7  -6   10.13    2.02
   1  -7  -6    3.52    1.53
   1  -7  -6    2.16    2.67
   1  -7  -6   -1.81    4.36
  -1   7   6    8.58    3.69
   1  -7   6    7.50    3.62
   1  -7   6    7.34    2.60
  -1   7   6    1.55    3.89
   0  -7  -6   12.50    4.48
   0  -7  -6    0.06    1.18
   0  -7  -6    1.49    2.89
   0   7  -6    3.43    3.08
   0   7   6   -0.88    4.16
   0  -7   6    3.70    3.75
   0  -7   6   -0.41    2.38
  -1  -7  -6   -0.08    1.51
   1   7  -6    5.55    3.56
  -1  -7  -6    4.41    3.27
  -1  -7  -6    4.31    4.72
   1   7   6    3.61    4.34
  -1  -7   6    2.07    2.56
  -1  -7   6    2.79    4.42
   2   7  -6   12.33    5.88
   2   7  -6    8.40    6.07
  -2  -7   6   11.95    6.31
  -2  -7   6   18.13    4.70
   3   7  -6   17.52    6.89
   3   7  -6   19.08    5.11
  -3  -7   6   21.65    7.33
  -3  -7   6   24.26    5.85
   4   7  -6    4.91    5.30
  -4  -7   6    9.30    3.80
  -4  -7   6    4.94    5.49
   5   7  -6    1.56    5.47
  -5  -7   6    5.78    5.84
  -5  -7   6    3.74    3.54
  -6  -7   6   -2.55    3.97
   7  -7  -6   15.89    4.89
   7  -8  -6    1.86    4.43
   7  -8  -6    3.24    3.13
   6  -8  -6    8.23    4.40
   6  -8  -6    2.00    2.79
   6  -8  -6    1.23    2.88
  -6   8   6    3.00    3.00
   5  -8  -6    2.03    2.48
   5  -8  -6    2.03    4.31
   5  -8  -6    1.82    2.63
   5  -8  -6    4.08    3.14
  -5   8   6    4.18    2.66
  -5   8   6    0.40    4.12
   4  -8  -6   -0.27    2.29
   4  -8  -6   -1.69    4.51
   4  -8  -6    0.09    2.12
   4  -8  -6    0.35    2.54
  -4   8   6    0.21    3.53
  -4   8   6    1.28    2.36
   3  -8  -6    0.10    1.80
   3  -8  -6    2.85    2.07
  -3   8  -6   -1.09    4.66
   3  -8  -6    0.90    2.41
   3  -8  -6    2.50    4.39
  -3   8   6    2.65    3.33
  -3   8   6    2.56    2.18
  -3   8   6    1.22    3.12
   3  -8   6   -0.54    3.42
   2  -8  -6   10.42    3.47
   2  -8  -6    9.68    3.14
  -2   8  -6   15.03    5.41
   2  -8  -6   15.85    3.73
   2  -8  -6   16.77    5.73
  -2   8   6    8.67    3.50
   2  -8   6   16.32    4.22
  -2   8   6   14.47    4.84
  -2   8   6    9.49    4.62
   2  -8   6   12.32    4.80
  -2   8   6   10.94    5.38
   1  -8  -6   -0.85    1.41
  -1   8  -6   -2.64    3.61
   1  -8  -6   -1.82    2.94
   1  -8  -6   -0.34    2.02
  -1   8   6   -5.00    4.32
   1  -8   6    0.86    2.65
   1  -8   6   -1.20    4.22
  -1   8   6   -1.07    3.46
  -1   8   6   -3.18    4.50
   0   8  -6   19.35    5.60
   0  -8  -6   14.03    3.91
   0  -8  -6   15.30    4.72
   0  -8  -6   18.19    5.31
   0   8   6   14.72    7.05
   0   8   6   12.77    6.59
   0  -8   6   23.91    4.69
   0  -8   6   15.09    6.86
  -1  -8  -6   -0.08    1.42
  -1  -8  -6  -10.31    5.75
   1   8  -6   -1.51    4.15
  -1  -8  -6    1.69    3.88
  -1  -8   6   -9.08    5.48
  -1  -8   6    1.08    2.83
   1   8   6   -3.25    4.95
   2   8  -6   10.02    6.08
   2   8  -6   14.63    5.79
  -2  -8  -6   13.68    5.10
   2   8   6    8.90    5.89
  -2  -8   6   16.59    4.33
  -2  -8   6    8.66    6.40
   3   8  -6    1.27    5.25
  -3  -8   6    2.84    5.31
  -3  -8   6    1.01    3.50
   4   8  -6    0.21    5.61
  -4  -8   6   -0.79    3.97
  -4  -8   6   -0.85    5.62
   5   8  -6    5.51    6.08
  -5  -8   6    0.59    6.40
  -5  -8   6    1.22    4.16
  -6  -8   6    2.94    4.14
   7  -9  -6   40.07    9.35
   7  -9  -6   19.70    7.57
   6  -9  -6   20.21    7.05
   6  -9  -6   17.57    5.20
   6  -9  -6   13.44    5.17
  -6   9   6   19.99    5.37
   5  -9  -6    6.24    2.91
   5  -9  -6    8.09    3.17
   5  -9  -6    4.79    3.63
   5  -9  -6    6.77    5.29
  -5   9   6    7.39    3.19
  -5   9   6    1.63    4.77
   4  -9  -6   -0.58    2.41
   4  -9  -6    1.15    5.19
   4  -9  -6    1.70    2.46
   4  -9  -6    0.75    2.80
  -4   9   6    6.22    3.85
  -4   9   6    1.25    2.54
  -4   9   6    0.64    3.43
   3  -9  -6   -0.34    1.90
   3  -9  -6    1.94    2.85
  -3   9  -6    3.08    5.14
   3  -9  -6    2.96    5.32
   3  -9  -6    1.11    2.26
  -3   9   6    3.31    2.31
   3  -9   6   -0.77    3.80
  -3   9   6    2.54    3.79
  -3   9   6    2.37    3.26
  -2   9  -6    8.31    4.85
   2  -9  -6    1.86    5.56
   2  -9  -6    7.00    2.50
   2  -9  -6    9.68    3.33
   2  -9  -6    8.50    2.88
  -2   9   6    9.12    3.01
   2  -9   6    7.14    3.82
  -2   9   6   11.57    4.68
  -2   9   6    3.88    5.21
   2  -9   6   13.00    5.07
  -2   9   6    6.85    4.13
   1  -9  -6   -2.35    3.13
   1  -9  -6    0.16    1.39
   1  -9  -6   -0.42    4.99
  -1   9  -6   -1.25    4.03
   1  -9  -6   -0.19    2.22
  -1   9   6   -0.96    4.94
  -1   9   6    1.03    3.72
   1  -9   6    0.14    5.18
  -1   9   6   -0.12    4.76
   1  -9   6    0.14    3.00
   0  -9  -6    0.92    2.35
   0  -9  -6    0.07    1.34
   0  -9  -6   -2.53    3.74
   0   9  -6   -4.25    4.27
   0  -9  -6   -0.32    5.49
   0  -9   6    5.33    5.59
   0   9   6   -3.17    4.42
   0   9   6   -5.52    5.27
   0  -9   6    1.60    3.12
  -1  -9  -6    1.38    1.49
  -1  -9  -6    0.18    5.64
   1   9  -6   -1.75    4.82
  -1  -9  -6   -0.56    4.23
   1   9   6   -4.62    5.60
  -1  -9   6    1.65    3.10
  -1  -9   6   -1.12    5.97
   2   9  -6   15.25    6.50
  -2  -9  -6    7.42    5.12
   2   9  -6   11.80    5.71
  -2  -9  -6    7.08    2.70
   2   9   6   11.91    5.94
  -2  -9   6    9.59    4.21
  -2  -9   6    4.43    6.35
   3   9  -6    3.55    6.21
   3   9  -6    0.21    6.14
  -3  -9   6    4.36    3.91
  -3  -9   6    4.23    5.89
   4   9  -6    5.60    6.54
  -4  -9   6   -0.18    4.34
  -4  -9   6   -2.25    6.15
   5   9  -6    5.71    7.07
  -5  -9   6    4.24    7.06
  -5  -9   6   -2.82    4.54
   6   9  -6   24.21    8.63
  -6  -9   6   12.86    6.20
   8 -10  -6   33.39    8.90
   7 -10  -6    2.08    3.57
   7 -10  -6    8.87    6.14
   6 -10  -6    6.63    3.38
   6 -10  -6    6.50    6.16
   6 -10  -6   12.97    3.74
  -6  10   6   10.01    3.80
  -6  10   6   -8.23    5.44
   5 -10  -6   40.92    9.95
   5 -10  -6   42.30    9.83
   5 -10  -6   29.64    9.90
   5 -10  -6   37.66   12.51
  -5  10   6   39.21   11.71
  -5  10   6   47.49   10.40
   4 -10  -6    1.64    6.08
   4 -10  -6    1.39    2.68
   4 -10  -6   -1.10    3.10
   4 -10  -6   -0.21    2.54
  -4  10  -6    1.64    6.02
  -4  10   6   -3.38    4.31
  -4  10   6    1.47    3.71
  -4  10   6    1.50    2.85
   4 -10   6    0.14    4.96
   3 -10  -6   30.75    9.68
  -3  10  -6   39.22   12.10
   3 -10  -6   52.33   12.45
   3 -10  -6   33.63    9.35
   3 -10  -6   21.00    9.26
  -3  10   6   42.56   11.56
  -3  10   6   43.14   10.17
  -3  10   6   55.05   11.60
  -3  10   6   42.09   10.57
   3 -10   6   41.18    9.85
   2 -10  -6    4.00    3.39
   2 -10  -6    5.71    2.15
  -2  10  -6    5.97    5.03
   2 -10  -6    4.41    2.36
   2 -10  -6   -3.53    6.18
   2 -10   6    1.82    3.53
  -2  10   6    7.48    5.15
  -2  10   6    1.79    2.67
  -2  10   6    7.97    6.03
  -2  10   6    3.07    4.04
  -1  10  -6    5.31    4.58
   1 -10  -6    4.14    1.91
   1 -10  -6    2.85    2.46
   1 -10  -6    1.77    3.67
   1 -10  -6    1.28    6.25
  -1  10   6    3.06    4.57
   1 -10   6    4.08    3.51
   1 -10   6   -0.16    6.19
  -1  10   6    8.79    5.97
  -1  10   6    6.37    5.70
   0 -10  -6   26.76    6.81
   0 -10  -6   25.01    7.47
   0 -10  -6   16.14    9.44
   0 -10  -6   24.07    5.71
   0  10  -6   26.62    7.82
   0  10   6   24.75    9.43
   0  10   6   25.32    8.63
   0 -10   6   19.41    6.53
   0 -10   6   30.56    9.40
  -1 -10  -6    6.55    1.96
  -1 -10  -6    0.80    4.63
   1  10  -6    4.79    5.57
  -1 -10  -6    2.19    6.78
   1  10  -6   12.19    7.25
  -1 -10   6    2.19    3.78
   1  10   6   -1.16    6.26
  -1 -10   6    1.11    7.02
  -2 -10  -6    4.68    6.72
  -2 -10  -6   10.71    5.10
   2  10  -6    9.49    6.47
  -2 -10  -6    3.08    2.00
   2  10  -6    4.17    7.15
   2  10   6    3.62    6.28
  -2 -10   6   -1.13    6.90
  -2 -10   6    0.33    4.15
   3  10  -6   53.14   13.29
   3  10  -6   38.01   12.69
  -3 -10   6   37.21   10.58
  -3 -10   6   38.50   12.92
   4  10  -6   -1.83    7.65
  -4 -10   6    0.20    4.77
  -4 -10   6   -0.21    7.04
   5  10  -6   39.95   12.38
  -5 -10   6   25.36   12.66
  -5 -10   6   35.39   10.18
   6  10  -6    7.57    8.04
   8 -11  -6    1.36    4.08
   7 -11  -6   10.02    4.00
   7 -11  -6    3.81    7.31
   6 -11  -6    3.69    3.38
   6 -11  -6    6.50    3.60
   6 -11  -6    0.85    4.74
   6 -11  -6    1.84    7.04
  -6  11   6    0.98    3.74
  -6  11   6    4.47    5.85
   5 -11  -6    3.72    3.34
   5 -11  -6   -2.22    7.40
   5 -11  -6    4.44    3.01
   5 -11  -6    1.21    3.82
  -5  11   6    3.15    4.30
  -5  11   6    4.40    5.36
  -5  11   6    1.86    3.47
   4 -11  -6    6.90    8.04
   4 -11  -6   10.55    3.62
   4 -11  -6   10.90    4.28
   4 -11  -6   10.66    3.82
  -4  11  -6    5.72    7.73
  -4  11   6   13.20    5.51
  -4  11   6   12.56    4.98
   4 -11   6    0.24    5.66
  -4  11   6   16.18    4.06
   4 -11   6   -0.16    6.10
   3 -11  -6   11.03    3.50
   3 -11  -6   11.72    3.62
  -3  11  -6   16.47    7.05
   3 -11  -6    8.39    7.91
   3 -11  -6   11.65    4.19
   3 -11   6    8.33    5.21
  -3  11   6    7.94    5.05
  -3  11   6   16.90    5.64
  -3  11   6    3.33    7.54
  -3  11   6   14.07    3.96
  -2  11  -6    8.31    5.82
   2 -11  -6    3.93    3.61
   2 -11  -6    4.56    2.57
   2 -11  -6    4.22    7.05
   2 -11  -6    2.74    2.11
  -2  11   6   10.71    6.70
   2 -11   6   -4.16    3.95
  -2  11   6    1.31    5.74
  -2  11   6    3.15    2.83
  -2  11   6    2.18    4.39
   1 -11  -6   58.30   25.96
  -1  11  -6  114.83   23.18
   1 -11  -6   87.36   20.98
   1 -11  -6   91.50   21.81
  -1  11   6   83.73   29.58
   1 -11   6   96.09   20.25
  -1  11   6   75.80   25.43
  -1  11   6   87.15   23.95
   1 -11   6   98.84   25.69
   0 -11  -6   -2.92    6.87
   0 -11  -6   -3.27    4.94
   0  11  -6   -7.27    5.66
   0  11   6   -1.30    7.32
   0  11   6    1.88    5.48
   0 -11   6    0.20    7.89
   0  11   6  -12.43    6.98
   0 -11   6    0.17    4.26
   1  11  -6  123.19   25.38
  -1 -11  -6   55.46   27.24
  -1 -11  -6   91.39   24.18
   1  11  -6  115.36   27.31
  -1 -11   6   73.89   27.39
  -1 -11   6  111.79   21.73
   1  11   6   95.79   25.51
  -2 -11  -6   -0.24    7.35
   2  11  -6    2.38    8.09
   2  11  -6    1.89    7.06
  -2 -11  -6    0.49    5.43
  -2 -11   6  -12.63    8.07
   2  11   6    3.93    7.17
  -2 -11   6    0.19    4.75
  -3 -11  -6   11.12    6.21
   3  11  -6  -10.81    9.73
   3  11  -6  -10.79    9.21
  -3 -11   6    1.41    5.93
   4  11  -6   11.73    9.70
  -4 -11   6   -0.21    5.88
   5  11  -6   -7.17    8.40
  -5 -11   6   -3.73    8.66
  -5 -11   6    0.45    5.74
   6  11  -6    7.14    8.54
  -6 -11   6    1.62    8.50
  -6 -11   6   -0.23    5.63
  -7 -11   6    0.24    5.80
   8 -12  -6   -3.39    4.18
   7 -12  -6    5.24    8.12
   6 -12  -6   -1.81    5.11
   6 -12  -6    5.94    8.23
  -6  12   6    7.21    4.68
  -6  12   6   -2.20    6.64
  -6  12   6    5.06    4.19
   5 -12  -6    0.39    8.30
   5 -12  -6    4.68    4.38
  -5  12   6    5.70    6.00
   4 -12  -6   11.95    5.28
  -4  12  -6   14.40    8.83
   4 -12  -6   25.34    9.68
   4 -12   6   23.66    6.54
  -4  12   6   16.51    6.63
   3 -12  -6    1.45    3.73
  -3  12  -6    1.60    6.99
   3 -12  -6    4.77    8.07
   3 -12   6    0.19    6.63
   3 -12   6    0.43    4.54
  -3  12   6   -0.30    5.68
  -3  12   6    4.94    7.60
  -2  12  -6   62.73   13.04
   2 -12  -6   52.26   14.88
   2 -12  -6   25.50   10.98
  -2  12   6   26.30   13.56
  -2  12   6   39.83   13.19
   2 -12   6   46.66   10.73
   1 -12  -6   -5.26    4.81
  -1  12  -6   -3.51    6.31
   1 -12  -6   -1.02    7.88
  -1  12   6    1.84    7.35
  -1  12   6   -3.76    7.43
   1 -12   6   -2.62    4.45
   0 -12  -6   45.60   19.71
   0  12  -6   87.43   18.15
   0 -12  -6   67.19   17.12
   0  12   6   81.83   18.81
   0 -12   6   40.79   20.95
   0 -12   6   65.27   15.43
   0  12   6   54.14   20.84
  -1 -12  -6   -2.90    6.15
   1  12  -6   -1.20    9.41
  -1 -12  -6   -4.26    8.24
   1  12  -6    0.20    7.98
  -1 -12   6    0.20    5.29
   1  12   6  -17.91    8.38
   2  12  -6   37.14   15.29
   2  12  -6   68.28   16.09
  -2 -12  -6   37.70   13.18
  -2 -12  -6   30.25   15.42
  -2 -12   6   69.32   12.38
  -2 -12   6   23.67   16.34
   2  12   6   56.11   14.88
  -3 -12  -6   -2.78    6.48
   3  12  -6    7.04    8.88
   3  12  -6    5.82    9.65
  -3 -12   6   -6.08    9.48
   3  12   6   11.02    8.15
  -3 -12   6   -9.10    5.99
   4  12  -6    8.58   10.32
   4  12  -6   12.20   10.38
  -4 -12   6   11.54   10.06
  -4 -12   6    2.56    6.75
  -5 -12   6   -0.24    6.07
   7 -13  -6   37.84   11.65
   6 -13  -6   28.79   11.46
   6 -13  -6   42.36   15.54
  -6  13   6   57.69   14.74
   5 -13  -6    2.91   10.41
   5 -13  -6   10.02    5.41
  -5  13   6    0.58    7.61
   4 -13  -6    4.30    9.42
   4 -13  -6   10.57    4.40
   4 -13   6    0.20    7.59
   4 -13   6   -0.27    4.42
  -4  13   6    3.18    6.02
  -4  13   6    2.02    9.38
   3 -13  -6   13.08    4.99
   3 -13  -6    4.50    9.45
  -3  13   6   10.41    6.69
   3 -13   6   -0.21    8.29
  -3  13   6    6.61    9.39
   2 -13  -6    7.23    9.08
   2 -13  -6    1.54    4.93
  -2  13   6    0.77    8.65
  -2  13   6   -3.40    7.38
   1 -13  -6   37.28    9.95
   1 -13  -6   25.54   13.33
  -1  13   6   18.30   12.32
  -1  13   6   51.45   12.93
   0 -13  -6    3.35    8.42
   0 -13  -6   -1.65    5.94
   0  13   6    1.45    8.97
   0  13   6   -2.78    9.57
  -1 -13  -6   45.20   11.50
  -1 -13  -6   43.46   13.51
   1  13   6   34.35   15.04
   1  13   6   23.44   13.08
  -2 -13  -6   26.55    9.60
  -2 -13  -6    6.27    7.93
   2  13   6   38.49    9.67
   4  13  -6    2.23   11.07
  -4 -13   6    3.14   10.22
   5  13  -6   79.64   13.81
  -5 -13   6   42.15   10.85
   6  13  -6   18.59   14.87
  -6 -13   6   29.88   11.56
  -7 -13   6   -0.28    7.58
  -5  14  -6  -10.27    9.49
   5 -14   6   29.57    9.11
  -4  14  -6    5.48    9.08
   4 -14   6  -19.22    8.94
   4 -14   6  -11.46    5.94
  -4  14   6   -3.17    7.03
   3 -14  -6   31.69    7.99
  -3  14  -6   15.65   10.89
   3 -14   6   14.47    7.85
  -3  14   6   23.42   10.29
  -2  14  -6  -18.15    8.32
   2 -14  -6   -0.21    5.68
   2 -14   6    0.24    5.55
  -2  14   6   -4.68    8.57
  -1  14  -6    4.00    7.78
   1 -14   6    0.23    5.51
   0  14  -6   16.74    8.70
   0  14  -6   14.48   12.84
   0 -14   6    0.24    6.32
   0 -14   6    6.82   12.02
   1  14  -6   -5.35   13.99
   1  14  -6   -0.76    9.60
  -1 -14   6    0.25    6.75
  -1 -14   6  -14.54   11.68
   2  14  -6   -5.38   11.08
  -2 -14  -6   -4.79    9.77
   2  14  -6   -0.78   13.22
   2  14   6    0.72    9.83
  -2 -14   6  -17.19    7.28
  -3 -14  -6   75.32   12.49
   3  14  -6   22.11   14.53
   3  14  -6   24.41   15.08
  -3 -14   6   18.81   10.46
   3  14   6   48.26   13.58
   4  14  -6  -10.44   12.49
   4  14  -6   16.17   11.42
  -4 -14   6    6.09    7.43
  -4 -14   6    0.63   11.74
   5  14  -6    9.42   12.28
   5  14  -6   14.98   12.01
  -5 -14   6   33.34   12.61
  -5 -14   6    0.57    7.61
   6  14  -6    0.89   11.63
  -6 -14   6   -7.67    7.31
  -6 -14   6   -6.84   11.40
  -7 -14   6    3.32    7.42
   6 -15  -6    7.06    5.94
   6 -15  -6    5.09   12.09
  -6  15   6    1.65    8.62
   5 -15  -6   -1.61    5.13
  -5  15  -6    5.01    9.95
   5 -15  -6   -5.44   11.90
  -5  15   6   -6.06   11.99
   5 -15   6   18.03    9.84
  -5  15   6   -5.18    8.33
   4 -15  -6    2.20    5.43
   4 -15  -6  -23.43   11.67
  -4  15  -6    3.98   10.05
   4 -15   6    2.63   10.30
   4 -15   6    6.35    6.57
  -4  15   6   17.53    8.06
  -4  15   6   31.24   12.18
  -3  15  -6   -5.76    8.80
   3 -15  -6    4.43    5.37
   3 -15  -6   -9.68   11.49
  -3  15   6    3.56   10.75
  -3  15   6   -8.57    8.25
   3 -15   6    0.28    5.90
   3 -15   6   -0.28   10.74
   2 -15  -6   -7.41    5.95
  -2  15  -6    0.81    9.03
   2 -15  -6    0.28   11.07
   2 -15   6    4.78   11.97
  -2  15   6    0.71    9.17
   2 -15   6    5.34    6.11
  -2  15   6   -8.89   10.92
   1 -15  -6  -11.50   10.96
   1 -15  -6  -14.15    6.84
  -1  15  -6   -7.40    9.12
  -1  15   6  -10.25   11.04
   1 -15   6    0.26    6.11
  -1  15   6    2.63   10.42
   0 -15  -6  -12.22   11.23
   0  15  -6    8.34   14.44
   0  15  -6   -2.57    9.54
   0 -15  -6   -3.72    7.28
   0  15   6   28.20   11.49
   0  15   6   -2.30   11.60
   0 -15   6   -6.35    6.43
  -1 -15  -6    7.50    7.81
  -1 -15  -6  -13.74   11.06
   1  15  -6    7.29   14.86
   1  15  -6   -3.40   10.65
   1  15   6   16.96   11.24
   1  15   6   -4.94   12.72
  -1 -15   6  -21.01   13.67
  -1 -15   6   -4.15    7.48
   2  15  -6   -5.67   14.10
  -2 -15  -6    5.33    8.20
  -2 -15  -6    4.89   10.71
   2  15  -6   11.97   11.28
   2  15   6  -13.51   13.34
  -2 -15   6   -0.34   13.22
   2  15   6   15.89   11.08
  -2 -15   6    0.29    7.14
   3  15  -6    3.12   12.34
   3  15  -6   14.89   14.30
  -3 -15  -6    0.35    8.72
   3  15   6   19.02   10.83
  -3 -15   6   -9.66   12.71
  -3 -15   6    1.18    7.33
   4  15  -6   27.27   12.88
   4  15  -6   -9.40   13.70
  -4 -15   6    2.83   12.75
  -4 -15   6    7.89    7.81
   5  15  -6   14.75   13.33
   5  15  -6   -1.44   13.35
  -5 -15   6   11.73    7.91
  -5 -15   6   23.39   12.98
   6  15  -6    7.42   13.19
   6  15  -6    1.97   12.78
  -6 -15   6   -9.00   12.49
  -6 -15   6    0.32    7.77
  -7 -15   6   -2.27    7.79
  -6  16   6   20.33   13.46
  -6  16   6    2.39    9.81
   5 -16  -6   -9.23    7.16
  -5  16  -6   -4.66   12.24
  -5  16   6  -22.91   13.92
  -4  16  -6    1.82   11.15
  -4  16   6  -32.12   13.87
   4 -16   6  -14.18    7.43
   4 -16   6    0.60   11.94
   3 -16  -6    8.35    5.87
   3 -16  -6   12.10   12.91
  -3  16  -6   -2.35   10.76
   3 -16   6  -13.78    6.98
   3 -16   6   11.68   12.72
  -3  16   6   16.83    9.20
  -3  16   6   19.17   12.57
   2 -16  -6    9.32    6.69
   2 -16  -6    6.97   12.33
  -2  16  -6    3.32   10.14
   2 -16   6   -7.11    6.28
   2 -16   6  -12.43   13.68
  -2  16   6   15.89    9.89
  -2  16   6  -14.00   12.64
   1 -16  -6   -4.10    7.15
  -1  16  -6    8.62   10.10
   1 -16  -6   11.68   11.90
   1 -16   6    0.29    6.72
  -1  16   6    6.99   12.85
  -1  16   6   10.28   11.60
   0  16  -6   -5.48   10.35
   0 -16  -6   -9.25   11.53
   0 -16  -6   -1.89    8.11
   0  16   6   -1.91   12.74
   0  16   6    7.69   12.43
   0 -16   6   -0.29    7.20
  -1 -16  -6    5.85   12.02
   1  16  -6   -1.43   15.61
   1  16  -6    0.63   11.52
  -1 -16  -6   -0.34    8.65
   1  16   6   -8.34   11.81
  -1 -16   6    1.13   14.27
  -1 -16   6  -17.22    7.65
   1  16   6  -19.37   13.69
  -2 -16  -6   18.88   12.00
   2  16  -6   -6.04   12.84
  -2 -16  -6   -5.77    9.24
   2  16  -6    0.49   15.97
  -2 -16   6    2.66   14.32
   2  16   6   -1.75   12.24
   2  16   6    1.41   13.91
  -2 -16   6    4.48    8.29
   3  16  -6   13.35   13.19
  -3 -16  -6    0.75    9.24
   3  16  -6    8.76   16.31
   3  16   6   15.20   12.35
  -3 -16   6   -8.16    8.04
  -3 -16   6  -29.22   14.85
   4  16  -6  -10.06   13.74
   4  16  -6   -5.30   15.36
  -4 -16   6    3.29    8.38
  -4 -16   6   21.48   14.61
   5  16  -6   -5.93   14.15
   5  16  -6  -28.40   16.06
  -5 -16   6   -0.33    8.44
  -5 -16   6  -24.32   14.77
   6  16  -6   10.44   14.77
   6  16  -6   18.24   13.94
  -6 -16   6   19.83   14.29
  -6 -16   6    0.68    8.73
   7  16  -6   -0.70   13.86
  -7 -16   6    2.08    8.36
   5 -17  -6    6.38   14.20
   5 -17  -6   -3.91    5.92
  -5  17  -6   -7.23   12.67
   5 -17   6   14.02   14.00
  -5  17   6   -0.29    9.65
  -5  17   6    3.20   14.29
   4 -17  -6   -9.94   14.38
  -4  17  -6   -4.43   12.35
   4 -17  -6   -4.12    6.70
   4 -17   6    7.20    7.92
  -4  17   6   -0.27    9.53
  -4  17   6   13.29   13.86
   4 -17   6    4.76   13.61
   3 -17  -6   -9.52    6.70
  -3  17  -6   15.73   11.93
   3 -17  -6    5.31   13.94
  -3  17   6   15.07   14.00
   3 -17   6    4.39    7.23
  -3  17   6    9.05    9.65
   3 -17   6    0.36   14.17
   2 -17  -6   28.45   13.94
  -2  17  -6  -14.99   16.76
  -2  17  -6   -4.76   11.34
   2 -17  -6   -1.77    7.21
   2 -17   6   -0.33    7.10
  -2  17   6   -8.41   13.72
   2 -17   6  -18.52   15.09
  -2  17   6   -8.15   11.45
   1 -17  -6   -9.02   13.58
   1 -17  -6    0.32    7.79
  -1  17  -6    8.43   11.36
   1 -17   6  -11.15    7.59
  -1  17   6  -10.45   13.59
  -1  17   6   11.56   12.74
   0 -17  -6   -3.33   13.43
   0  17  -6    3.60   11.97
   0 -17  -6   -7.34    8.76
   0  17   6  -17.01   14.60
   0  17   6    1.35   13.67
  -1 -17  -6   19.77   13.39
   1  17  -6   35.90   17.67
   1  17  -6   -0.69   12.62
  -1 -17  -6  -17.42    9.47
   1  17   6  -14.19   15.43
  -1 -17   6    0.42   16.16
  -1 -17   6    0.34    8.05
   1  17   6    2.78   13.68
  -2 -17  -6  -18.38   10.20
   2  17  -6   -3.35   18.18
   2  17  -6   -0.74   13.58
  -2 -17  -6    1.95   12.85
  -2 -17   6  -42.63   16.13
  -2 -17   6    0.35    8.12
   2  17   6   -1.54   15.37
   2  17   6   -7.71   13.94
   3  17  -6   17.38   17.86
   3  17  -6   -7.18   14.77
  -3 -17  -6    6.84    9.92
   3  17   6    2.33   15.92
  -3 -17   6  -27.33   16.38
   3  17   6   -2.52   13.46
  -3 -17   6    0.36    8.64
   4  17  -6  -19.06   17.51
   4  17  -6  -12.87   14.86
  -4 -17   6  -18.61   16.02
  -4 -17   6  -15.74    8.79
   5  17  -6   12.56   14.99
   5  17  -6  -14.45   17.26
  -5 -17   6    0.36    8.82
  -5 -17   6    0.45   15.63
   6  17  -6   -0.38   15.07
   6  17  -6    7.36   16.09
  -6 -17   6   -4.11   15.22
  -6 -17   6    6.61    8.97
   7  17  -6   -6.51   14.97
  -7 -17   6    5.60    9.02
  -5  18  -6   56.24   32.70
  -5  18   6    6.66   34.12
   5 -18   6   75.70   31.15
  -4  18  -6   -2.24   14.23
   4 -18  -6    5.16    7.02
   4 -18  -6   -1.58   16.09
   4 -18   6    6.51   15.92
   4 -18   6  -14.19    8.43
  -4  18   6  -14.31   15.42
  -4  18   6   13.50   10.81
  -3  18  -6  -23.10   13.68
   3 -18  -6    0.39   15.64
   3 -18  -6   -3.06    7.37
   3 -18   6   -8.25    7.92
   3 -18   6   16.81   16.50
  -3  18   6   -4.89   11.06
  -3  18   6   -9.11   15.08
   2 -18  -6    5.22    8.18
  -2  18  -6    6.15   12.50
   2 -18  -6   38.41   15.28
  -2  18  -6  -11.45   18.39
  -2  18   6    1.41   15.32
   2 -18   6    1.88    8.27
  -2  18   6    5.11   12.40
   2 -18   6   10.54   16.81
   1 -18  -6    4.05   14.92
   1 -18  -6    6.05    9.01
  -1  18  -6    5.63   13.01
   1 -18   6    6.12   16.80
  -1  18   6   10.80   15.45
  -1  18   6   22.92   14.52
   1 -18   6   -0.37    8.19
   0 -18  -6   -3.45    9.52
   0 -18  -6   12.73   15.07
   0  18  -6  -24.95   13.06
   0  18   6    0.39   15.84
   0 -18   6   10.33    8.83
   0  18   6  -24.60   15.60
   1  18  -6   16.06   18.67
  -1 -18  -6   -1.68   14.68
  -1 -18  -6    1.61   10.33
   1  18  -6    4.99   14.18
  -1 -18   6    0.75    8.81
   1  18   6   22.50   16.44
   1  18   6   -4.12   14.97
  -2 -18  -6   -8.16   14.47
   2  18  -6    5.27   15.38
  -2 -18  -6  -13.14   10.45
   2  18  -6   -0.63   20.41
  -2 -18   6   10.39    9.56
  -2 -18   6  -22.22   17.86
   2  18   6   21.85   17.03
   2  18   6   20.23   14.51
  -3 -18  -6   -0.44   10.73
   3  18  -6   -3.28   19.87
   3  18  -6   10.89   15.91
   3  18   6   -3.32   14.30
   3  18   6  -39.67   17.66
  -3 -18   6  -14.63   17.78
  -3 -18   6   22.03   10.01
   4  18  -6  -15.35   19.51
   4  18  -6  -30.02   16.77
  -4 -18   6   -8.88   17.77
  -4 -18   6    0.39    9.90
   6  18  -6  -34.43   19.91
   6  18  -6  -16.57   17.21
  -6 -18   6  -30.98   11.21
  -5  19  -6  -27.02   15.52
   5 -19   6    2.91   16.79
   4 -19  -6   17.75    7.41
  -4  19  -6  -17.95   16.01
  -4  19   6  -13.00   16.69
   4 -19   6  -17.63   17.18
   4 -19   6    1.85    9.65
  -4  19   6  -10.12   12.65
   3 -19  -6    0.44   17.48
  -3  19  -6   35.75   19.82
  -3  19  -6  -11.39   15.40
   3 -19  -6   13.86    7.78
   3 -19   6   -0.45   18.44
  -3  19   6  -13.41   13.07
  -3  19   6   -7.73   16.82
   3 -19   6   -4.80    9.56
  -2  19  -6   10.44   19.94
   2 -19  -6   12.67    8.99
  -2  19  -6    6.35   14.90
   2 -19  -6   16.46   16.75
  -2  19   6    3.57   13.89
   2 -19   6  -34.12   19.19
   2 -19   6    3.75    9.36
  -2  19   6   15.46   17.38
   1 -19  -6  -24.70   16.77
  -1  19  -6   -1.69   14.90
  -1  19  -6  -23.67   20.92
   1 -19  -6    0.39    9.66
  -1  19   6    2.19   16.64
  -1  19   6  -32.66   16.23
   1 -19   6   23.78   19.44
   1 -19   6   13.02   10.04
   0 -19  -6   -0.85   10.48
   0 -19  -6  -23.47   16.88
   0  19  -6  -36.27   15.93
   0  19   6  -15.09   17.43
   0 -19   6    0.41   10.47
   0  19   6   -1.75   17.16
  -1 -19  -6  -13.04   16.08
  -1 -19  -6  -18.72   11.46
   1  19  -6    4.18   15.80
  -1 -19   6   -9.54   10.50
   1  19   6   23.48   16.50
   1  19   6    9.95   18.10
   2  19  -6    6.13   17.06
  -2 -19  -6    0.92   11.59
   2  19  -6  -20.56   23.32
  -2 -19  -6    2.37   15.66
  -2 -19   6    0.42   10.16
   2  19   6    4.59   18.37
  -2 -19   6    0.53   19.55
   2  19   6   12.42   16.31
  -3 -19  -6  -15.05   12.09
   3  19  -6  -10.29   22.43
   3  19  -6    7.33   18.02
  -3 -19   6    4.87   19.98
   3  19   6    0.92   18.48
  -3 -19   6    8.57   10.39
   4  19  -6    3.20   18.48
   4  19  -6   -8.98   21.89
  -4 -19   6    2.14   10.22
  -4 -19   6   -0.55   20.34
   5  19  -6    6.38   18.27
   5  19  -6   -8.36   21.71
  -5 -19   6    0.85   10.76
  -5 -19   6  -15.08   19.59
   6  19  -6   -0.90   17.96
  -6 -19   6  -16.32   11.14
  -4  20   6   20.58   19.74
   3 -20  -6    8.74   19.23
   3 -20  -6   -7.30    8.94
  -3  20   6  -21.65   14.71
  -3  20   6   12.68   18.94
   2 -20  -6   38.89   18.82
   2 -20  -6   -0.40    9.59
  -2  20   6  -13.30   15.37
  -2  20   6  -10.21   18.88
   1 -20  -6    4.53   18.59
   1 -20  -6   -6.48   10.72
  -1  20  -6  -10.52   16.88
   1 -20   6   -2.80   10.57
  -1  20   6   -3.94   16.68
  -1  20   6  -11.64   19.16
   0 -20  -6    8.81   11.81
   0  20  -6   -2.37   17.73
   0 -20  -6   48.05   19.78
   0  20   6   12.40   19.48
   0  20   6   17.43   18.52
   0 -20   6   15.40   11.58
  -1 -20  -6   -0.49   11.84
   1  20  -6    4.23   17.34
  -1 -20  -6   -0.52   17.57
   1  20   6   31.92   18.50
   1  20   6    2.98   19.96
  -2 -20  -6    8.92   17.32
  -2 -20  -6   17.45   12.16
   2  20   6   -2.62   17.89
   2  20   6   15.15   20.26
  -3 -20  -6    3.07   13.03
   3  20   6  -37.10   20.93
   0   0  -7    0.41    0.64
   0   0  -7    0.14    0.91
   0   0   7    0.53    1.38
   1   0  -7   14.05    2.68
   1   0  -7   14.02    2.58
   0  -1  -7   11.13    2.90
   0  -1  -7    9.59    2.65
   0   1  -7    6.61    2.74
   0   1   7    9.41    3.39
  -1   0   7   10.40    3.15
   1  -1  -7   -0.20    0.75
   1  -1  -7   -0.17    0.52
   1   1  -7   -0.19    0.72
   1   1  -7   -0.03    0.46
   1   1  -7   -0.44    0.73
  -1  -1   7    0.52    1.12
  -1   1   7   -0.86    1.21
  -1  -1   7    0.14    0.87
   1  -2  -7   10.76    2.58
   2   1  -7    8.19    2.57
   2   1  -7    7.83    2.94
   2   1  -7    9.80    2.55
   2   1  -7   11.86    3.01
  -2  -1   7    9.40    3.23
  -1   2   7   10.08    3.14
  -2  -1   7   10.53    2.88
  -2  -1   7   12.15    2.65
   2   0  -7    0.13    0.57
   2   0  -7   -0.21    0.77
   0  -2  -7    0.22    1.03
   0   2  -7    0.16    0.63
   0  -2   7    0.31    0.91
  -2   0   7    0.41    1.02
   0   2   7   -0.26    1.65
   1   2  -7    9.06    2.71
   2  -1  -7   11.57    2.62
   2  -1  -7   10.83    2.51
   1   2  -7   13.20    2.56
   1   2  -7   13.47    3.30
  -1  -2   7    9.90    3.13
  -2   1   7    5.72    2.95
  -1  -2   7    9.75    3.21
  -1  -2   7   11.12    2.84
   2   2  -7    0.62    1.18
   2   2  -7    0.46    1.40
   2   2  -7    0.07    0.76
   2  -2  -7   -0.31    0.97
   2   2  -7    0.41    0.58
  -2   2   7    0.21    1.27
  -2  -2   7    0.27    1.02
  -2  -2   7   -0.03    0.96
  -2  -2   7    0.24    1.64
   2  -3  -7  186.30   38.88
   2  -3  -7  134.67   49.12
   3   2  -7  187.36   46.14
   3   2  -7  174.71   38.95
   3   2  -7  162.11   37.73
  -2   3   7  167.37   42.30
  -3  -2   7  152.96   39.53
  -2   3   7  166.73   41.27
  -3  -2   7  161.89   51.29
  -2   3   7  117.57   40.56
   1  -3  -7   25.58    4.33
   3   1  -7   16.25    4.45
   3   1  -7   17.26    4.56
   1  -3  -7   18.97    4.90
   1  -3  -7   17.33    4.10
  -3  -1   7   14.33    4.64
  -1   3   7   20.25    5.16
   0   3  -7   72.15   20.38
   3   0  -7   83.02   18.83
   0  -3  -7  104.32   17.86
   0   3  -7   82.43   23.57
  -3   0   7   64.19   19.69
   0  -3   7   95.88   19.60
   0   3   7   83.80   22.22
   1   3  -7   18.98    5.16
   1   3  -7   12.77    4.72
   1   3  -7   18.97    4.36
   3  -1  -7   15.53    4.37
   3  -1  -7   18.53    4.43
  -1  -3   7   18.75    5.26
  -1  -3   7   20.27    4.61
  -1  -3   7   19.87    5.22
  -3   1   7   22.62    4.56
   2   3  -7  178.79   38.61
   2   3  -7  165.72   36.65
   2   3  -7  168.35   41.00
   3  -2  -7  163.05   35.99
  -2  -3   7  122.55   39.70
  -2  -3   7  143.48   41.79
  -2  -3   7  144.43   36.53
  -2  -3   7  175.87   38.85
   3   3  -7   -0.52    2.64
   3  -3  -7   -0.32    1.33
   3  -3  -7   -0.25    0.84
   3   3  -7   -0.92    0.98
   3   3  -7   -0.38    1.11
  -3  -3   7   -0.68    2.89
  -3   3   7   -0.42    1.27
  -3  -3   7    0.05    0.98
  -3  -3   7    0.37    1.69
   4   3  -7   67.59   17.67
   3  -4  -7   61.92   18.03
   3  -4  -7   76.88   15.94
   3  -4  -7   79.55   15.67
   3  -4  -7   65.67   17.74
   4   3  -7   59.85   20.78
  -4  -3   7   59.78   17.62
  -3   4   7   76.94   16.20
  -4  -3   7   69.63   17.22
  -3   4   7   73.60   18.68
  -3   4   7   69.03   17.73
   2  -4  -7    0.93    2.23
   2  -4  -7    0.93    1.20
   4   2  -7    0.59    1.26
   4   2  -7    1.21    1.36
  -2   4   7    0.98    1.74
  -4  -2   7    0.42    1.21
  -2   4   7    0.78    2.12
   1  -4  -7   15.56    5.33
   1  -4  -7   12.88    3.82
  -1   4  -7    3.63    4.68
   4   1  -7   16.11    3.69
   4   1  -7   12.53    3.69
  -4  -1   7   18.43    3.69
  -1   4   7   15.75    4.63
   0  -4  -7    0.17    1.45
   0   4  -7    0.07    2.11
   4   0  -7   -0.06    1.18
   0  -4   7   -0.43    2.09
   0   4   7    0.30    2.43
   0  -4   7    0.07    1.62
   1   4  -7   13.49    4.29
   1   4  -7   18.60    3.43
  -1  -4   7   15.49    3.72
  -1  -4   7   11.61    4.26
  -1  -4   7   12.94    4.56
   2   4  -7    0.35    0.76
   2   4  -7    2.39    2.65
   2   4  -7    0.82    2.24
   2   4  -7    0.75    0.83
  -2  -4   7    0.55    0.83
  -2  -4   7    0.88    1.17
  -2  -4   7    0.81    1.67
  -2  -4   7    1.87    2.81
   3   4  -7   67.97   18.28
   4  -3  -7   86.56   20.51
   3   4  -7   65.55   17.33
   4  -3  -7   79.44   16.11
   3   4  -7   60.00   16.88
   4  -3  -7   71.76   16.27
  -3  -4   7   78.54   17.30
  -4   3   7   79.11   16.57
  -3  -4   7   62.85   20.09
  -3  -4   7   53.27   16.93
   4  -4  -7   -0.14    1.97
   4   4  -7   -0.74    1.30
   4  -4  -7    0.23    1.53
   4  -4  -7   -0.20    1.49
  -4  -4   7    0.09    2.37
  -4   4   7    0.18    1.63
   4  -5  -7   59.07   12.92
   4  -5  -7   59.01   11.01
   4  -5  -7   41.90   11.68
   4  -5  -7   50.37   10.81
  -4   5   7   30.44   12.85
   3  -5  -7   52.79   12.50
   3  -5  -7   45.74   13.13
   3  -5  -7   48.67   11.12
   3  -5  -7   47.89   11.45
  -3   5   7   49.28   12.88
  -3   5   7   50.20   11.58
  -3   5   7   40.58   13.09
   2  -5  -7  114.91   23.90
   2  -5  -7  116.41   30.96
   2  -5  -7  123.34   25.65
  -2   5   7   93.02   27.84
  -2   5   7  103.12   27.73
   1  -5  -7    2.16    1.94
   1  -5  -7    1.74    3.15
   1  -5   7    2.57    2.43
  -1   5   7    0.19    3.01
   5   0  -7  257.13   48.09
   0  -5  -7  198.31   52.49
   0   5   7  193.12   56.19
  -5   0   7  189.89   48.22
   1   5  -7    2.48    0.72
   5  -1  -7    2.55    1.73
   5  -1  -7    2.65    1.74
  -5   1   7    2.47    1.66
   2   5  -7  120.42   28.28
   5  -2  -7  128.10   26.67
   2   5  -7  128.57   27.20
   5  -2  -7  111.27   26.61
  -2  -5   7  103.50   29.74
  -2  -5   7  121.83   28.12
   3   5  -7   50.53   12.16
   5  -3  -7   55.58   11.83
   5  -3  -7   51.61   11.85
  -5   3   7   43.36   11.87
   4   5  -7   47.67   13.44
   5  -4  -7   56.49   11.04
   5  -4  -7   43.75   13.38
   5  -4  -7   44.68   11.09
   4   5  -7   49.29   12.57
  -4  -5   7   47.92   14.53
   5  -5  -7    0.39    1.95
   5  -5  -7    0.26    2.43
   5  -5  -7   -1.25    2.20
   5   5  -7   -0.75    4.15
  -5   5   7    0.78    2.02
  -5  -5   7   -1.85    2.99
   5  -6  -7    5.63    2.57
   5  -6  -7    7.30    2.67
  -5   6   7    6.07    2.61
   4  -6  -7   25.12    7.81
   4  -6  -7   34.48    7.25
   4  -6  -7   24.93    7.08
  -4   6   7   33.28    7.49
  -4   6   7   21.80    8.78
   3  -6  -7   60.69   13.89
   3  -6  -7   55.00   12.84
   3  -6  -7   52.98   13.31
   3  -6  -7   74.89   15.24
  -3   6   7   51.33   13.45
  -3   6   7   48.77   15.04
  -3   6   7   57.74   14.73
  -2   6  -7   40.12   16.45
   2  -6  -7   63.90   12.71
   2  -6  -7   49.94   15.46
   2  -6  -7   48.75   12.72
   2  -6  -7   63.57   11.98
  -2   6   7   59.99   14.84
   2  -6   7   53.48   14.10
  -2   6   7   37.12   14.03
   1  -6  -7   20.66    4.62
  -1   6  -7   18.77    6.18
   1  -6  -7   14.36    5.05
   1  -6  -7   18.08    4.21
   1  -6   7   13.58    5.77
  -1   6   7   22.23    5.89
   1  -6   7   18.65    5.03
   0   6  -7   -0.09    0.63
   0   6  -7   -0.94    2.69
   0  -6  -7    0.20    1.08
   0  -6   7   -0.36    3.23
   0  -6   7   -0.55    2.07
  -1  -6  -7   15.41    4.35
   1   6  -7   18.30    5.54
  -6   1   7   20.24    4.94
  -1  -6   7   16.12    4.73
  -1  -6   7   17.37    6.26
   6  -2  -7   51.24   12.88
   6  -2  -7   61.03   12.98
   2   6  -7   60.43   14.61
   2   6  -7   54.32   14.68
  -2  -6   7   47.10   15.15
  -2  -6   7   45.93   12.74
  -6   2   7   42.55   13.06
   3   6  -7   51.43   13.82
   6  -3  -7   61.74   13.60
   3   6  -7   58.32   15.10
  -3  -6   7   63.50   16.09
  -3  -6   7   60.65   14.06
   6  -4  -7   37.03    7.88
   4   6  -7   39.64    8.85
   4   6  -7   32.37    9.67
   6  -4  -7   30.56    7.86
  -6   4   7   35.43    7.95
  -4  -6   7   32.54    8.47
  -4  -6   7   28.99   10.25
   5   6  -7    5.87    5.11
   6  -5  -7    4.65    2.56
   6  -5  -7    4.14    2.72
  -6   5   7    3.86    2.70
  -5  -6   7    4.26    3.43
  -5  -6   7   -0.68    5.91
   6  -6  -7   -0.12    2.40
   6  -6  -7    1.99    2.79
  -6   6   7    0.56    2.61
  -6  -6   7   -0.75    3.37
   6  -7  -7    9.50    3.27
   6  -7  -7    5.43    3.28
   6  -7  -7    8.30    4.28
  -6   7   7    6.68    3.28
   5  -7  -7    0.62    2.62
   5  -7  -7   -0.88    3.71
   5  -7  -7   -1.05    2.23
  -5   7   7   -2.10    3.32
  -5   7   7    1.90    2.32
   4  -7  -7   31.06    7.43
   4  -7  -7   29.82    7.20
   4  -7  -7   36.89    8.80
  -4   7   7   34.56    8.48
  -4   7   7   31.80    7.61
   3  -7  -7   27.52    7.35
   3  -7  -7   23.97    9.09
   3  -7  -7   29.09    6.96
  -3   7   7   25.90    8.70
  -3   7   7   40.16    7.43
   2  -7  -7   63.66   15.11
   2  -7  -7   41.20   18.30
  -2   7  -7   71.81   19.08
   2  -7  -7   57.03   14.32
  -2   7   7   64.49   17.97
   2  -7   7  103.59   15.80
  -2   7   7   34.62   16.56
   2  -7   7   68.32   16.82
  -1   7  -7   -1.16    3.54
   1  -7  -7    6.97    2.44
   1  -7  -7   -5.08    4.32
   1  -7  -7   -0.09    1.92
   1  -7  -7    0.28    1.20
   1  -7   7    2.52    2.56
  -1   7   7    0.08    3.19
   1  -7   7    0.20    3.30
  -1   7   7   -0.64    4.03
   0  -7  -7    0.26    3.06
   0  -7  -7    1.96    1.36
   0  -7  -7    7.93    4.77
   0   7  -7    0.57    3.06
   0  -7  -7    2.56    2.16
   0   7   7   -1.54    3.56
   0  -7   7    3.03    2.43
   0  -7   7    2.70    3.81
   0   7   7    6.01    4.19
  -1  -7  -7   -0.95    3.53
  -1  -7  -7    1.48    1.42
   1   7  -7    1.11    3.34
  -1  -7   7    1.14    2.60
   1   7   7    2.66    4.14
  -1  -7   7   -2.57    4.37
   2   7  -7   59.84   17.72
   2   7  -7   86.85   17.69
  -2  -7   7   54.50   18.25
  -2  -7   7   56.91   15.36
   3   7  -7   29.61    7.35
   3   7  -7   33.22    9.15
   3   7  -7   32.23    9.61
  -3  -7   7   25.89    9.54
  -3  -7   7   34.55    7.94
   4   7  -7   19.91    9.29
   4   7  -7   29.77    8.21
  -4  -7   7   35.24    9.65
  -4  -7   7   36.28    7.98
   7  -5  -7    1.75    2.55
   5   7  -7    4.77    5.61
  -7   5   7    1.10    2.64
  -5  -7   7    2.16    3.66
  -5  -7   7    4.16    5.56
   7  -6  -7    8.65    3.28
  -7   6   7    7.08    3.32
  -6  -7   7    3.13    4.30
   7  -7  -7    0.80    3.63
   7  -7  -7    0.14    2.97
  -7   7   7   -1.21    2.98
   7  -8  -7   25.84    7.96
   7  -8  -7   25.22    6.47
  -7   8   7   19.46    6.77
   6  -8  -7    0.20    2.79
   6  -8  -7    1.29    4.31
   6  -8  -7    1.00    2.76
  -6   8   7   -0.16    3.07
   5  -8  -7   -0.42    2.98
   5  -8  -7   -0.33    2.50
   5  -8  -7    1.04    4.25
   5  -8  -7    0.16    2.75
  -5   8   7   -0.63    3.94
  -5   8   7    2.57    2.59
   4  -8  -7   12.84    3.72
   4  -8  -7   12.33    5.36
   4  -8  -7   14.81    3.89
   4  -8  -7   10.36    3.49
  -4   8   7    8.97    4.58
  -4   8   7   13.65    3.82
  -4   8   7   11.56    4.51
   3  -8  -7    0.20    2.40
   3  -8  -7    0.47    2.07
   3  -8  -7    1.15    1.71
   3  -8  -7    0.54    4.44
  -3   8  -7    2.49    4.72
  -3   8   7    0.09    3.24
  -3   8   7    1.57    3.14
  -3   8   7    0.75    2.16
   3  -8   7    2.63    3.62
   2  -8  -7   22.09    6.73
   2  -8  -7   24.89    6.39
   2  -8  -7   26.11    8.80
  -2   8  -7   32.54    8.86
   2  -8  -7   31.58    6.79
  -2   8   7   20.57    8.13
   2  -8   7   27.84    7.93
   2  -8   7   30.92    7.12
  -2   8   7   24.76    7.88
  -2   8   7   27.97    8.43
   1  -8  -7    9.79    3.24
   1  -8  -7    9.64    3.82
   1  -8  -7    9.92    2.64
   1  -8  -7   11.28    5.64
  -1   8  -7   11.54    4.64
  -1   8   7   11.21    5.33
  -1   8   7    9.74    5.19
  -1   8   7    5.75    4.58
   1  -8   7   11.95    4.94
   1  -8   7    9.90    3.69
   0  -8  -7    2.03    3.43
   0  -8  -7    0.15    1.38
   0   8  -7    3.69    3.85
   0  -8  -7   -1.51    2.33
   0  -8  -7   -2.59    5.06
   0  -8   7    1.30    2.65
   0   8   7    0.91    4.11
   0  -8   7    1.15    4.73
   0   8   7    0.35    4.78
  -1  -8  -7   11.42    4.81
   1   8  -7   10.52    4.97
  -1  -8  -7    6.79    2.81
  -1  -8  -7   10.24    6.18
  -1  -8   7   15.01    3.84
   1   8   7   16.85    5.68
  -1  -8   7   11.30    6.19
   2   8  -7   23.16    9.02
  -2  -8  -7   31.35    8.06
   2   8  -7   25.14    8.59
  -2  -8   7   23.61    9.16
  -2  -8   7   28.55    7.07
   3   8  -7   -1.63    5.26
   3   8  -7    0.28    5.06
  -3  -8   7    1.34    5.52
  -3  -8   7   -1.96    3.45
   4   8  -7   11.03    6.53
  -4  -8   7    7.22    4.52
  -4  -8   7   10.41    6.49
   5   8  -7   -0.70    6.20
  -5  -8   7    2.35    4.13
  -5  -8   7    0.19    6.41
   6   8  -7    0.54    6.47
  -6  -8   7    1.81    4.41
   8  -9  -7   64.15   15.74
   7  -9  -7    7.94    3.70
   7  -9  -7    2.01    5.16
  -7   9   7    7.43    3.88
   6  -9  -7   17.35    5.74
   6  -9  -7   24.78    5.82
   6  -9  -7   21.97    7.63
  -6   9   7   20.42    6.02
   5  -9  -7    9.50    4.30
   5  -9  -7   11.60    6.21
   5  -9  -7   23.99    4.77
   5  -9  -7   14.61    4.19
  -5   9   7   15.14    5.73
  -5   9   7    6.89    4.28
   4  -9  -7   -1.14    2.34
   4  -9  -7   -8.07    5.24
   4  -9  -7    0.64    2.56
   4  -9  -7   -1.10    2.88
  -4   9   7    4.72    3.72
  -4   9   7    0.60    3.44
  -4   9   7   -1.82    2.72
   3  -9  -7    1.12    2.09
  -3   9  -7    0.62    5.34
   3  -9  -7    4.97    5.14
   3  -9  -7    2.35    2.74
   3  -9  -7    1.30    2.35
  -3   9   7    1.66    2.59
  -3   9   7   -0.52    3.97
   3  -9   7    1.79    4.06
  -3   9   7   -1.98    4.98
   3  -9   7   -6.78    4.19
  -3   9   7   11.24    4.03
   2  -9  -7   -1.24    1.72
  -2   9  -7    3.08    4.38
   2  -9  -7   -1.73    4.99
   2  -9  -7    0.10    2.17
   2  -9  -7   -1.03    2.85
   2  -9   7   -0.65    3.34
  -2   9   7    2.76    2.30
  -2   9   7   -0.45    3.69
   2  -9   7   -0.13    4.58
  -2   9   7   -0.11    4.21
  -2   9   7    0.89    4.86
   1  -9  -7    2.56    2.48
   1  -9  -7    6.10    3.37
  -1   9  -7    3.96    4.28
   1  -9  -7    6.08    5.49
   1  -9  -7    1.42    1.71
   1  -9   7    0.28    4.81
  -1   9   7   -1.16    5.25
   1  -9   7    4.82    3.24
  -1   9   7    5.89    5.00
  -1   9   7    1.78    4.26
   0  -9  -7    0.17    5.69
   0  -9  -7   -1.12    3.87
   0   9  -7   -1.36    4.14
   0  -9  -7   -1.26    2.55
   0  -9  -7    0.65    1.44
   0  -9   7    4.26    5.77
   0  -9   7   -2.00    2.87
   0   9   7    0.19    5.32
   0   9   7   -0.64    4.59
  -1  -9  -7   -1.15    5.84
  -1  -9  -7    4.66    1.81
  -1  -9  -7    2.69    4.45
   1   9  -7    4.45    4.62
   1   9   7    2.62    5.73
  -1  -9   7    2.58    5.88
  -1  -9   7    1.51    3.32
   2   9  -7   -1.02    6.23
   2   9  -7    2.00    5.04
  -2  -9  -7   -2.56    4.60
  -2  -9  -7    0.23    1.87
  -2  -9   7   -0.50    6.36
  -2  -9   7   -1.44    3.63
   3   9  -7    2.85    5.95
   3   9  -7    2.71    6.39
  -3  -9   7    2.21    3.82
  -3  -9   7    5.09    6.34
   4   9  -7   -2.06    6.83
  -4  -9   7   -0.55    6.29
  -4  -9   7   -0.52    4.21
   5   9  -7   11.73    7.53
  -5  -9   7   18.28    7.93
  -5  -9   7   12.72    5.64
   6   9  -7   13.29    8.78
  -6  -9   7   14.53    6.35
  -7  -9   7    0.83    5.00
   8 -10  -7   -2.38    3.95
   7 -10  -7   24.23    8.66
   7 -10  -7   25.59    6.56
  -7  10   7   22.74    7.18
   6 -10  -7   17.24    4.53
   6 -10  -7    9.67    7.02
   6 -10  -7   18.30    4.35
  -6  10   7    8.85    4.57
  -6  10   7    3.56    6.13
   5 -10  -7    5.34    3.06
   5 -10  -7    0.15    6.13
   5 -10  -7    5.71    3.27
   5 -10  -7    1.72    3.69
  -5  10   7    3.76    3.50
  -5  10   7    3.33    4.15
  -5  10   7    2.71    5.03
   4 -10  -7    3.64    7.70
   4 -10  -7   16.15    4.87
   4 -10  -7   23.36    5.04
   4 -10  -7   17.13    5.07
  -4  10   7   14.47    6.21
  -4  10   7   19.69    6.30
  -4  10   7   15.44    5.17
   3 -10  -7   -0.13    3.05
   3 -10  -7   -2.01    2.62
   3 -10  -7   -0.12    2.22
   3 -10  -7    6.52    6.10
  -3  10  -7   -4.52    6.29
  -3  10   7   -0.25    2.68
  -3  10   7    3.51    4.39
   3 -10   7    2.75    4.24
  -3  10   7   -0.09    3.99
  -3  10   7    1.82    5.76
   2 -10  -7    6.31    2.78
  -2  10  -7   11.39    5.30
   2 -10  -7    3.51    6.02
   2 -10  -7    2.31    2.30
   2 -10  -7    4.20    3.57
   2 -10   7    0.15    5.68
  -2  10   7    1.69    2.82
  -2  10   7    3.50    4.47
   2 -10   7    4.13    3.84
  -2  10   7    6.04    5.15
  -2  10   7    8.90    5.79
   1 -10  -7   10.58    8.31
   1 -10  -7   22.98    6.29
   1 -10  -7   19.18    5.13
  -1  10  -7   37.31    7.30
   1 -10  -7   15.47    5.77
  -1  10   7   20.64    8.20
   1 -10   7   23.06    8.29
   1 -10   7   20.85    5.81
  -1  10   7   24.02    7.98
  -1  10   7   16.68    7.90
   0 -10  -7    1.23    2.84
   0 -10  -7   -1.21    1.65
   0 -10  -7   -3.46    6.50
   0  10  -7    4.71    4.88
   0 -10  -7    3.04    4.25
   0 -10   7    0.15    3.41
   0  10   7   -1.28    5.30
   0  10   7   -1.92    6.05
   0 -10   7   -9.37    6.85
  -1 -10  -7   12.84    9.01
   1  10  -7   28.27    8.01
  -1 -10  -7   20.77    5.33
  -1 -10  -7   13.24    7.43
  -1 -10   7   23.57    6.31
  -1 -10   7   38.84    9.61
   1  10   7   21.45    8.74
   2  10  -7   10.80    6.22
  -2 -10  -7    6.87    2.58
  -2 -10  -7    1.38    5.26
   2  10  -7    6.36    7.97
  -2 -10   7   12.90    4.55
   2  10   7   15.47    6.81
  -2 -10   7    9.08    7.47
   3  10  -7   -0.54    6.67
   3  10  -7    1.91    7.21
  -3 -10   7   -0.58    6.97
  -3 -10   7   -0.71    4.34
   4  10  -7   18.22    9.25
   4  10  -7   16.76    9.18
  -4 -10   7   15.33    8.85
  -4 -10   7   29.66    6.74
   5  10  -7    3.65    8.36
  -5 -10   7    0.41    5.39
   6  10  -7   13.31    8.55
  -6 -10   7  -12.46    8.57
  -6 -10   7   17.20    5.80
  -7 -10   7   12.55    7.04
   8 -11  -7   15.66    5.64
   7 -11  -7    3.98    3.89
  -7  11   7    5.34    4.51
   6 -11  -7    5.21    4.60
   6 -11  -7    1.82    7.21
   6 -11  -7    9.09    3.98
   6 -11  -7    1.52    3.54
  -6  11   7    5.29    6.24
  -6  11   7    7.16    3.99
   5 -11  -7   19.99    6.66
   5 -11  -7   15.95    9.85
   5 -11  -7   26.99    6.51
   5 -11  -7   28.52    6.83
  -5  11   7   27.41    7.97
  -5  11   7   24.76    6.99
  -5  11   7   12.35    8.22
  -4  11  -7    0.78    6.47
   4 -11  -7  -11.79    7.30
   4 -11  -7    1.86    3.07
   4 -11  -7   -1.30    3.13
   4 -11  -7    4.62    3.57
  -4  11   7   -0.60    4.51
  -4  11   7    1.71    4.87
  -4  11   7    2.54    3.24
   3 -11  -7    8.96    4.39
   3 -11  -7   11.23    7.86
  -3  11  -7   15.01    7.97
   3 -11  -7    9.76    3.77
   3 -11  -7    7.76    4.02
   3 -11   7   16.57    5.79
  -3  11   7   16.46    5.87
  -3  11   7   16.65    4.47
  -3  11   7   16.07    5.70
  -3  11   7   16.60    7.38
   2 -11  -7   22.80    6.51
   2 -11  -7   14.76    9.93
   2 -11  -7   24.12    7.16
  -2  11  -7   25.64    8.83
   2 -11  -7   32.95    6.87
  -2  11   7   34.50    7.20
  -2  11   7   37.94    9.28
  -2  11   7   31.58    8.89
  -2  11   7   32.15    9.21
   2 -11   7   13.73    7.49
   1 -11  -7    1.18    1.87
  -1  11  -7   -7.82    5.74
   1 -11  -7    1.52    4.25
   1 -11  -7   14.41    7.12
   1 -11  -7   -0.13    2.94
   1 -11   7    0.37    6.80
  -1  11   7    8.15    6.76
   1 -11   7   -0.17    3.86
  -1  11   7    2.97    6.63
  -1  11   7    1.28    5.12
   0 -11  -7   48.59   16.49
   0  11  -7   60.23   14.47
   0 -11  -7   53.15   14.05
   0 -11  -7   46.16   13.89
   0 -11  -7   55.83   12.14
   0 -11   7   49.03   12.39
   0 -11   7   49.24   16.64
   0  11   7   53.80   18.79
   0  11   7   68.55   15.47
   1  11  -7  -17.77    7.00
  -1 -11  -7   -1.13    5.46
  -1 -11  -7   -0.90    7.27
   1  11  -7   -5.61    8.76
   1  11   7    3.90    6.93
  -1 -11   7  -12.10    8.36
  -2 -11  -7   25.16    8.72
   2  11  -7   -8.11   13.12
  -2 -11   7   16.20    7.99
   2  11   7   38.05    9.91
   3  11  -7   22.90    9.88
   3  11  -7   10.28    9.16
   4  11  -7   -1.16    8.70
   4  11  -7    7.98    8.39
  -4 -11   7   -0.23    8.15
  -4 -11   7    2.31    5.31
   5  11  -7   36.34   11.27
  -5 -11   7   23.64   11.26
  -5 -11   7   27.99    8.56
   6  11  -7    2.35    9.06
  -6 -11   7    2.99    5.84
  -6 -11   7    9.85    8.56
  -7 -11   7    0.24    5.82
   8 -12  -7   -2.08    4.24
   7 -12  -7   -1.24    3.80
   6 -12  -7   -3.81    8.24
   6 -12  -7   -3.70    3.54
   6 -12  -7   -1.77    4.60
   6 -12  -7   -0.50    3.81
  -6  12   7    0.34    4.86
  -6  12   7   -0.43    6.64
  -6  12   7   -0.21    4.17
   5 -12  -7   12.89    8.62
   5 -12  -7   10.89    4.71
  -5  12   7    5.64    5.28
  -5  12   7   10.75    6.28
  -5  12   7    8.84    4.34
   4 -12  -7  -12.80    8.41
   4 -12  -7   -2.54    3.62
  -4  12  -7   -1.94    8.05
  -4  12   7    2.20    5.24
   4 -12   7   -4.77    5.37
  -4  12   7    3.02    7.54
   3 -12  -7   34.86    9.62
   3 -12  -7   32.37   13.45
  -3  12  -7   42.51   12.76
  -3  12   7   43.24   12.57
  -3  12   7   43.32   11.34
   3 -12   7   42.36   10.06
  -2  12  -7    1.61    6.41
   2 -12  -7    0.98    7.77
   2 -12  -7   -0.68    4.12
  -2  12   7   -1.48    6.81
   2 -12   7   -3.91    4.40
   2 -12   7    0.20    7.39
  -2  12   7    3.13    7.45
   1 -12  -7  101.65   30.87
  -1  12  -7  123.39   27.63
   1 -12  -7   91.75   25.91
   1 -12   7  105.97   23.65
   1 -12   7   72.77   30.30
  -1  12   7  112.51   30.55
  -1  12   7   92.64   28.51
   0  12  -7   11.10    6.85
   0 -12  -7   -0.22    5.69
   0 -12  -7    2.20    8.22
   0 -12   7    6.23    4.87
   0  12   7   -0.79    8.06
   0  12   7    5.06    8.86
   0 -12   7    2.77    9.37
   1  12  -7  155.43   30.33
  -1 -12  -7   62.97   32.64
   1  12  -7  130.28   33.37
  -1 -12  -7  104.97   29.16
  -1 -12   7  106.19   33.35
  -1 -12   7  117.26   25.84
   1  12   7  114.67   30.66
   2  12  -7    6.14    8.37
   2  12  -7  -10.11   10.28
  -2 -12  -7    2.95    6.55
  -2 -12  -7   -0.53    8.06
  -2 -12   7   -0.21    5.61
  -2 -12   7    4.64   10.10
   2  12   7   -0.94    8.12
   3  12  -7   48.75   14.07
   3  12  -7   44.21   14.17
  -3 -12  -7   31.49   11.32
  -3 -12   7   29.54   10.47
  -3 -12   7    6.37   13.93
   4  12  -7   -5.91   10.04
   4  12  -7    0.72    9.53
  -4 -12   7    6.92    5.89
  -5 -12   7    0.48    6.27
   6 -13  -7   -8.91    5.62
  -6  13   7  -13.90    8.28
   5 -13  -7   17.09    9.57
   5 -13  -7   -0.77    4.49
  -5  13   7   -4.76    6.75
   4 -13  -7   -4.53    4.25
   4 -13  -7   14.08    9.42
  -4  13  -7   12.41    8.10
   4 -13   7   -0.20    7.62
   4 -13   7    0.28    5.64
  -4  13   7    2.95    5.97
  -4  13   7   12.51    8.84
   3 -13  -7   -0.18    4.18
   3 -13  -7    6.38    8.60
  -3  13   7   -2.50    6.54
  -3  13   7   -6.42    8.83
   2 -13  -7   27.82   11.97
   2 -13  -7   19.60    8.06
  -2  13   7   31.88   10.94
  -2  13   7   11.88   11.29
   1 -13  -7    3.42    8.62
   1 -13  -7    3.37    5.36
  -1  13   7    4.37    8.42
  -1  13   7   18.78    8.72
   0 -13  -7   37.76   11.66
   0 -13  -7   38.05   13.99
   0  13   7   31.25   13.64
   0  13   7   53.02   15.00
  -1 -13  -7   11.31    9.36
  -1 -13  -7    5.33    6.84
   1  13   7    0.31    8.89
  -2 -13  -7   50.82   13.79
  -2 -13  -7   32.71   11.90
   2  13   7   59.10   13.45
   4  13  -7   -1.48   11.17
  -4 -13   7    0.57   10.73
   5  13  -7  -24.27   11.40
  -5 -13   7   -1.19   10.63
  -5 -13   7    2.34    6.46
   6  13  -7   -2.01   11.09
  -6 -13   7   -0.27    6.96
   7  13  -7   -4.27   10.73
  -7 -13   7   -2.49    6.80
  -5  14   7   -9.61    7.53
  -4  14  -7    5.75    9.41
   4 -14  -7    9.01    5.18
  -4  14   7   17.57    7.28
   4 -14   7    3.18    9.03
   4 -14   7   10.25    6.67
  -3  14  -7    0.56    9.14
   3 -14  -7   -6.69    5.15
  -3  14   7   -4.79    7.58
   3 -14   7    0.27    5.56
  -2  14  -7   23.60   11.40
   2 -14  -7   19.64    8.68
   2 -14   7   17.69    8.30
  -2  14   7   36.10   11.82
  -1  14  -7    3.21    8.45
  -1  14   7   13.41    9.81
   1 -14   7  -26.02   12.02
   1 -14   7  -22.84    5.88
   0  14  -7  -34.58   15.51
   0  14  -7  -22.77   10.73
   1  14  -7   58.61   22.73
   1  14  -7   -0.25    9.69
   2  14  -7   47.02   13.91
   2  14  -7   52.81   16.89
  -2 -14  -7    7.90   13.84
   2  14   7    9.90   13.13
  -2 -14   7   58.31   11.08
   3  14  -7   -5.62   11.71
   3  14  -7   11.94   12.58
  -3 -14   7  -24.75    7.50
   4  14  -7   -4.22   12.74
   4  14  -7   22.31   12.35
  -4 -14   7    2.21    7.25
  -4 -14   7    2.24   12.06
   5  14  -7   -0.43   12.60
   5  14  -7   -0.30   12.14
  -5 -14   7   -0.28    7.35
  -5 -14   7  -17.84   11.95
   6  14  -7   18.27   12.28
   6  14  -7    0.89   12.12
  -6 -14   7   13.65   11.58
  -6 -14   7    3.78    7.58
   7  14  -7    4.67   11.63
  -7 -14   7   -0.30    7.40
   5 -15  -7    1.58    5.27
   5 -15  -7    9.48   11.87
  -5  15   7   20.97    8.16
  -5  15   7    2.17   11.11
  -4  15  -7    7.99   10.39
   4 -15  -7    2.16    5.32
   4 -15  -7   -2.22   11.37
   4 -15   7    7.45    6.76
  -4  15   7   -8.74   11.30
   4 -15   7    1.54   10.16
   3 -15  -7   -7.46   11.06
   3 -15  -7   -3.06    5.31
  -3  15  -7   -3.71    9.50
   3 -15   7   10.71    6.11
  -3  15   7    0.32   11.03
  -3  15   7   26.47    7.73
   3 -15   7   -9.35   10.45
  -2  15  -7   -7.41    9.37
   2 -15  -7    0.24    6.07
   2 -15  -7  -14.39   11.03
   2 -15   7    0.27    6.09
  -2  15   7   -0.24    9.13
  -2  15   7   -2.25   10.89
  -1  15  -7  -19.81    8.99
   1 -15  -7    6.03    6.73
   1 -15  -7   12.29   10.45
  -1  15   7    5.51   10.43
  -1  15   7   16.74   11.18
   1 -15   7    0.26    6.14
   0 -15  -7  -10.66    7.53
   0  15  -7    1.03    9.34
   0 -15  -7    5.96   11.00
   0  15  -7  -37.49   15.70
   0  15   7   -2.89   12.31
   0 -15   7  -28.27   13.37
   0 -15   7   -0.53    6.90
   0  15   7   -5.39   10.69
  -1 -15  -7   -8.76   10.49
  -1 -15  -7   -3.47    7.79
   1  15  -7   11.85   10.32
   1  15  -7   -6.04   16.94
   1  15   7   -4.67   12.49
  -1 -15   7   -0.28    7.88
  -1 -15   7  -24.73   13.62
   1  15   7    6.39   10.68
   2  15  -7   -0.88   15.20
  -2 -15  -7    6.08    8.28
  -2 -15  -7   -1.97   10.34
   2  15  -7    8.11   11.15
  -2 -15   7    8.21   13.47
   2  15   7   -0.40   10.89
  -2 -15   7   -5.47    7.62
   3  15  -7    3.65   14.38
  -3 -15  -7  -13.53    8.76
   3  15  -7   -0.31   11.82
  -3 -15   7  -38.50   13.74
  -3 -15   7    0.30    7.44
   4  15  -7    8.27   13.13
   4  15  -7    7.60   14.45
  -4 -15   7   16.04   13.51
  -4 -15   7    0.30    7.72
   5  15  -7    3.86   13.85
   5  15  -7    2.90   13.00
  -5 -15   7    1.22    7.46
  -5 -15   7    8.06   13.03
   6  15  -7   39.63   14.38
   6  15  -7    6.52   13.82
  -6 -15   7    0.63    8.56
  -6 -15   7   20.24   13.31
   7  15  -7   12.32   13.25
  -7 -15   7    5.11    8.23
  -5  16  -7   -8.73   11.95
   5 -16   7    0.28   12.15
  -5  16   7  -37.25   12.78
   4 -16  -7  -23.08    7.79
  -4  16  -7   -1.90   11.66
   4 -16   7    5.98    7.74
   4 -16   7   15.44   12.13
  -4  16   7   34.64   14.33
   3 -16  -7  -13.10    6.34
  -3  16  -7  -13.35   11.01
   3 -16  -7   -9.87   12.18
  -3  16   7  -11.67   12.42
  -3  16   7  -20.89    9.67
   3 -16   7    1.56   12.37
   3 -16   7    3.88    6.80
  -2  16  -7    4.92    9.92
   2 -16  -7  -11.19   12.08
   2 -16  -7  -11.88    6.47
   2 -16   7   -9.43    6.55
  -2  16   7   -6.95   11.88
  -2  16   7    9.27   10.50
  -1  16  -7  -18.25   10.39
   1 -16  -7    7.70   11.72
   1 -16  -7   -5.87    7.42
  -1  16  -7  -13.22   15.44
   1 -16   7  -10.01    6.69
  -1  16   7    1.92   12.60
  -1  16   7   16.76   11.78
   0 -16  -7  -21.70   11.95
   0 -16  -7   -1.58    8.39
   0  16  -7    2.62   10.29
   0  16  -7   20.92   16.18
   0  16   7   -5.58   12.13
   0  16   7    4.15   12.73
   0 -16   7  -24.86   14.30
   0 -16   7   12.89    7.01
  -1 -16  -7   13.01    8.56
   1  16  -7  -23.64   15.80
  -1 -16  -7  -14.39   11.35
   1  16  -7    3.39   11.38
   1  16   7   12.98   13.98
  -1 -16   7    0.38   14.68
   1  16   7   -2.90   11.67
  -1 -16   7   -3.35    7.65
  -2 -16  -7   -1.78   11.13
  -2 -16  -7    8.38    9.26
   2  16  -7   -3.33   12.77
   2  16  -7   33.33   16.38
   2  16   7   14.55   14.82
  -2 -16   7    0.38   14.87
  -2 -16   7  -12.66    7.85
   2  16   7   10.05   12.08
  -3 -16  -7    0.38    9.65
   3  16  -7   19.24   13.83
   3  16  -7  -33.94   16.44
  -3 -16   7   -9.40    8.38
  -3 -16   7   -0.39   13.88
   4  16  -7   43.32   17.57
   4  16  -7   14.26   14.54
  -4 -16   7   63.44   16.46
  -4 -16   7   17.99    9.68
   5  16  -7   -3.25   15.43
   5  16  -7    1.41   13.65
  -5 -16   7   15.89   14.74
  -5 -16   7    1.00    8.43
   6  16  -7   12.16   15.39
   6  16  -7   10.25   14.41
  -6 -16   7   17.38   13.77
  -6 -16   7  -10.47    8.26
   7  16  -7    3.92   14.62
   7  16  -7   15.90   14.45
  -7 -16   7    0.34    8.47
  -5  17  -7   -6.07   12.01
   5 -17   7  -24.51   13.36
   4 -17  -7    6.81    6.20
   4 -17  -7    1.04   13.19
  -4  17  -7    0.42   12.63
   4 -17   7  -16.47   13.75
  -4  17   7   10.51    9.50
   4 -17   7  -16.55    8.01
  -4  17   7   -9.35   13.24
   3 -17  -7   25.40   13.96
   3 -17  -7    8.05    6.52
  -3  17  -7   -0.38   11.99
  -3  17   7    4.73    9.85
   3 -17   7    7.15    7.61
  -3  17   7  -15.46   14.03
   3 -17   7  -10.89   14.23
   2 -17  -7    1.47    7.36
   2 -17  -7   -0.35   12.88
  -2  17  -7   -4.15   10.92
   2 -17   7    0.34    7.26
  -2  17   7    0.41   13.84
  -2  17   7    9.27   11.19
   1 -17  -7  -11.63    8.13
   1 -17  -7   -5.33   13.21
  -1  17  -7   -6.03   11.52
  -1  17   7   15.52   13.12
   1 -17   7   16.73    7.58
  -1  17   7   12.89   13.84
   0  17  -7    0.33   11.50
   0 -17  -7  -15.05   13.17
   0  17  -7   -9.31   17.35
   0 -17  -7   -1.04    8.73
   0  17   7   25.65   14.00
   0 -17   7    0.41   16.17
   0 -17   7    4.63    7.92
   0  17   7   16.72   14.21
   1  17  -7   -0.67   12.13
  -1 -17  -7   -8.22    9.92
  -1 -17  -7   -5.64   12.54
   1  17  -7   26.77   17.84
  -1 -17   7    1.01    7.89
   1  17   7   -7.33   13.46
  -1 -17   7   -0.42   15.81
   1  17   7    0.75   15.32
  -2 -17  -7    8.94   13.35
   2  17  -7   19.96   17.75
   2  17  -7    7.69   13.50
  -2 -17  -7  -56.51   16.22
   2  17   7   39.47   16.44
  -2 -17   7   -0.35    8.57
   2  17   7   11.97   15.67
  -2 -17   7  -40.66   16.22
   3  17  -7  -25.20   18.98
  -3 -17  -7   24.71   11.00
   3  17  -7    9.07   14.68
  -3 -17   7    0.44   15.68
  -3 -17   7   -3.94    8.92
   3  17   7   -0.78   16.35
   4  17  -7   -7.84   17.86
   4  17  -7   -9.59   15.12
  -4 -17   7   -7.22    8.80
  -4 -17   7    0.45   15.60
   5  17  -7  -29.17   17.64
   5  17  -7    0.38   15.05
  -5 -17   7   -6.13    9.05
  -5 -17   7   -0.45   16.07
   6  17  -7    2.69   15.39
   6  17  -7   43.31   16.98
  -6 -17   7    5.83    8.95
  -6 -17   7  -20.62   15.79
   7  17  -7  -37.91   18.42
   7  17  -7  -26.61   17.35
  -5  18  -7   35.30   15.61
   5 -18   7  -32.95   15.23
  -4  18   7   -1.31   14.82
   3 -18  -7   19.58   14.56
  -3  18  -7    4.71   13.67
   3 -18  -7   -1.21    7.05
   3 -18   7   10.26   15.60
  -3  18   7   -2.07   10.92
  -3  18   7    6.75   15.15
   3 -18   7   -7.94    8.60
   2 -18  -7   -5.17    7.97
   2 -18  -7  -33.86   14.71
  -2  18  -7    0.41   13.03
  -2  18   7    6.05   15.26
   2 -18   7  -13.85    8.45
   2 -18   7    6.64   16.94
  -2  18   7   15.19   12.35
  -1  18  -7   -7.19   12.83
   1 -18  -7   -0.35    8.37
   1 -18  -7  -20.88   14.94
   1 -18   7   18.81    9.01
  -1  18   7   16.33   14.59
  -1  18   7   29.35   15.04
   0  18  -7    9.78   13.58
   0 -18  -7  -12.60   14.48
   0 -18  -7    1.15    9.16
   0  18  -7  -13.77   19.15
   0 -18   7    0.37    8.30
   0  18   7    0.49   14.24
   0  18   7  -31.48   16.50
   1  18  -7   -0.60   19.67
  -1 -18  -7   -3.66   10.38
   1  18  -7    0.38   13.72
  -1 -18  -7   -0.41   13.76
   1  18   7   15.22   15.14
  -1 -18   7  -13.82    8.93
  -1 -18   7  -13.37   17.76
   1  18   7    3.70   16.48
   2  18  -7    7.14   14.97
  -2 -18  -7  -24.34   10.80
   2  18  -7   11.98   19.71
   2  18   7   12.64   14.03
   2  18   7   12.24   17.13
  -2 -18   7    5.68   17.63
  -2 -18   7    3.07    9.23
   3  18  -7   -3.77   15.87
   3  18  -7  -18.39   20.77
  -3 -18  -7  -18.64   11.18
   3  18   7  -18.28   17.25
  -3 -18   7    1.17    9.52
  -3 -18   7   15.98   17.90
   4  18  -7   -9.25   16.67
   4  18  -7  -12.85   21.50
   5  18  -7   58.81   21.39
   5  18  -7    0.42   17.47
   6  18  -7  -16.30   16.83
   6  18  -7   11.10   18.16
  -6 -18   7   16.27   17.60
  -6 -18   7   -5.52    9.83
   7  18  -7   -5.02   16.81
   7  18  -7  -23.99   18.92
  -7 -18   7    7.57    9.98
  -5  19  -7   -6.34   15.19
   5 -19   7   -0.41   16.49
  -4  19  -7    8.34   15.92
   4 -19   7   -7.66   17.41
   4 -19   7  -11.77    9.97
  -3  19  -7    6.57   19.01
  -3  19  -7   -1.93   15.35
   3 -19  -7   -6.33    7.70
   3 -19   7   -9.33   18.04
   3 -19   7   -1.77    9.60
  -3  19   7    3.38   12.80
  -3  19   7    3.51   16.18
   2 -19  -7  -15.70   16.43
  -2  19  -7    2.75   15.41
  -2  19  -7   -6.32   19.42
   2 -19  -7    7.16    8.97
  -2  19   7    2.10   16.56
   2 -19   7  -10.15   18.28
  -2  19   7    3.89   13.82
   2 -19   7  -14.56    9.25
   1 -19  -7   -1.56    9.88
  -1  19  -7   -5.13   14.93
   1 -19  -7   10.58   16.50
  -1  19   7   14.87   15.98
  -1  19   7   11.24   16.30
   1 -19   7   12.99   10.07
   0  19  -7    7.19   15.09
   0 -19  -7   -7.22   10.10
   0 -19  -7  -10.35   15.74
   0  19   7   -1.64   16.07
   0  19   7    5.69   17.56
   0 -19   7    1.63    9.80
  -1 -19  -7   26.59   11.63
   1  19  -7    7.19   15.81
   1  19  -7  -12.66   22.54
  -1 -19  -7    2.29   15.83
  -1 -19   7   11.21   19.94
   1  19   7   35.41   19.04
   1  19   7   -9.56   16.25
  -1 -19   7   29.71   10.84
  -2 -19  -7    7.88   11.70
   2  19  -7   23.21   23.16
   2  19  -7    4.37   16.18
   2  19   7   -6.46   19.21
   2  19   7  -13.36   15.44
  -2 -19   7    6.30   10.44
  -2 -19   7   29.37   20.08
   3  19  -7   20.78   22.86
   3  19  -7    5.92   17.72
  -3 -19  -7   18.21   11.93
  -3 -19   7   -7.67   10.50
   3  19   7  -30.48   19.13
  -3 -19   7   -1.63   20.51
   4  19  -7   -0.76   23.38
   4  19  -7   -3.22   17.97
  -4 -19   7   31.45   20.19
  -4 -19   7    1.30   11.36
   5  19  -7  -30.73   22.61
   5  19  -7    9.16   17.97
  -5 -19   7   17.42   20.27
  -5 -19   7   -4.73   10.60
   6  19  -7   14.83   20.50
   6  19  -7    4.99   17.57
  -6 -19   7  -23.89   10.96
  -6 -19   7    0.57   15.97
   2 -20  -7  -14.94   18.56
   2 -20  -7   -3.56    9.59
  -2  20   7   11.56   14.80
  -2  20   7   -2.33   18.07
   1 -20  -7  -10.26   18.00
   1 -20  -7    9.05   10.51
  -1  20   7    7.40   16.12
  -1  20   7  -33.30   18.54
   0 -20  -7    6.49   17.44
   0 -20  -7   -2.78   11.66
   0  20   7   -0.96   19.14
   0  20   7   13.97   17.90
  -1 -20  -7   15.13   12.20
  -1 -20  -7  -20.21   17.45
   1  20   7  -20.42   20.06
   1  20   7   14.97   17.66
  -2 -20  -7  -19.07   12.27
   2  20   7    3.86   16.73
   2  20   7   15.56   20.26
   0   0  -8   77.02   17.80
   0   0  -8   78.03   16.73
   0   0   8   61.68   19.64
   1   0  -8    0.18    0.63
   0   1  -8   -0.07    0.76
   1   0  -8   -0.56    0.90
   0  -1  -8   -0.25    1.09
   0  -1  -8   -0.07    0.77
   0   1   8   -0.14    1.67
  -1   0   8   -0.19    1.43
   1   1  -8   25.86    6.10
   1   1  -8   27.46    5.88
   1  -1  -8   29.67    5.70
   1  -1  -8   25.23    5.91
  -1  -1   8   23.95    7.19
  -1  -1   8   20.87    6.97
  -1   1   8   18.10    6.89
   2   1  -8   -0.32    0.98
   2   1  -8    0.42    1.00
   1  -2  -8    1.08    1.11
   2   1  -8   -0.04    0.69
  -2  -1   8    0.84    0.81
  -2  -1   8    0.29    1.30
  -2  -1   8    0.20    1.26
  -1   2   8    0.89    1.68
   2   0  -8    1.33    0.74
   0  -2  -8    1.61    1.36
   0   2  -8    0.77    0.91
   2   0  -8    2.72    1.03
   0  -2   8    0.79    0.99
   0   2   8    1.03    1.91
  -2   0   8    0.44    1.28
   1   2  -8    0.39    1.09
   1   2  -8    0.82    0.61
   1   2  -8    0.99    1.38
   2  -1  -8    0.55    0.76
   2  -1  -8   -0.11    1.01
  -1  -2   8    1.04    1.54
  -1  -2   8    0.92    1.06
  -2   1   8    0.18    1.40
  -1  -2   8    0.92    1.48
   2   2  -8   -0.14    1.33
   2   2  -8   -0.16    0.67
   2   2  -8   -0.08    0.95
   2  -2  -8    1.17    1.17
  -2  -2   8    1.43    1.80
  -2   2   8    0.24    1.59
  -2  -2   8    0.48    1.09
  -2  -2   8    0.27    1.30
   2  -3  -8    0.96    1.85
   3   2  -8    2.92    2.34
   3   2  -8    1.07    1.03
   2  -3  -8    0.58    0.95
   3   2  -8    1.16    1.08
  -3  -2   8    0.43    2.63
  -2   3   8    1.52    1.83
  -3  -2   8    0.99    1.36
  -3  -2   8    0.45    1.18
  -2   3   8    1.39    1.40
   3   1  -8   43.00   12.25
  -3  -1   8   45.37    9.97
  -3  -1   8   54.18   10.25
   0   3  -8   -0.30    0.96
   3   0  -8    1.05    1.11
   0  -3  -8   -0.09    1.54
   0   3  -8   -0.31    1.84
   3   0  -8    0.06    0.92
   0  -3   8   -0.34    1.57
   0  -3   8    0.29    1.52
   0   3   8   -0.08    2.29
  -3   0   8    1.70    1.09
   1   3  -8   40.47    9.31
   1   3  -8   42.02   10.94
   1   3  -8   35.05    9.99
  -1  -3   8   32.14   10.90
  -1  -3   8   50.18    9.59
  -1  -3   8   42.84   10.72
   2   3  -8    0.50    1.01
   2   3  -8    0.80    0.75
   2   3  -8    0.47    1.83
  -2  -3   8    0.10    1.41
  -2  -3   8    1.61    1.38
  -2  -3   8    0.53    2.37
   3   3  -8  215.03   45.40
   3  -3  -8  168.98   48.79
   3   3  -8  204.62   47.64
   3  -3  -8  229.73   41.67
   3  -3  -8  197.06   41.36
   3  -3  -8  127.24   44.17
   3   3  -8  207.51   42.72
  -3   3   8  210.71   45.90
  -3  -3   8  201.06   45.90
  -3  -3   8  189.75   43.38
  -3  -3   8  212.03   52.78
  -3   3   8  126.97   48.31
   3  -4  -8   43.04   12.75
   3  -4  -8   59.68   11.01
   3  -4  -8   42.42   10.78
   4   3  -8   47.93   11.90
   4   3  -8   67.58   14.26
   4   3  -8   48.02   11.86
   3  -4  -8   53.46   12.21
  -3   4   8   52.91   11.21
  -3   4   8   46.88   12.20
  -4  -3   8   52.79   12.04
  -4  -3   8   42.05   11.85
  -3   4   8   48.88   12.69
  -4  -3   8   59.82   15.56
   2  -4  -8   47.21    8.77
   4   2  -8   34.78    9.86
   4   2  -8   43.04   10.02
   2  -4  -8   48.16    9.27
   2  -4  -8   47.08   12.99
   2  -4  -8   38.91    9.49
  -2   4   8   38.98   11.23
  -4  -2   8   37.58   10.35
  -2   4   8   42.38   10.56
  -4  -2   8   43.08    9.95
  -2   4   8   32.48   10.32
   4   1  -8   -0.06    1.36
   1  -4  -8    0.79    1.01
   1  -4  -8    1.09    1.73
  -1   4   8    1.34    2.14
   0   4  -8  167.50   52.09
   0   4  -8  215.90   56.58
   0  -4   8  256.15   53.60
   0  -4   8  237.23   47.97
   1   4  -8    0.48    1.96
   1   4  -8    0.58    0.64
   4  -1  -8    0.99    1.35
  -4   1   8    0.89    1.45
  -1  -4   8   -0.13    1.67
  -1  -4   8    0.57    1.86
  -1  -4   8    1.50    2.52
   4  -2  -8   42.26    9.38
   2   4  -8   34.41   10.46
   2   4  -8   44.37    9.88
   4  -2  -8   30.47   11.35
   2   4  -8   46.81    9.47
   4  -2  -8   45.57    9.32
  -2  -4   8   38.43    9.27
  -2  -4   8   38.26    9.88
  -2  -4   8   36.47   10.81
  -2  -4   8   39.64   10.46
  -4   2   8   46.47    9.56
   3   4  -8   46.09   10.99
   4  -3  -8   51.80   13.49
   3   4  -8   51.83   11.72
   3   4  -8   50.93   12.23
  -3  -4   8   52.31   13.27
  -3  -4   8   41.55   11.70
  -3  -4   8   39.67   11.20
   4  -4  -8   44.25   13.26
   4   4  -8   62.27   12.53
   4  -4  -8   51.81   11.35
   4  -4  -8   45.97   11.32
  -4  -4   8   42.85   12.39
  -4   4   8   47.51   11.66
  -4  -4   8   49.81   12.43
   4  -5  -8    4.26    1.85
   4  -5  -8    4.05    2.57
   4  -5  -8    3.16    1.92
   4  -5  -8    3.05    1.85
   5   4  -8    4.56    1.94
  -4   5   8    5.15    2.18
  -4   5   8    1.51    2.41
   5   3  -8  102.83   24.22
   3  -5  -8   78.86   25.35
   3  -5  -8  102.55   21.88
   3  -5  -8   99.95   23.76
   3  -5  -8  102.12   21.21
  -3   5   8  107.80   22.10
  -3   5   8   86.43   24.38
  -3   5   8   96.65   24.72
   2  -5  -8    9.60    2.66
   2  -5  -8   10.58    2.72
   2  -5  -8   10.79    2.40
   2  -5  -8   11.01    4.03
  -2   5   8   11.89    3.70
  -2   5   8   11.08    3.24
  -2   5   8    7.87    3.48
   1  -5  -8   68.11   23.73
   1  -5  -8  118.78   20.64
   5   1  -8  105.26   23.59
   1  -5  -8   89.16   31.97
  -1   5  -8   73.04   28.61
   1  -5   8   81.67   25.16
   1  -5   8  119.25   23.52
  -1   5   8   92.26   27.54
  -1   5   8   99.17   26.34
   0  -5  -8    4.03    1.79
   5   0  -8    1.54    1.67
   0   5  -8    0.10    0.96
   0  -5  -8    0.73    1.16
   0  -5  -8   -1.52    2.56
   5   0  -8   -0.75    1.77
   0  -5   8   -0.07    2.71
   0   5   8    4.66    2.91
  -5   0   8   -0.56    1.68
   1   5  -8  107.62   23.63
  -1  -5  -8   98.50   21.71
   5  -1  -8   98.82   23.54
   2   5  -8    6.94    2.47
   5  -2  -8   11.69    2.73
   2   5  -8    5.22    2.40
   5  -2  -8    7.54    2.84
  -2  -5   8    9.05    2.89
  -5   2   8   11.68    2.84
  -2  -5   8   11.21    2.46
   3   5  -8   97.42   21.80
   3   5  -8   79.90   23.10
   5  -3  -8   86.97   21.30
  -3  -5   8   84.05   23.19
  -3  -5   8   91.45   23.07
   5  -4  -8    4.81    2.12
   4   5  -8    4.27    1.62
   4   5  -8    0.44    4.20
   5  -4  -8    2.45    2.28
   5  -4  -8    3.05    2.06
  -4  -5   8    6.32    4.53
  -5   4   8    3.94    2.26
   5   5  -8   46.73   16.51
   5  -5  -8   62.71   12.77
   5  -5  -8   55.49   12.80
   5  -5  -8   56.39   15.71
   5   5  -8   60.66   14.81
  -5  -5   8   72.07   14.13
  -5   5   8   42.44   13.07
   5  -6  -8   18.45    4.64
   5  -6  -8   19.92    4.73
  -5   6   8   21.11    4.87
  -6  -5   8   20.21    5.35
   4  -6  -8   30.80    7.75
   4  -6  -8   33.48    7.99
   4  -6  -8   37.43    9.24
  -4   6   8   43.62    8.31
  -4   6   8   24.18    9.00
   3  -6  -8  107.39   25.76
   3  -6  -8  104.93   26.75
   3  -6  -8   85.27   29.86
   3  -6  -8  123.97   24.74
  -3   6   8   97.77   28.40
  -3   6   8  118.91   25.90
  -3   6   8   97.71   29.02
  -3   6   8  130.47   27.17
  -2   6  -8   18.25   12.60
   2  -6  -8   40.60    9.72
   2  -6  -8   47.91    9.80
   2  -6  -8   45.68   12.58
   2  -6  -8   47.36    9.18
  -2   6   8   44.69   11.45
  -2   6   8   50.17   11.18
   2  -6   8   46.00   10.75
  -2   6   8   36.04   10.83
   1  -6  -8   15.09    2.92
   1  -6  -8   13.10    3.70
  -1   6  -8   17.52    4.80
   1  -6  -8   16.09    3.39
  -1   6   8   11.79    4.33
   1  -6   8   13.78    4.18
   1  -6   8   12.89    3.69
   0  -6  -8    5.79    1.58
   6   0  -8    5.85    2.22
   0  -6  -8    7.04    2.39
   0   6  -8    3.57    2.92
   0   6  -8    3.10    1.44
  -6   0   8    3.62    2.14
   0  -6   8    5.54    2.45
   0  -6   8    4.08    3.30
   0   6   8    5.10    3.58
  -1  -6  -8   12.37    2.93
   6  -1  -8   13.02    3.33
   1   6  -8    7.74    2.72
   1   6  -8   13.85    4.08
   6  -1  -8   15.50    3.42
  -1  -6   8   12.77    4.67
  -1  -6   8   13.84    3.37
  -6   1   8   12.56    3.38
   6  -2  -8   45.76   10.46
   2   6  -8   37.69   11.54
   2   6  -8   43.12   10.86
   6  -2  -8   51.10   10.33
   2   6  -8   46.55   11.51
  -6   2   8   50.51   10.44
  -2  -6   8   46.79   10.14
  -2  -6   8   39.64   10.77
  -2  -6   8   43.70   12.36
  -2  -6   8   55.32   12.25
   3   6  -8  101.81   28.49
   6  -3  -8  111.10   26.02
   3   6  -8  112.46   30.93
   3   6  -8   96.28   26.91
  -3  -6   8  105.69   28.36
  -3  -6   8  120.25   30.29
  -3  -6   8  134.09   26.52
   4   6  -8   25.76    9.97
   4   6  -8   28.63    8.77
   6  -4  -8   37.18    8.07
   6  -4  -8   39.54    8.18
  -4  -6   8   35.70    8.79
  -6   4   8   37.47    8.25
   6  -5  -8   15.17    4.52
   6  -5  -8   23.62    4.69
   6  -5  -8   20.35    5.36
   5   6  -8   17.27    6.90
   5   6  -8    5.86    4.85
  -5  -6   8   18.41    5.40
  -5  -6   8   27.18    7.37
  -6   5   8   20.57    4.69
   6  -6  -8   -0.73    2.64
   6  -6  -8    1.18    2.55
  -6  -6   8    1.04    3.72
  -6   6   8   -1.41    2.65
   6  -7  -8    3.44    2.83
   6  -7  -8    1.72    2.67
   6  -7  -8    1.95    3.66
  -6   7   8    2.38    2.93
   5  -7  -8    1.52    3.67
   5  -7  -8    2.01    2.59
   5  -7  -8    1.30    2.47
  -5   7   8    1.44    2.61
  -5   7   8    8.64    3.11
   4  -7  -8   65.46   14.22
   4  -7  -8   54.84   16.27
  -4   7   8   57.16   14.39
  -4   7   8   54.01   16.02
   3  -7  -8   26.53    6.53
   3  -7  -8   33.19    6.93
   3  -7  -8   21.98    8.46
  -3   7   8   20.08    7.81
  -3   7   8   31.58    8.14
  -3   7   8   24.30    6.93
   2  -7  -8   45.25   17.62
  -2   7  -8   47.17   17.65
   2  -7  -8   57.21   13.69
   2  -7  -8   39.89   12.92
  -2   7   8   46.01   15.45
   2  -7   8   82.44   14.53
   2  -7   8   76.13   15.23
  -2   7   8   61.57   16.43
   1  -7  -8   22.29    7.78
  -1   7  -8   34.07   10.64
   1  -7  -8   57.92    9.22
   1  -7   8   29.58    8.76
   1  -7   8   36.09    9.89
   0  -7  -8  -13.55    4.13
   0  -7  -8   -2.32    1.67
   0   7  -8   -2.00    3.35
   0   7  -8   -0.65    0.73
   0  -7  -8   -4.46    3.06
   0  -7   8   -2.71    2.86
   0   7   8  -12.73    6.12
   0   7   8   -9.65    5.17
   0  -7   8   -5.46    4.60
   1   7  -8   39.02   10.14
  -1  -7  -8   50.70   10.58
  -1  -7  -8   33.47    8.25
  -1  -7   8   32.21   11.18
   2   7  -8   73.69   16.62
   2   7  -8   60.90   16.10
  -2  -7   8   44.58   17.20
  -2  -7   8   65.37   14.01
   3   7  -8   27.03    9.01
   7  -3  -8   28.58    7.17
   3   7  -8   26.08    8.73
  -3  -7   8   27.85    7.44
  -3  -7   8   31.30    9.13
   4   7  -8   56.44   16.50
   7  -4  -8   58.93   14.22
   7  -4  -8   60.57   14.35
  -7   4   8   55.78   14.55
  -4  -7   8   60.45   17.42
  -4  -7   8   63.18   15.19
   7  -5  -8    1.98    2.88
   7  -5  -8    3.89    2.69
   5   7  -8    1.69    5.53
  -7   5   8    0.63    2.81
  -5  -7   8   -1.76    6.03
  -5  -7   8    0.30    3.69
   7  -6  -8    1.28    2.90
   7  -6  -8    2.56    2.97
  -7   6   8    1.80    2.93
  -6  -7   8    1.78    4.01
   7  -7  -8   23.36    5.81
   7  -7  -8   23.69    5.85
   7  -7  -8   27.75    7.19
  -7  -7   8   16.94    6.52
  -7   7   8    9.97    6.04
   7  -8  -8    1.16    3.22
   7  -8  -8   -0.23    3.33
  -7   8   8    1.64    3.51
   6  -8  -8   17.21    5.42
   6  -8  -8   14.68    4.04
   6  -8  -8    7.44    4.14
  -6   8   8    7.60    4.12
   5  -8  -8    0.66    2.60
   5  -8  -8   -0.23    2.75
   5  -8  -8   -5.77    3.14
   5  -8  -8   -1.10    4.37
  -5   8   8    1.22    4.01
  -5   8   8    0.14    2.80
   4  -8  -8   -3.20    2.52
   4  -8  -8    0.10    4.34
   4  -8  -8   -0.13    2.08
   4  -8  -8    1.38    2.35
  -4   8   8   -1.00    2.70
  -4   8   8    1.11    3.51
  -4   8   8   -0.92    3.34
   3  -8  -8   58.84   14.82
   3  -8  -8   74.75   15.57
   3  -8  -8   65.20   18.12
   3  -8  -8   73.07   15.06
  -3   8   8   39.28   16.55
   3  -8   8   69.73   16.49
  -3   8   8   63.29   15.70
  -3   8   8   45.04   16.59
  -3   8   8   76.10   18.06
   2  -8  -8    0.35    4.43
  -2   8  -8   -0.88    4.61
   2  -8  -8    1.55    2.16
   2  -8  -8    1.77    2.58
   2  -8  -8    1.00    1.59
  -2   8   8    0.71    3.65
   2  -8   8    2.40    3.79
  -2   8   8    0.78    4.24
  -2   8   8    0.64    3.68
   2  -8   8    1.64    3.34
   1  -8  -8   14.94    4.94
  -1   8  -8   22.96    6.98
   1  -8  -8   24.76    6.01
   1  -8  -8   18.10    5.59
   1  -8  -8   21.14    8.07
   1  -8   8   24.17    7.02
  -1   8   8   25.24    7.37
  -1   8   8   19.42    7.42
   1  -8   8   21.45    5.58
   0   8  -8   18.19    5.24
   0  -8  -8    6.67    7.01
   0  -8  -8   12.75    5.21
   0  -8  -8   11.77    4.30
   0  -8  -8   15.80    3.54
   0  -8   8   20.33    6.02
   0  -8   8   14.25    4.22
   0   8   8   12.28    6.29
   0   8   8    9.02    6.35
   1   8  -8   25.90    7.06
  -1  -8  -8   21.81    5.25
  -1  -8  -8   25.23    7.02
  -1  -8   8   16.56    5.74
   1   8   8   17.78    7.86
  -1  -8   8   33.67    7.96
   2   8  -8    0.89    5.69
   2   8  -8    1.23    4.29
  -2  -8   8   -0.12    2.92
  -2  -8   8   -2.46    5.49
   3   8  -8   61.52   18.74
   3   8  -8   71.90   17.52
  -3  -8   8   52.44   18.24
  -3  -8   8   51.29   15.55
   4   8  -8    0.61    6.10
  -4  -8   8    1.38    3.85
  -4  -8   8   -0.98    6.05
   5   8  -8    2.29    6.16
  -5  -8   8    1.70    6.49
  -5  -8   8    0.99    4.18
   6   8  -8   15.37    7.42
  -6  -8   8   10.11    5.29
   8  -7  -8   -1.42    3.31
  -7  -8   8   -0.76    4.54
   8  -8  -8   50.48   12.59
   8  -9  -8    0.17    3.83
   7  -9  -8   38.27    8.99
   7  -9  -8   30.95    8.83
  -7   9   8   37.27    9.40
   6  -9  -8    5.33    3.55
   6  -9  -8   11.18    5.59
   6  -9  -8   11.04    3.75
  -6   9   8    3.54    3.60
   5  -9  -8    1.12    3.13
   5  -9  -8    3.76    2.88
   5  -9  -8    2.17    5.10
   5  -9  -8    1.57    2.96
  -5   9   8    0.15    2.95
  -5   9   8    3.21    3.86
  -5   9   8   -2.24    4.38
   4  -9  -8    7.18    3.12
   4  -9  -8    4.88    2.94
   4  -9  -8    2.56    5.39
   4  -9  -8    0.97    2.65
  -4   9   8    5.09    3.97
  -4   9   8    9.02    3.14
  -4   9   8    7.55    4.28
   3  -9  -8    6.30    5.51
   3  -9  -8    3.93    2.29
   3  -9  -8    2.13    2.72
  -3   9  -8    7.75    5.49
   3  -9  -8    4.06    2.93
  -3   9   8    3.83    2.75
  -3   9   8    4.40    4.02
  -3   9   8    5.64    4.08
  -3   9   8    1.68    4.97
   3  -9   8    5.20    4.39
  -2   9  -8   -2.32    5.00
   2  -9  -8    0.42    2.25
   2  -9  -8   -2.95    5.19
   2  -9  -8   -2.17    2.98
   2  -9  -8   -0.50    1.75
   2  -9   8    0.35    3.47
   2  -9   8   -0.13    4.45
  -2   9   8   -1.97    4.10
  -2   9   8   -0.30    4.97
  -2   9   8   -1.72    4.31
   1  -9  -8    0.91    5.47
   1  -9  -8    5.08    3.27
   1  -9  -8    3.49    1.73
   1  -9  -8    0.60    2.65
  -1   9  -8    1.27    4.24
   1  -9   8   -0.14    5.03
  -1   9   8    1.57    5.26
   1  -9   8   -4.03    3.18
  -1   9   8    0.68    4.54
  -1   9   8    4.83    5.24
   0   9  -8    1.77    4.11
   0  -9  -8    1.78    2.65
   0  -9  -8    0.53    1.60
   0  -9  -8   -2.64    3.86
   0  -9  -8    1.06    6.06
   0   9   8    1.20    5.29
   0   9   8    0.14    4.83
   0  -9   8    2.84    5.55
   0  -9   8   -0.67    2.89
  -1  -9  -8    0.88    1.64
   1   9  -8    7.18    4.66
  -1  -9  -8    0.78    4.66
  -1  -9   8    2.09    6.12
   1   9   8    3.84    5.56
  -1  -9   8    0.68    3.10
  -2  -9  -8    0.44    4.76
   2   9  -8   -1.14    5.05
   2   9  -8   -2.28    6.34
  -2  -9   8    1.56    3.50
  -2  -9   8    1.84    6.49
   3   9  -8    6.50    6.57
   3   9  -8    8.21    5.93
  -3  -9   8    2.22    6.43
  -3  -9   8    3.85    4.04
   4   9  -8    7.36    6.78
   4   9  -8    0.22    6.90
  -4  -9   8    8.30    4.50
  -4  -9   8    6.85    6.58
   5   9  -8   -0.25    6.61
  -5  -9   8   -3.84    7.12
  -5  -9   8   -4.40    4.74
   6   9  -8    2.54    7.19
  -6  -9   8    3.09    5.06
  -6  -9   8    5.52    7.33
  -7  -9   8   28.35    9.11
   8 -10  -8   26.21    7.50
   7 -10  -8   12.91    4.64
   7 -10  -8    7.19    4.25
  -7  10   8   11.34    4.88
   6 -10  -8   10.99    3.98
   6 -10  -8    5.76    6.73
   6 -10  -8   12.79    4.26
  -6  10   8    1.04    5.62
  -6  10   8   10.47    4.32
   5 -10  -8   22.81    6.33
   5 -10  -8   17.11    6.14
   5 -10  -8   14.21    6.12
   5 -10  -8   23.45    8.51
  -5  10   8   30.32    7.64
  -5  10   8   20.20    7.23
  -5  10   8   24.47    6.23
   4 -10  -8   -1.03    3.25
   4 -10  -8    0.57    6.01
   4 -10  -8    1.69    2.84
   4 -10  -8   -1.06    2.73
  -4  10   8   -1.21    4.07
  -4  10   8   -0.32    5.73
  -4  10   8    2.52    4.15
  -4  10   8   -1.01    2.98
   3 -10  -8    3.23    3.16
   3 -10  -8   -0.76    2.22
   3 -10  -8    1.13    2.67
   3 -10  -8    0.88    5.92
  -3  10  -8    3.20    5.89
   3 -10   8    0.22    4.49
  -3  10   8    1.19    2.90
  -3  10   8    0.31    4.23
  -3  10   8   -3.91    5.84
   3 -10   8    5.56    5.11
  -3  10   8   -1.85    4.38
   2 -10  -8    8.48    3.16
   2 -10  -8    5.04    6.75
   2 -10  -8   12.14    4.17
  -2  10  -8   10.24    6.10
   2 -10  -8   10.39    3.71
   2 -10   8   13.15    4.61
  -2  10   8   16.18    6.39
   2 -10   8    4.43    6.04
  -2  10   8   12.20    5.73
  -2  10   8   15.04    3.90
  -2  10   8   10.31    5.43
   1 -10  -8    0.39    2.87
   1 -10  -8    0.20    1.81
  -1  10  -8    1.08    5.02
   1 -10  -8    0.15    3.93
   1 -10  -8    4.39    6.06
  -1  10   8    0.63    4.97
  -1  10   8   -2.90    5.87
  -1  10   8   15.02    6.22
   1 -10   8    0.16    3.47
   1 -10   8   -8.17    5.93
   0 -10  -8   13.00    4.50
   0 -10  -8   24.13    5.54
   0 -10  -8   21.69    6.64
   0  10  -8   18.49    6.65
   0 -10  -8   15.79    8.59
   0  10   8   22.22    8.14
   0  10   8   24.42    8.30
   0 -10   8   24.91    8.25
   0 -10   8   10.70    5.39
   1  10  -8   -0.91    5.62
  -1 -10  -8    2.15    1.93
  -1 -10  -8    0.43    5.10
  -1 -10  -8   -0.86    6.79
  -1 -10   8   -3.16    7.16
  -1 -10   8   -0.15    3.77
   1  10   8    3.45    6.37
  -2 -10  -8   10.35    5.97
   2  10  -8   12.50    8.13
   2  10  -8    7.31    6.53
  -2 -10  -8   11.10    3.26
  -2 -10   8    9.28    4.59
  -2 -10   8    0.19    7.86
   3  10  -8    0.73    7.35
   3  10  -8    7.94    6.68
  -3 -10   8   -0.35    4.32
  -3 -10   8   11.61    7.29
   4  10  -8   -0.58    7.62
   4  10  -8    2.54    7.53
  -4 -10   8    7.32    4.84
  -4 -10   8  -10.48    7.17
   5  10  -8   27.60    9.96
  -5 -10   8   14.68    7.29
   6  10  -8    3.96    8.15
  -6 -10   8    9.79    8.51
  -6 -10   8    4.41    5.65
  -7 -10   8   12.43    5.98
   8 -11  -8    5.95    4.43
   7 -11  -8    5.24    4.30
   7 -11  -8    9.40    3.93
  -7  11   8    1.54    4.44
   6 -11  -8   11.08    5.25
   6 -11  -8   19.80    4.91
  -6  11   8   16.47    5.24
  -6  11   8    9.75    7.02
  -6  11   8   12.17    6.08
   5 -11  -8    1.62    3.28
   5 -11  -8    1.96    7.19
   5 -11  -8   -1.30    3.61
   5 -11  -8    2.82    3.39
  -5  11   8   -0.44    4.87
  -5  11   8    6.93    5.32
  -5  11   8    1.02    3.44
   4 -11  -8   12.62    3.80
   4 -11  -8    7.76    3.68
   4 -11  -8    5.95    3.97
   4 -11  -8    1.32    7.54
  -4  11   8    9.28    5.49
  -4  11   8   12.83    7.11
  -4  11   8   10.22    4.24
  -4  11   8   11.95    5.24
   3 -11  -8    6.37    3.16
  -3  11  -8    5.75    6.70
   3 -11  -8    1.84    7.05
   3 -11  -8    2.77    2.82
   3 -11  -8    4.34    3.65
  -3  11   8    5.02    3.28
  -3  11   8    6.91    6.47
   3 -11   8    0.16    5.97
  -3  11   8    0.79    5.12
  -3  11   8    4.85    4.95
   3 -11   8   11.39    4.97
  -2  11  -8   -4.36    6.70
   2 -11  -8    5.34    4.02
   2 -11  -8    8.29    6.91
   2 -11  -8    1.62    3.09
   2 -11  -8    7.10    2.72
   2 -11   8    3.86    7.02
  -2  11   8    2.73    3.24
  -2  11   8    9.70    5.23
  -2  11   8    5.04    6.19
  -2  11   8    4.13    7.02
   2 -11   8    0.98    5.32
   1 -11  -8   31.55   10.82
   1 -11  -8   29.08   10.74
   1 -11  -8   45.77    9.64
   1 -11  -8   22.87   13.69
  -1  11   8   33.00   14.64
   1 -11   8   39.61   13.47
  -1  11   8   45.45   12.92
  -1  11   8   52.60   13.44
   0 -11  -8   -1.87    7.27
   0 -11  -8   -1.21    1.90
   0 -11  -8    0.16    3.34
   0 -11  -8   -0.81    5.13
   0  11   8   -4.85    7.28
   0  11   8    4.99    6.01
   0 -11   8  -17.88    4.74
  -1 -11  -8   28.48   15.09
  -1 -11  -8   48.71   10.56
  -1 -11  -8   44.86   12.69
   1  11   8   66.44   14.20
   2  11  -8   19.49   10.69
   2  11  -8    8.74    9.31
  -2 -11  -8    0.51    6.54
  -2 -11  -8    5.43    2.51
   3  11  -8    9.76    8.00
   3  11  -8    6.64    9.40
  -3 -11   8   -0.19    5.08
   4  11  -8    8.99    8.63
   4  11  -8   10.37    8.98
  -4 -11   8    4.96    8.54
  -4 -11   8    0.83    5.56
   5  11  -8    7.75    8.88
  -5 -11   8   -7.88    5.71
  -5 -11   8    2.67    8.76
   6  11  -8   14.59    9.49
  -6 -11   8   -2.89    9.42
  -6 -11   8   11.02    6.51
  -7 -11   8    4.28    6.15
   8 -12  -8    3.53    4.27
   7 -12  -8    5.71    4.15
  -7  12   8   -5.16    5.50
  -7  12   8    5.89    4.71
   6 -12  -8    7.03    3.93
   6 -12  -8    1.27    4.23
  -6  12   8    9.86    5.48
  -6  12   8    2.28    4.36
   5 -12  -8    1.31    3.62
   5 -12  -8   -8.43    8.06
   5 -12  -8   -0.56    3.44
   5 -12  -8   -2.28    4.06
  -5  12   8    2.01    3.78
  -5  12   8   -0.12    5.31
  -5  12   8   -2.27    5.42
   4 -12  -8    6.86    4.14
   4 -12  -8   -1.51    8.32
  -4  12   8    2.78    5.49
  -4  12   8    3.80    5.46
  -4  12   8   -0.16    4.31
  -4  12   8    8.21    8.04
  -3  12  -8   -2.06    7.51
   3 -12  -8    1.14    7.56
   3 -12  -8    0.16    3.90
   3 -12   8    0.99    5.28
  -3  12   8    1.20    3.53
  -3  12   8    3.59    5.60
  -3  12   8    4.16    5.18
  -3  12   8   17.47    7.61
   2 -12  -8   25.06   15.75
   2 -12  -8   37.51   12.01
  -2  12  -8   63.19   14.65
  -2  12   8   49.52   14.53
   2 -12   8   44.84   11.62
  -2  12   8   52.71   14.53
   1 -12  -8   -1.90    4.93
  -1  12  -8    1.33    6.50
   1 -12  -8   -0.83    7.72
   1 -12   8    0.21    8.24
  -1  12   8    1.95    7.58
  -1  12   8   -4.28    7.81
   1 -12   8    0.19    4.66
   0 -12  -8   85.04   28.90
   0 -12  -8   86.62   25.15
   0  12  -8  122.09   25.56
   0  12   8  126.03   27.09
   0 -12   8   77.20   22.06
   0 -12   8   82.44   28.74
   0  12   8   98.45   30.20
   1  12  -8   -3.53    7.62
   1  12  -8   -7.96   10.17
  -1 -12  -8    0.50    8.12
  -1 -12  -8   -2.26    6.28
  -1 -12   8    0.20    4.86
   1  12   8   -0.87    7.92
  -1 -12   8    0.24    9.60
   2  12  -8   46.24   15.56
   2  12  -8   45.30   17.25
  -2 -12  -8   32.56   13.79
  -2 -12   8   49.52   12.35
  -2 -12   8   24.56   17.03
   2  12   8   47.88   15.61
   3  12  -8    9.12    9.97
   3  12  -8    8.27    8.84
  -3 -12   8    0.25    9.61
  -3 -12   8  -12.28    5.65
   4  12  -8   41.01   11.84
   5  12  -8   22.37   10.24
  -5 -12   8   -8.80    6.09
   5 -13  -8    4.36    4.58
  -5  13   8   11.04    7.13
  -5  13   8   -8.05    9.15
   4 -13  -8    6.00    4.14
  -4  13  -8   -8.59    8.24
   4 -13  -8   -0.43    8.92
  -4  13   8    1.45    5.96
  -4  13   8    2.86    8.66
   3 -13  -8    3.86    5.32
   3 -13  -8   18.02    9.47
  -3  13  -8   42.89    8.92
   3 -13   8   23.18    6.15
  -3  13   8    6.94    7.08
  -3  13   8   -3.13    8.87
   2 -13  -8    7.83    8.79
   2 -13  -8    2.49    5.14
  -2  13   8    3.50    8.42
   2 -13   8    0.67    8.58
  -2  13   8   -0.74    7.96
   1 -13  -8   30.59   11.95
   1 -13  -8   31.87    8.80
  -1  13   8   23.42   11.47
  -1  13   8   56.23   12.04
   1 -13   8   -0.24   12.48
   0 -13  -8    2.47    8.87
   0 -13  -8   -0.48    6.12
   0  13   8    5.45    9.32
   0  13   8    7.63    8.82
  -1 -13  -8   44.32   10.44
  -1 -13  -8   24.07   12.28
   1  13   8   15.83   12.08
  -2 -13  -8   -2.07    8.32
   2  13   8   59.88    9.70
  -3 -13   8    1.39   11.56
   4  13  -8    2.62   11.84
  -4 -13   8    5.99   10.70
   5  13  -8   -1.63   10.76
   5  13  -8    7.36   11.50
  -5 -13   8    8.28   11.42
  -5 -13   8    0.78    6.84
   6  13  -8    6.82   10.95
  -6 -13   8   -7.48    6.97
  -6 -13   8    4.03   10.63
   7  13  -8   11.86   10.50
  -7 -13   8    0.27    6.95
  -4  14  -8   -7.28    9.15
   4 -14  -8    8.85    4.69
  -4  14   8   -1.44    6.94
   4 -14   8    2.16    6.26
   3 -14  -8   -0.24    8.60
   3 -14  -8    0.19    4.73
  -3  14  -8    4.85    9.33
  -3  14   8   -7.61    7.51
   3 -14   8    0.28    5.94
  -2  14  -8    6.30    8.58
   2 -14  -8   -4.90    5.67
  -2  14   8   -0.21    8.79
   2 -14   8  -25.94   10.23
   2 -14   8    0.25    5.99
  -1  14  -8   15.69    9.20
   1 -14  -8    2.80    6.82
   1 -14   8    3.81    5.98
  -1  14   8  -10.51   10.08
   1 -14   8   23.00   11.92
   0  14  -8   67.32   28.14
   0  14  -8   59.38   23.23
   0 -14   8   65.25   19.23
   1  14  -8   42.44   12.42
   2  14  -8   -6.95   11.26
   2  14  -8   -5.56   14.24
   2  14   8   -8.91   10.52
   3  14  -8   11.45   11.51
  -3 -14  -8    4.39    8.53
   3  14  -8   33.09   12.96
  -3 -14   8    0.31   12.29
  -3 -14   8   -0.27    6.72
   4  14  -8   13.50   12.96
   4  14  -8  -16.83   12.05
  -4 -14   8  -27.71   11.82
  -4 -14   8    0.27    6.94
   5  14  -8   31.25   14.25
   5  14  -8   26.49   14.27
  -5 -14   8   27.89   13.39
  -5 -14   8   14.13    9.06
   6  14  -8   37.87   12.64
   6  14  -8   -3.56   12.53
  -6 -14   8    0.34   11.56
  -6 -14   8    2.88    7.59
   7  14  -8    8.36   11.72
  -7 -14   8    7.66    7.51
   4 -15  -8   27.11    5.95
  -4  15  -8  -10.66   11.17
   4 -15   8    3.33    7.08
  -4  15   8   12.10   11.31
   3 -15  -8   -0.81   11.34
  -3  15  -8   -7.33   10.88
   3 -15  -8   18.11    5.66
  -3  15   8    9.56   11.00
   3 -15   8    1.80    6.78
   2 -15  -8    5.19   10.79
  -2  15  -8    0.29    9.61
   2 -15  -8   23.59    6.31
   2 -15   8   -0.83    6.11
  -2  15   8   -0.64   10.92
   2 -15   8   -6.05   11.71
   1 -15  -8   -0.26    6.79
   1 -15  -8   -2.28   10.41
  -1  15  -8    3.20    9.20
  -1  15   8   11.31   10.59
   1 -15   8  -10.33    6.32
  -1  15   8    5.80   10.72
   1 -15   8    0.31   12.30
   0 -15  -8   -3.78    7.38
   0 -15  -8   -7.49   10.56
   0  15  -8    7.52    9.51
   0  15  -8  -49.21   15.12
   0  15   8   -6.97   12.04
   0 -15   8   -0.33   13.32
   0  15   8  -11.41   10.74
   0 -15   8   -0.27    6.30
  -1 -15  -8   -3.14   10.55
   1  15  -8  -40.12   16.91
   1  15  -8   -4.93   10.59
  -1 -15  -8    0.64    8.44
   1  15   8   -3.40   10.59
  -1 -15   8   -1.69   14.12
   1  15   8   -5.66   12.73
  -1 -15   8  -24.49    7.43
   2  15  -8  -10.06   11.72
   2  15  -8   29.53   15.50
  -2 -15  -8    0.35    9.09
  -2 -15   8   13.35    7.68
  -2 -15   8    4.12   13.79
   2  15   8    2.41   10.62
   3  15  -8    4.35   12.31
   3  15  -8   24.01   14.75
  -3 -15  -8   13.34    9.64
  -3 -15   8    0.35   13.58
  -3 -15   8    0.29    7.81
   4  15  -8  -14.64   13.44
   4  15  -8   -9.05   14.96
  -4 -15   8  -14.55   13.41
  -4 -15   8   -0.30    8.08
   5  15  -8  -11.21   14.15
   5  15  -8    0.98   12.63
  -5 -15   8   -4.29    7.55
  -5 -15   8   15.67   12.86
   6  15  -8    0.99   13.79
   6  15  -8   12.50   13.70
  -6 -15   8    9.00   12.81
  -6 -15   8   13.08    8.24
   7  15  -8   -4.64   13.40
   7  15  -8    3.59   12.64
  -7 -15   8   -2.53    7.89
  -4  16  -8    0.39   11.88
   4 -16   8    0.58   12.06
   4 -16   8  -28.11    8.11
  -3  16  -8   -5.52   11.52
   3 -16   8   -2.96    7.22
  -2  16  -8   11.73   10.73
   2 -16  -8  -10.73    7.02
  -2  16   8  -12.64   10.98
  -2  16   8   -5.46   11.99
   2 -16   8  -14.59    7.10
   1 -16  -8    0.29    7.36
  -1  16  -8  -14.98   14.86
   1 -16  -8   18.55   11.66
  -1  16  -8   33.04   10.69
  -1  16   8  -17.34   12.02
   1 -16   8    9.10    7.02
  -1  16   8    6.45   11.35
   1 -16   8  -11.10   13.94
   0  16  -8    0.29   10.18
   0  16  -8   13.06   15.56
   0 -16  -8    0.33   11.70
   0 -16  -8   10.47    8.21
   0 -16   8    0.30    6.92
   0  16   8   13.15   12.73
   0  16   8  -13.39   11.50
   0 -16   8  -15.24   14.32
  -1 -16  -8    7.52   11.57
  -1 -16  -8   11.12    8.97
   1  16  -8   -0.48   16.32
   1  16  -8    1.50   10.62
   1  16   8   -6.88   14.30
   1  16   8   10.34   11.60
  -1 -16   8   -7.56    7.46
  -1 -16   8   17.30   14.50
  -2 -16  -8    2.61    9.97
   2  16  -8   -0.66   12.82
   2  16  -8  -27.53   16.72
   2  16   8    4.81   11.85
  -2 -16   8  -16.95    8.18
   2  16   8   -6.08   15.08
  -2 -16   8  -30.19   15.03
  -3 -16  -8    0.78   10.03
   3  16  -8  -17.68   16.87
   3  16  -8   11.33   13.57
  -3 -16   8  -43.16   15.49
  -3 -16   8   13.68    8.51
   4  16  -8  -14.62   16.73
   4  16  -8    3.87   14.17
  -4 -16   8    0.33    8.56
  -4 -16   8  -49.54   15.57
   5  16  -8   -5.47   16.57
   5  16  -8   -1.78   13.84
  -5 -16   8    3.65    8.28
  -5 -16   8  -11.86   14.53
   6  16  -8   13.92   14.54
   6  16  -8    6.12   15.12
  -6 -16   8   -7.71    8.22
  -6 -16   8   -6.22   14.52
   7  16  -8  -15.93   14.59
   7  16  -8    4.31   14.16
  -7 -16   8    3.09    8.34
  -4  17  -8  -23.12   13.12
   4 -17   8    1.65   13.07
   4 -17   8   -0.39    7.90
  -3  17  -8   16.00   12.61
   3 -17  -8    1.85    6.48
  -3  17   8   -5.88   13.10
  -3  17   8   -0.78    9.72
   3 -17   8    1.09    8.11
  -2  17  -8   -1.46   12.20
   2 -17  -8    6.14   12.47
   2 -17  -8   -0.29    6.86
  -2  17   8    2.44   13.07
   2 -17   8    9.77    7.77
  -2  17   8   -4.70   11.37
  -1  17  -8    3.38   11.39
   1 -17  -8   -6.76    8.24
  -1  17  -8   27.41   17.01
   1 -17  -8    0.35   12.81
  -1  17   8   10.88   13.10
   1 -17   8  -18.94   15.45
  -1  17   8  -17.33   13.32
   1 -17   8  -21.96    7.93
   0  17  -8    6.38   12.07
   0 -17  -8   -1.45   12.93
   0 -17  -8    5.21    8.71
   0  17  -8   56.74   18.51
   0  17   8   21.77   13.15
   0 -17   8    9.64   15.51
   0 -17   8   -8.22    7.76
   0  17   8    9.98   14.39
  -1 -17  -8    5.60   12.71
   1  17  -8  -12.93   17.76
  -1 -17  -8  -11.33    9.73
   1  17  -8    0.34   12.30
   1  17   8    1.13   15.22
  -1 -17   8  -14.10    8.14
   1  17   8   12.73   13.13
  -1 -17   8    0.42   16.31
   2  17  -8   19.60   18.40
   2  17  -8   11.81   12.98
  -2 -17   8   12.29   16.67
   2  17   8   -1.17   18.72
  -2 -17   8    0.35    7.91
   3  17  -8   20.61   14.48
  -3 -17  -8   -8.35   11.00
   3  17  -8    1.17   17.82
  -3 -17   8    3.46   15.81
  -3 -17   8   -5.68    8.58
   4  17  -8  -68.70   19.53
   4  17  -8    1.16   14.92
  -4 -17   8    6.11    9.17
  -4 -17   8  -18.20   16.69
   5  17  -8  -19.31   14.93
   5  17  -8  -15.98   17.57
  -5 -17   8    3.19   16.53
  -5 -17   8    5.39    9.08
   6  17  -8    3.11   15.45
   6  17  -8  -29.31   17.31
  -6 -17   8   19.98    9.04
  -6 -17   8  -25.75   15.93
   7  17  -8  -13.62   16.38
  -4  18  -8  128.10   31.53
   4 -18   8   60.64   23.79
   4 -18   8  148.35   29.69
  -3  18  -8  -17.43   16.14
   3 -18   8  -10.88   10.09
   3 -18   8  -28.45   17.04
  -2  18  -8    1.24   13.98
   2 -18  -8    4.80    7.91
   2 -18  -8    9.93   14.35
   2 -18   8   -1.54    8.56
  -2  18   8    0.46   14.57
  -2  18   8   -5.77   12.46
  -1  18  -8  -16.34   18.86
   1 -18  -8    3.18    8.62
   1 -18  -8   -9.70   13.78
  -1  18  -8   -0.79   13.79
  -1  18   8    3.28   14.37
   1 -18   8  -12.03    8.52
  -1  18   8  -24.81   14.71
   0 -18  -8  -44.76   14.55
   0  18  -8    4.54   13.78
   0 -18  -8    9.62    9.68
   0  18  -8   18.29   19.63
   0  18   8   -0.97   14.29
   0  18   8  -10.58   15.89
   0 -18   8   -5.80   17.80
   0 -18   8   -4.50    8.69
  -1 -18  -8    7.77   10.05
   1  18  -8   12.01   20.17
   1  18  -8    0.76   13.64
  -1 -18  -8   30.68   14.05
  -1 -18   8    0.37    8.46
   1  18   8   -9.01   13.82
   1  18   8    0.41   16.76
  -1 -18   8    0.46   17.83
  -2 -18  -8  -12.06   10.71
   2  18  -8   -9.50   14.40
   2  18  -8  -16.18   20.02
  -2 -18   8  -28.54    9.53
   2  18   8    2.09   14.16
   2  18   8  -25.02   17.67
  -2 -18   8   -9.39   18.44
   3  18  -8  -17.47   17.30
   3  18  -8   -1.32   22.51
  -3 -18   8  -52.97   19.97
  -3 -18   8  -35.36   10.96
   4  18  -8   31.48   34.62
   4  18  -8   40.17   30.50
  -4 -18   8   98.14   33.77
  -4 -18   8  109.59   23.00
   5  18  -8  -29.68   20.93
   5  18  -8   -2.12   17.36
   6  18  -8  -19.61   19.56
   6  18  -8   -4.64   16.71
  -6 -18   8  -11.74   18.09
  -6 -18   8   -1.97   10.22
   7  18  -8   31.71   17.00
   7  18  -8    0.71   19.00
  -7 -18   8   -4.79   10.26
  -4  19  -8    0.53   15.84
   4 -19   8  -22.99   10.33
   4 -19   8    5.45   16.90
  -3  19  -8   12.59   19.64
  -3  19  -8   14.43   16.64
   3 -19   8   -3.51   17.51
   3 -19   8   19.33   10.39
  -2  19  -8    1.86   15.12
  -2  19   8    1.02   15.50
   2 -19   8   -3.86    9.91
  -2  19   8    9.10   13.60
  -1  19  -8   11.62   15.74
  -1  19  -8    3.02   20.56
   1 -19  -8    9.54   15.94
   1 -19  -8   -3.88    9.64
  -1  19   8  -33.23   16.17
  -1  19   8   -7.29   15.88
   1 -19   8   15.48    9.44
   0  19  -8    3.17   21.45
   0  19  -8  -11.07   15.48
   0 -19  -8    1.28   11.01
   0 -19  -8    9.25   15.14
   0 -19   8    6.66    9.63
   0  19   8   -7.36   17.26
   0  19   8  -33.15   16.07
   0 -19   8  -12.30   19.64
  -1 -19  -8   11.69   14.99
   1  19  -8   -5.94   15.42
  -1 -19  -8    9.34   11.04
   1  19  -8   21.27   21.86
   1  19   8  -39.58   18.84
  -1 -19   8   16.26   10.13
   1  19   8   38.75   15.80
  -1 -19   8    6.59   20.11
  -2 -19  -8  -19.16   11.70
   2  19  -8   -6.87   16.37
   2  19  -8   48.01   23.41
  -2 -19   8    5.86   10.32
  -2 -19   8   22.47   20.39
   2  19   8    3.70   18.86
   2  19   8    7.46   14.68
   3  19  -8  -31.95   17.44
   3  19  -8   25.42   24.13
  -3 -19   8   -0.54   20.49
  -3 -19   8    1.28   10.35
   4  19  -8    7.93   18.21
   4  19  -8    1.53   22.73
  -4 -19   8   16.05   20.62
  -4 -19   8   15.87   11.11
   5  19  -8  -10.66   18.39
   5  19  -8   46.57   22.98
  -5 -19   8   14.57   10.83
  -5 -19   8    9.60   20.32
   6  19  -8    4.16   17.96
  -6 -19   8  -11.08   11.06
   1 -20  -8   60.43   18.33
   1 -20  -8   13.25   11.26
  -1  20   8   20.22   17.67
  -1  20   8   23.80   16.88
   0 -20  -8   -8.81   11.40
   0 -20  -8   25.74   16.33
   0  20   8   13.06   17.37
   0  20   8  -21.10   18.73
  -1 -20  -8    2.45   12.32
  -1 -20  -8    2.48   17.07
   1  20   8  -22.02   16.88
   1  20   8   -4.96   20.54
  -2 -20  -8    7.09   12.76
   2  20   8    8.06   20.35
   0   0  -9    0.15    0.97
   0   0  -9    0.09    1.38
   0   0   9    0.24    2.03
   0  -1  -9  127.04   24.70
   0   1  -9  114.97   24.31
   1   0  -9   97.26   23.04
   1   0  -9  121.81   23.82
  -1   0   9  113.73   26.84
   0   1   9   93.51   27.50
   1  -1  -9   -0.28    1.31
   1   1  -9    0.07    1.31
   1   1  -9    0.05    0.75
  -1  -1   9   -0.31    1.03
  -1  -1   9    0.11    1.87
  -1   1   9    0.24    1.79
   2   1  -9    3.20    1.01
   2   1  -9    2.48    1.27
   2   1  -9    2.90    1.40
  -2  -1   9    2.49    1.74
  -2  -1   9    2.19    1.56
  -2  -1   9    1.61    1.10
   2   0  -9    1.43    0.82
   2   0  -9    0.28    1.20
   0   2  -9    0.07    1.03
  -2   0   9    1.07    1.68
   1   2  -9    1.38    1.70
   1   2  -9    2.42    0.93
   1   2  -9    2.18    1.60
  -1  -2   9    3.10    2.12
  -1  -2   9    1.94    1.73
   2   2  -9   -0.10    1.15
   2   2  -9   -0.22    1.46
   2   2  -9    0.40    0.83
  -2  -2   9    0.52    1.18
  -2  -2   9    0.49    1.64
  -2  -2   9    1.15    1.97
   3   2  -9   10.71    3.84
   3   2  -9    7.91    3.07
   3   2  -9   14.60    3.50
   3   2  -9   11.64    2.97
   2  -3  -9    7.08    2.91
   2  -3  -9   14.21    3.07
   2  -3  -9   11.02    2.74
  -3  -2   9   11.49    3.00
  -3  -2   9    9.90    3.34
  -3  -2   9   14.01    4.41
  -3  -2   9    9.54    3.14
  -2   3   9   12.41    3.69
   3   1  -9    8.57    2.21
   3   1  -9    5.33    2.24
   3   1  -9    8.64    2.45
   3   1  -9    9.72    3.04
   1  -3  -9    4.87    2.03
  -3  -1   9    7.84    2.61
  -3  -1   9   11.66    2.33
  -3  -1   9    8.81    3.46
  -3  -1   9    8.62    2.10
   0  -3  -9   -0.16    1.25
   0   3  -9   -0.07    1.13
   0  -3   9    0.25    1.64
   1   3  -9    9.50    2.56
   1   3  -9    6.51    3.13
   1   3  -9    7.82    2.09
  -1  -3   9    7.49    3.17
  -1  -3   9    9.30    3.07
  -1  -3   9    6.93    2.49
   2   3  -9   14.30    3.74
   2   3  -9   12.79    3.07
   3  -2  -9   14.96    3.23
   3  -2  -9   10.93    3.08
   2   3  -9   13.31    3.13
  -3   2   9   12.15    3.67
  -2  -3   9   10.96    3.25
  -2  -3   9   10.63    4.03
  -2  -3   9   16.47    3.65
   3  -3  -9    0.13    1.58
   3  -3  -9   -0.57    0.71
   3   3  -9   -0.69    2.50
   3   3  -9   -0.05    1.13
   3   3  -9   -0.34    2.07
   3   3  -9   -0.06    1.07
   3  -3  -9   -0.88    1.51
  -3  -3   9    0.27    2.86
  -3   3   9    0.41    2.06
  -3  -3   9    0.91    1.19
  -3  -3   9    0.36    1.53
  -3  -3   9    0.31    1.48
  -3   3   9   -0.20    1.56
  -3   3   9    0.02    1.03
   3  -4  -9   27.19    5.80
   3  -4  -9   25.48    6.04
   3  -4  -9   25.46    7.70
   4   3  -9   42.27    7.96
   4   3  -9   25.59    6.51
   4   3  -9   16.69    6.23
   3  -4  -9   27.90    6.59
  -3   4   9   19.68    6.82
  -3   4   9   26.99    6.83
  -4  -3   9   33.71    6.48
  -3   4   9   26.24    6.78
  -4  -3   9   20.94    6.44
  -4  -3   9   31.21    8.74
   2  -4  -9    0.08    1.59
   4   2  -9    0.06    1.36
   2  -4  -9    0.21    1.11
   2  -4  -9   -0.29    1.25
   2  -4  -9    1.71    2.56
  -2   4   9    0.07    2.39
  -2   4   9    1.03    2.21
  -2   4   9   -0.07    1.86
  -4  -2   9    1.33    1.63
   1  -4  -9   19.49    3.63
   1  -4  -9   13.79    3.17
   1  -4  -9   16.69    4.07
  -4  -1   9   14.55    3.73
  -1   4   9    8.47    4.53
   0   4  -9   -0.75    1.12
   0  -4  -9    0.71    1.14
   4   0  -9   -0.09    1.36
   0   4  -9   -0.58    2.56
   0  -4  -9    0.11    2.03
   0  -4   9   -0.84    1.99
   0   4   9    1.62    2.99
  -4   0   9    0.56    1.59
   4  -1  -9   16.01    3.38
   4  -1  -9    8.39    3.39
   1   4  -9   12.48    3.25
   1   4  -9   13.07    4.14
  -1  -4   9    8.41    3.58
  -4   1   9   15.38    3.53
  -1  -4   9   13.76    4.32
   2   4  -9   -0.43    2.15
   2   4  -9    0.38    1.18
   4  -2  -9   -0.83    1.64
   4  -2  -9    1.03    1.53
   2   4  -9    0.27    0.78
  -2  -4   9   -0.15    1.72
  -4   2   9    0.18    1.67
  -2  -4   9    0.32    1.71
  -2  -4   9    2.70    2.95
   3   4  -9   20.83    5.82
   3   4  -9   21.60    6.78
   4  -3  -9    6.88    5.66
   4  -3  -9   26.82    6.38
   3   4  -9   19.04    6.22
   3   4  -9   27.40    6.88
  -3  -4   9   28.14    7.41
  -3  -4   9   31.82    6.26
  -3  -4   9   27.07    6.27
  -3  -4   9   23.19    5.92
   4   4  -9   -0.16    1.35
   4   4  -9    0.28    1.47
   4  -4  -9    0.15    1.91
   4  -4  -9    0.09    1.67
   4  -4  -9    0.71    1.68
  -4  -4   9   -0.35    1.38
  -4   4   9    0.50    1.84
  -4  -4   9   -3.45    2.40
   4  -5  -9   46.10    9.64
   4  -5  -9   37.51    9.48
   4  -5  -9   37.44   10.98
   5   4  -9   49.62   10.86
   4  -5  -9   36.19   10.48
  -4   5   9   32.26   11.48
  -4   5   9   37.03    9.91
  -4   5   9   42.69   10.76
   3  -5  -9   64.94   14.66
   3  -5  -9   64.04   14.09
   3  -5  -9   60.86   15.83
   3  -5  -9   46.22   18.28
  -3   5   9   66.30   16.46
  -3   5   9   56.33   16.59
  -3   5   9   68.39   16.26
   2  -5  -9   44.46    9.00
   2  -5  -9   38.28   12.88
   5   2  -9   42.54    9.82
   2  -5  -9   36.41    9.13
   2  -5  -9   42.85    8.48
  -5  -2   9   42.61    9.71
  -2   5   9   40.21   10.09
  -2   5   9   38.79   10.48
  -2   5   9   36.75   11.21
   1  -5  -9   31.31    5.84
   1  -5  -9   29.24    7.10
   5   1  -9   25.64    6.93
   1  -5  -9   24.04    6.41
  -1   5  -9   13.14    8.61
   5   1  -9   27.99    6.73
  -1   5   9   25.62    8.21
  -1   5   9   17.42    7.92
  -5  -1   9   24.15    6.81
   1  -5   9   28.11    7.35
   0   5  -9   39.78   10.00
   0  -5  -9   37.65    7.55
   0   5  -9   29.16    9.34
   5   0  -9   38.98    8.51
   0  -5  -9   38.37    8.43
   5   0  -9   42.73    8.33
  -5   0   9   27.51    8.42
   0   5   9   31.08   10.12
   0  -5   9   31.85    8.31
   0  -5   9   44.23    9.41
   5  -1  -9   29.99    6.92
   5  -1  -9   25.04    7.06
   1   5  -9   31.68    6.94
  -5   1   9   31.46    7.05
  -1  -5   9   28.69    8.18
   2   5  -9   44.50    9.48
   5  -2  -9   38.27    8.86
   2   5  -9   32.80    9.71
   5  -2  -9   30.10    9.02
  -2  -5   9   32.19    9.42
  -2  -5   9   44.84   10.67
  -5   2   9   36.30    9.12
   5  -3  -9   72.80   19.12
   3   5  -9   63.65   16.87
   3   5  -9   64.32   15.67
   3   5  -9   70.33   16.67
   5  -3  -9   62.82   15.17
  -3  -5   9   54.96   16.61
  -3  -5   9   94.96   17.98
  -3  -5   9   65.77   16.55
   5  -4  -9   46.30    9.95
   4   5  -9   39.58   11.97
   5  -4  -9   50.66   10.02
   5  -4  -9   43.61   12.34
   4   5  -9   45.08   10.56
  -4  -5   9   28.15   12.83
  -5   4   9   47.66   10.21
   5  -5  -9   -1.26    2.52
   5  -5  -9   -0.83    2.15
   5   5  -9   -3.54    4.74
   5  -5  -9   -1.11    2.15
   5   5  -9   -0.92    1.72
  -5  -5   9  -13.58    6.15
  -5   5   9    0.48    2.39
  -5  -5   9   -1.38    3.18
   5  -6  -9    9.62    2.89
   5  -6  -9   12.08    3.39
   5  -6  -9    3.07    2.64
  -6  -5   9    4.56    3.76
  -5   6   9    7.51    2.86
   4  -6  -9   62.83   18.02
   4  -6  -9   62.17   18.63
   4  -6  -9   75.30   15.96
   4  -6  -9   71.23   16.38
  -4   6   9   70.66   18.28
  -4   6   9   72.58   19.36
   3  -6  -9  102.46   20.48
   6   3  -9   92.99   23.23
   3  -6  -9  112.47   21.94
  -3   6   9   99.37   23.84
  -3   6   9   86.77   23.04
   2  -6  -9   45.18   14.99
   6   2  -9   51.98   11.89
   2  -6  -9   45.71   10.98
   2  -6  -9   39.97   10.89
   2  -6  -9   55.40   10.27
  -2   6   9   48.17   12.21
  -2   6   9   50.95   13.19
  -2   6   9   46.11   12.89
  -1   6  -9   27.67    8.62
   1  -6  -9   22.76    6.91
   1  -6  -9   28.99    6.50
   1  -6  -9   25.40    5.88
   6   1  -9   31.85    6.82
   6   1  -9   36.33    6.93
   1  -6   9   32.50    6.97
   1  -6   9   24.51    7.51
  -6  -1   9   31.96    6.87
  -1   6   9   14.78    8.04
   6   0  -9    1.73    2.21
   0  -6  -9   -0.60    2.31
   0   6  -9    0.60    1.06
   0  -6  -9    0.08    1.25
   0   6  -9    0.62    3.02
   6   0  -9    0.40    2.09
   0  -6   9    0.32    2.30
   0  -6   9    0.18    3.22
   0   6   9    0.11    3.68
  -6   0   9    0.94    1.99
   6  -1  -9   29.92    6.75
  -1  -6  -9   30.10    6.19
   1   6  -9   23.11    6.56
   6  -1  -9   24.70    6.85
   1   6  -9   30.60    7.45
  -1  -6   9   24.98    6.50
  -6   1   9   27.90    6.83
  -1  -6   9   37.88    8.13
   2   6  -9   48.91   12.98
   6  -2  -9   53.25   11.55
   6  -2  -9   49.03   11.29
   2   6  -9   51.50   12.55
   2   6  -9   48.87   12.07
  -6   2   9   58.40   11.44
  -2  -6   9   48.51   12.18
  -2  -6   9   41.34   11.01
  -2  -6   9   39.26   13.91
  -2  -6   9   60.04   13.35
   3   6  -9   80.46   23.26
   3   6  -9   78.95   20.59
   3   6  -9   98.40   22.18
   6  -3  -9   46.37   19.65
  -3  -6   9   75.34   22.15
  -3  -6   9  110.58   20.15
   6  -4  -9   69.96   16.51
   4   6  -9   67.45   18.99
   6  -4  -9   75.25   20.44
   4   6  -9   71.61   17.61
  -4  -6   9   75.56   17.58
  -4  -6   9   66.50   20.26
  -6   4   9   75.99   16.73
   6  -5  -9    4.15    3.01
   6  -5  -9    3.35    2.73
   6  -5  -9    4.02    2.63
   5   6  -9    4.01    2.16
   5   6  -9    5.89    5.19
  -6   5   9    4.37    2.71
  -5  -6   9   10.60    5.83
  -5  -6   9    1.56    3.66
   6  -6  -9   -0.72    2.42
   6  -6  -9    1.42    2.79
   6   6  -9   -0.08    2.16
  -6   6   9    1.87    2.74
  -6  -6   9   -0.58    3.77
   6  -7  -9    0.37    2.68
   6  -7  -9   -0.42    3.77
   6  -7  -9    0.63    2.91
  -7  -6   9    1.72    3.83
  -6   7   9    0.61    2.93
   5  -7  -9   22.88    6.50
   5  -7  -9   20.12    7.75
   5  -7  -9   28.19    6.37
  -5   7   9   28.42    6.76
   4  -7  -9    1.24    2.13
   4  -7  -9   -1.68    2.31
  -4   7   9    0.34    3.31
  -4   7   9   -1.24    2.44
   3  -7  -9  208.65   49.35
   3  -7  -9  227.72   51.57
  -3   7   9  219.94   52.11
  -3   7   9  221.44   58.78
   2  -7  -9    2.44    2.15
  -2   7  -9   -0.70    4.22
   2  -7  -9    4.77    4.34
   2  -7  -9    0.18    1.59
  -2   7   9    1.97    3.53
  -2   7   9    0.72    4.13
   2  -7   9    0.20    3.25
   1  -7  -9   55.41   14.50
   1  -7  -9   60.17   20.50
   1  -7  -9   72.07   13.27
   1  -7  -9   70.29   15.20
  -1   7  -9   51.91   17.78
   1  -7   9   45.84   14.48
   1  -7   9   64.39   16.10
  -1   7   9   53.73   17.92
  -1   7   9   54.06   18.03
   0   7  -9   -0.55    3.44
   7   0  -9   -0.47    2.38
   0  -7  -9   -4.38    3.80
   0   7  -9    0.10    0.78
   0  -7  -9   -0.26    1.61
   0  -7  -9   -1.92    2.78
   0  -7   9   -4.31    4.25
   0  -7   9   -0.57    2.70
   0   7   9   -2.98    4.45
   0   7   9   -5.82    4.73
   1   7  -9   56.56   16.03
   7  -1  -9   50.45   14.95
  -1  -7  -9   86.70   16.68
  -1  -7  -9   57.18   13.75
  -1  -7   9   64.14   17.46
  -7   1   9   62.69   15.33
  -1  -7   9   62.71   14.14
   2   7  -9    1.35    3.85
   7  -2  -9   -0.12    2.62
   7  -2  -9    2.92    2.73
  -2  -7   9    6.19    5.15
  -2  -7   9    3.08    2.74
  -7   2   9    1.88    2.53
   3   7  -9  195.70   58.62
   3   7  -9  189.38   55.37
   7  -3  -9  227.16   49.53
  -3  -7   9  188.14   49.98
   7  -4  -9    0.13    2.56
   4   7  -9    0.87    5.18
   7  -4  -9    0.81    2.56
  -4  -7   9    0.52    3.50
  -7   4   9   -0.46    2.50
  -4  -7   9   -1.14    5.35
   7  -5  -9   21.93    6.64
   7  -5  -9   27.73    6.51
   5   7  -9   31.65    9.05
  -5  -7   9   20.08    7.51
  -7   5   9   26.66    6.72
  -5  -7   9   20.74    9.45
   7  -6  -9    0.14    2.93
   7  -6  -9    1.51    3.05
   6   7  -9    1.71    5.74
  -6  -7   9    0.48    3.97
  -7   6   9   -0.49    2.83
   7  -7  -9    0.28    3.14
   7  -7  -9   -2.25    3.27
  -7   7   9    2.60    3.50
  -7  -7   9   -2.40    4.33
   7  -8  -9   35.79    8.44
   7  -8  -9   36.25    8.34
  -7   8   9   32.99    8.67
   6  -8  -9    7.47    3.70
   6  -8  -9    6.89    3.49
  -6   8   9    5.65    3.62
   5  -8  -9   -1.63    2.73
   5  -8  -9    0.51    3.04
   5  -8  -9   -2.56    4.42
   5  -8  -9   -0.84    2.86
  -5   8   9    1.03    3.69
  -5   8   9    1.88    3.02
  -5   8   9   -1.54    3.93
   4  -8  -9    6.11    3.08
   4  -8  -9    9.39    2.86
   4  -8  -9    7.36    3.10
   4  -8  -9    6.98    4.67
  -4   8   9    5.91    3.68
  -4   8   9    5.91    4.19
  -4   8   9    6.08    3.29
   3  -8  -9    2.89    2.54
   3  -8  -9    0.90    1.97
   3  -8  -9   -1.63    4.38
   3  -8  -9    0.94    2.45
  -3   8   9    3.53    3.76
  -3   8   9    4.12    3.49
  -3   8   9   -1.91    4.29
  -3   8   9    0.83    2.49
   2  -8  -9   38.21   11.60
  -2   8  -9   38.88   11.59
   2  -8  -9   32.58    8.11
   2  -8  -9   41.87    8.67
   2  -8  -9   28.47    8.66
  -2   8   9   33.74   10.89
   2  -8   9   40.79    9.25
  -2   8   9   27.15    9.98
   2  -8   9   37.86    9.83
  -2   8   9   25.90   10.40
   1  -8  -9   23.70    5.20
  -1   8  -9   16.73    6.25
   1  -8  -9   10.90    7.36
   1  -8  -9   13.26    4.75
   1  -8  -9   15.21    4.09
   1  -8   9   15.47    6.00
  -1   8   9   20.42    6.83
  -1   8   9   15.99    6.65
   1  -8   9   21.45    4.95
   0  -8  -9    3.27    3.77
   0  -8  -9   -0.09    1.63
   0   8  -9   -0.24    3.67
   0  -8  -9    0.41    2.64
   0  -8  -9   -2.56    5.36
   0   8   9   -2.17    4.77
   0  -8   9    1.89    4.70
   0  -8   9   -0.12    2.80
   0   8   9    2.63    4.72
  -1  -8  -9   14.06    4.16
   1   8  -9   11.37    5.63
  -1  -8  -9   19.50    6.11
  -1  -8   9   20.61    7.28
  -1  -8   9   18.55    4.70
   2   8  -9   39.24   11.84
   2   8  -9   39.60   10.74
  -2  -8   9   29.82    9.13
  -2  -8   9   52.12   11.75
   3   8  -9    4.09    4.91
   3   8  -9    1.83    5.67
  -3  -8   9    2.40    5.79
  -3  -8   9    1.45    3.35
   4   8  -9    6.07    6.12
   4   8  -9    7.11    6.02
  -4  -8   9    6.43    4.04
  -4  -8   9    6.71    6.40
   5   8  -9    0.45    6.31
   8  -5  -9    2.12    3.09
  -5  -8   9    0.16    4.27
  -5  -8   9   -2.01    6.41
  -8   5   9   -1.84    3.10
   6   8  -9    5.68    6.65
   8  -6  -9   10.00    3.73
  -6  -8   9   13.43    6.99
  -8   6   9    4.19    3.74
  -6  -8   9    5.93    4.70
   8  -7  -9   32.22    7.66
  -8   7   9   17.52    7.92
  -7  -8   9   19.25    8.35
   8  -8  -9   -2.30    3.85
  -8   8   9    0.42    3.75
   8  -9  -9   53.82   10.81
  -8   9   9   30.13   11.39
   7  -9  -9    4.24    3.61
   7  -9  -9    3.22    3.91
  -7   9   9    0.97    3.88
   6  -9  -9    2.62    3.50
   6  -9  -9    2.56    3.50
  -6   9   9    5.65    3.80
   5  -9  -9   11.88    4.01
   5  -9  -9   13.46    5.97
   5  -9  -9   11.28    4.22
   5  -9  -9   10.19    3.92
  -5   9   9   12.37    5.17
  -5   9   9   10.59    5.34
  -5   9   9    8.32    4.17
   4  -9  -9   16.39    6.70
   4  -9  -9   15.39    4.77
   4  -9  -9   14.15    4.65
   4  -9  -9   13.36    4.45
  -4   9   9   17.74    4.94
  -4   9   9   17.71    6.12
  -4   9   9   12.04    6.28
  -4   9   9   13.66    5.63
   3  -9  -9    2.16    2.22
   3  -9  -9    2.47    2.75
  -3   9  -9   -0.89    5.46
   3  -9  -9   -3.68    5.45
   3  -9  -9    0.80    2.69
  -3   9   9   -1.53    2.74
  -3   9   9    1.43    4.21
  -3   9   9    1.54    4.91
  -3   9   9    2.90    4.04
   3  -9   9   -0.13    4.23
   2  -9  -9    0.56    5.36
   2  -9  -9    1.93    2.99
  -2   9  -9    0.59    5.54
   2  -9  -9    2.52    1.94
   2  -9  -9    4.21    2.75
  -2   9   9    0.47    5.20
   2  -9   9   -0.13    4.47
  -2   9   9    4.99    4.49
   2  -9   9    0.91    3.62
  -2   9   9   -1.61    4.42
  -1   9  -9   -0.61    4.51
   1  -9  -9   -3.14    3.52
   1  -9  -9   -2.09    2.84
   1  -9  -9    8.76    5.66
   1  -9  -9    1.17    1.72
  -1   9   9    2.76    5.54
   1  -9   9    0.31    3.36
   1  -9   9    0.14    4.98
  -1   9   9    0.38    4.89
   0  -9  -9   -0.34    4.18
   0  -9  -9    3.11    1.78
   0  -9  -9    2.05    5.99
   0  -9  -9    4.73    2.99
   0   9  -9    1.19    4.45
   0   9   9   -0.74    5.30
   0   9   9    0.42    5.71
   0  -9   9    1.62    5.48
   0  -9   9    2.76    3.20
  -1  -9  -9    3.03    4.67
   1   9  -9    1.30    4.41
  -1  -9  -9    0.85    1.82
  -1  -9   9   -1.12    6.32
  -1  -9   9    0.14    3.32
   2   9  -9    4.24    6.85
   2   9  -9    4.77    5.23
  -2  -9   9    6.92    6.76
  -2  -9   9    5.99    3.73
   3   9  -9    1.06    6.59
   3   9  -9   -3.49    5.74
  -3  -9   9   -0.51    6.82
  -3  -9   9    0.15    3.67
   4   9  -9   24.04    8.26
   4   9  -9   17.04    8.33
  -4  -9   9   17.88    6.05
  -4  -9   9   23.14    8.49
   5   9  -9    9.48    7.33
  -5  -9   9   10.65    5.29
  -5  -9   9   14.57    7.87
   6   9  -9    4.71    7.83
  -6  -9   9   17.34    5.45
  -6  -9   9    5.86    8.28
  -7  -9   9    2.03    5.24
   9  -9  -9   -2.08    4.31
   8 -10  -9    1.74    4.31
  -8  10   9    1.18    4.50
   7 -10  -9    9.62    5.00
   7 -10  -9   17.96    4.73
  -7  10   9    6.84    5.03
   6 -10  -9   19.40    6.80
   6 -10  -9   20.47    6.76
  -6  10   9   27.27    7.13
  -6  10   9   23.25    8.01
   5 -10  -9   -0.19    3.26
   5 -10  -9    2.99    3.30
   5 -10  -9   -3.43    6.00
   5 -10  -9    6.26    3.42
  -5  10   9    0.33    3.53
  -5  10   9   -2.10    4.71
  -5  10   9    2.72    4.69
   4 -10  -9    7.91    3.13
   4 -10  -9    7.82    3.42
   4 -10  -9    5.19    6.27
   4 -10  -9    6.66    3.61
  -4  10   9    0.93    5.87
  -4  10   9    8.03    4.83
  -4  10   9    6.47    3.56
  -4  10   9    3.07    4.48
  -3  10  -9   -0.24    6.31
   3 -10  -9    4.76    3.13
   3 -10  -9   -0.29    5.99
   3 -10  -9   -1.58    2.40
   3 -10  -9    2.80    2.86
  -3  10   9   -1.33    4.79
  -3  10   9    3.31    4.54
   3 -10   9    0.43    4.98
  -3  10   9   -0.55    3.07
  -3  10   9    2.26    5.51
   2 -10  -9    0.13    2.79
   2 -10  -9   -0.46    2.19
  -2  10  -9    0.20    5.97
   2 -10  -9    3.44    6.04
   2 -10  -9    0.39    3.42
   2 -10   9   -0.19    4.11
  -2  10   9    5.60    5.05
   2 -10   9    0.15    5.40
  -2  10   9    1.80    4.91
  -2  10   9   -5.17    5.79
   1 -10  -9   13.93    7.39
   1 -10  -9    9.46    4.32
   1 -10  -9   11.33    3.41
  -1  10  -9   14.75    6.22
   1 -10  -9   15.61    5.20
   1 -10   9    9.16    4.56
  -1  10   9   16.45    6.92
  -1  10   9    4.69    6.77
   1 -10   9   12.71    6.91
  -1  10   9   11.95    6.67
   0 -10  -9    2.79    4.84
   0 -10  -9    0.20    6.71
   0 -10  -9   -1.23    1.94
   0 -10  -9   -2.54    3.24
   0  10  -9   -6.37    4.85
   0 -10   9    0.15    3.55
   0 -10   9    6.77    6.77
   0  10   9   -0.49    5.60
   0  10   9    2.51    6.29
  -1 -10  -9   -0.88    6.33
   1  10  -9    9.19    6.06
  -1 -10  -9   15.92    3.53
  -1 -10   9   19.83    4.73
  -1 -10   9    4.25    7.96
   1  10   9   14.79    7.26
   2  10  -9    6.34    7.85
   2  10  -9   -1.93    5.95
  -2 -10  -9   -4.15    5.59
  -2 -10   9   -0.16    3.94
  -2 -10   9    0.19    7.32
   3  10  -9   -1.91    6.72
   3  10  -9    0.98    7.69
  -3 -10   9    0.98    7.37
  -3 -10   9    9.01    4.42
   4  10  -9    6.38    8.31
   4  10  -9   10.60    7.83
  -4 -10   9    2.03    5.08
  -4 -10   9  -18.93    8.49
   5  10  -9   -3.61    8.09
  -5 -10   9    4.35    5.08
  -5 -10   9   -5.48    7.97
   6  10  -9   26.69   11.02
  -6 -10   9   28.16   10.98
  -6 -10   9   36.06    8.54
  -7 -10   9    8.94    6.04
   8 -11  -9    5.90    4.52
   7 -11  -9    1.66    4.55
   7 -11  -9    6.41    4.01
  -7  11   9    4.62    4.52
  -7  11   9   -0.63    5.37
   6 -11  -9    3.19    3.79
   6 -11  -9    0.24    4.14
  -6  11   9    3.32    4.38
  -6  11   9    4.49    5.29
   5 -11  -9    1.44    3.58
   5 -11  -9    2.83    3.71
  -5  11   9    1.20    5.17
  -5  11   9    2.28    3.61
  -5  11   9    5.09    5.20
   4 -11  -9    2.08    3.45
   4 -11  -9    4.67    6.89
   4 -11  -9   -0.13    3.27
   4 -11  -9   -2.71    3.25
  -4  11   9   -4.85    3.60
  -4  11   9    1.97    4.70
  -4  11   9    1.97    6.54
  -4  11   9   -0.23    5.04
   3 -11  -9   -1.66    6.95
   3 -11  -9    2.96    2.98
  -3  11  -9   -3.04    7.12
   3 -11  -9    2.87    2.68
   3 -11  -9    0.69    3.60
  -3  11   9    1.20    3.49
   3 -11   9  -15.38    5.11
  -3  11   9    3.69    6.13
  -3  11   9   -1.69    5.09
   3 -11   9   -0.16    6.06
  -3  11   9    1.57    5.29
  -2  11  -9   24.98    8.39
   2 -11  -9   36.81    9.02
   2 -11  -9   16.92    5.70
   2 -11  -9   13.75    5.10
   2 -11  -9   21.81    5.97
   2 -11   9   15.73    6.08
   2 -11   9    0.67    7.96
  -2  11   9   19.13    5.98
  -2  11   9   25.69    7.92
  -2  11   9   30.07    7.80
  -2  11   9   29.40    8.36
   1 -11  -9    0.23    2.18
   1 -11  -9   -0.34    4.37
   1 -11  -9    0.76    3.38
   1 -11  -9  -11.42    7.08
  -1  11  -9  -20.04    7.62
  -1  11   9   -1.00    6.98
  -1  11   9   -4.09    6.20
  -1  11   9   -3.39    6.81
   0 -11  -9   27.65   11.89
   0 -11  -9   33.34    8.53
   0 -11  -9   36.77    7.29
   0 -11  -9   42.14    9.36
   0  11  -9    1.79   10.78
   0  11   9   41.15   11.01
   0  11   9   38.35   11.92
  -1 -11  -9   -2.19    2.24
  -1 -11  -9    1.18    5.81
   1  11  -9  -20.53    7.07
   1  11   9   -0.28    7.36
   2  11  -9   11.18   10.29
  -2 -11  -9   20.23    4.86
   2  11  -9   28.73    8.44
  -2 -11  -9   12.52    7.82
  -2 -11   9    2.19   10.32
  -2 -11   9    8.77    6.27
   3  11  -9   -1.39    8.96
   3  11  -9   -0.98    7.49
  -3 -11   9  -12.01    5.06
  -3 -11   9  -17.27    8.98
   4  11  -9    8.48    8.29
   4  11  -9    2.32    8.89
  -4 -11   9   15.37    8.67
  -4 -11   9   -0.20    5.41
   5  11  -9    4.34    9.14
   5  11  -9    7.69    9.07
  -5 -11   9    0.65    5.49
  -5 -11   9    6.52    8.78
   6  11  -9    6.89    8.95
  -6 -11   9    0.26    8.83
  -6 -11   9   -1.37    5.71
   7  11  -9   -4.28    9.00
  -7 -11   9    0.24    6.06
   9 -12  -9   18.94    6.56
   7 -12  -9   -0.58    4.48
   7 -12  -9   -4.24    4.49
  -7  12   9   -2.34    5.10
  -7  12   9   -9.17    6.08
   6 -12  -9    1.53    4.26
   6 -12  -9   -6.35    4.01
  -6  12   9   -2.49    4.32
  -6  12   9    0.13    5.55
   5 -12  -9    4.62    3.93
   5 -12  -9    5.95    3.86
  -5  12   9    9.24    5.70
  -5  12   9    3.93    4.13
   4 -12  -9    1.84    3.83
   4 -12  -9    3.22    3.38
   4 -12  -9   -6.79    7.57
   4 -12  -9    0.71    3.08
  -4  12   9    1.93    5.12
  -4  12   9    2.25    7.29
  -4  12   9   -0.34    3.92
  -4  12   9    1.99    5.48
   3 -12  -9    0.93    2.95
   3 -12  -9   -0.68    3.25
   3 -12  -9    0.75    7.58
   3 -12  -9    0.93    4.05
  -3  12   9   15.59    7.47
  -3  12   9    2.59    3.61
  -3  12   9    5.33    5.81
  -3  12   9    2.86    5.59
  -2  12  -9    7.24    7.08
   2 -12  -9    1.34    4.28
   2 -12  -9   -0.59    7.52
  -2  12   9    6.54    6.69
  -2  12   9   -5.43    7.61
  -2  12   9    2.03    6.13
   2 -12   9    0.22    4.72
  -2  12   9    0.15    3.34
  -1  12  -9   60.25   14.51
   1 -12  -9   41.08   13.04
   1 -12  -9   34.21   16.46
  -1  12   9   49.25   16.18
  -1  12   9   49.73   15.40
   1 -12   9   45.31   11.86
   0 -12  -9    2.82    8.22
   0 -12  -9    2.68    5.72
   0  12  -9    3.65    6.32
   0  12   9    1.08    8.93
   0 -12   9    0.23    9.08
   0  12   9  -10.62    7.76
   0 -12   9   -7.27    4.70
   1  12  -9   51.85   17.82
  -1 -12  -9   31.61   17.23
  -1 -12  -9   39.42   14.42
   1  12  -9   64.01   14.78
   1  12   9   40.70   16.04
  -1 -12   9   41.33   12.13
  -1 -12   9   39.52   17.37
  -2 -12  -9    3.40    6.74
   2  12  -9   -2.85   10.52
   2  12  -9    8.18    7.86
  -2 -12   9  -19.48    9.97
  -2 -12   9  -10.05    5.38
   3  12  -9    6.24    8.70
   3  12  -9    3.51   10.36
  -3 -12   9    0.21    5.47
   4  12  -9   -8.99    9.67
   4  12  -9   45.07    9.69
  -4 -12   9    0.45    5.91
   5  12  -9   -8.22   10.37
  -5 -12   9   -0.24    6.26
   7  12  -9    1.16   10.12
  -8 -12   9   -0.26    6.61
  -4  13  -9   -6.61    8.90
  -4  13   9   -4.79    5.97
  -4  13   9   -3.93    8.46
   3 -13  -9    0.21    8.23
   3 -13  -9   -0.86    4.34
  -3  13  -9   -2.29    8.27
  -3  13   9   -1.00    6.68
   3 -13   9  -11.33    7.96
   3 -13   9    0.55    5.65
  -3  13   9   -0.24    8.56
   2 -13  -9    8.83    5.48
   2 -13  -9    9.81    9.07
  -2  13   9    5.58    8.83
  -2  13   9    5.94    8.35
   2 -13   9    2.20    9.25
   1 -13  -9   -1.69    5.45
   1 -13  -9    1.63    8.60
  -1  13   9    2.52    8.85
  -1  13   9   18.53    8.83
   1 -13   9   -3.36    9.65
   0 -13  -9   10.24    7.57
   0 -13  -9   14.48   10.09
   0  13   9   16.97    9.86
   0  13   9   23.68   11.36
   0 -13   9   26.20   11.30
  -1 -13  -9   -4.42    7.10
  -1 -13  -9   -0.27    8.77
   1  13   9    8.09    8.79
  -1 -13   9    9.49   10.85
  -2 -13  -9    8.37    8.08
  -2 -13   9  -34.11   12.39
   3  13  -9    1.45   11.44
  -3 -13   9  -21.51   11.42
   4  13  -9    6.33   11.51
  -4 -13   9   21.83    6.33
  -4 -13   9  -27.52   11.32
   5  13  -9   -1.37   11.49
   5  13  -9   -1.56   12.05
  -5 -13   9  -19.26    7.36
  -5 -13   9  -20.17   12.09
   6  13  -9    0.40   11.20
   6  13  -9    4.78   11.21
  -6 -13   9   -5.88   10.82
  -6 -13   9    2.65    6.71
   7  13  -9    2.10   10.25
  -7 -13   9   -2.21    7.02
  -8 -13   9   10.47    7.60
  -4  14  -9   11.52    9.15
  -3  14  -9   -3.12    9.41
   3 -14  -9   -2.69    5.02
  -3  14   9   12.34    8.48
  -3  14   9    0.74    7.45
   3 -14   9   -2.07    6.02
   3 -14   9   -0.23    8.88
   2 -14  -9    6.99    5.57
  -2  14  -9   -2.42    8.76
   2 -14   9    0.26    5.68
  -2  14   9   -0.21    8.35
   2 -14   9   -0.25    9.72
  -1  14  -9    6.76    8.09
   1 -14  -9    3.98    6.25
   1 -14   9    0.25    5.58
   1 -14   9   -0.27   11.08
  -1  14   9   -1.40    9.62
   0  14  -9   -4.16    8.94
   0 -14   9  -16.39    6.63
   1  14  -9   12.97   15.09
   1  14  -9   -2.62    9.05
  -1 -14   9    0.24    6.81
  -1 -14   9  -40.57   13.31
   2  14  -9   -1.84   10.18
   2  14  -9    0.40   13.61
  -2 -14   9    1.86   12.54
  -2 -14   9  -26.66    6.77
   3  14  -9   -4.91   13.90
   3  14  -9  -17.87   11.33
  -3 -14   9  -16.07    6.89
  -3 -14   9    0.31   12.87
   4  14  -9    2.32   11.39
   4  14  -9   -1.71   14.03
  -4 -14   9   -3.85   12.13
  -4 -14   9    1.36    7.02
   5  14  -9    3.95   12.83
   5  14  -9   12.60   12.35
  -5 -14   9   26.68   12.21
  -5 -14   9  -13.22    7.38
   6  14  -9   17.74   12.83
   6  14  -9    6.25   12.89
  -6 -14   9    1.36   11.65
  -6 -14   9   10.63    7.57
   7  14  -9   15.78   12.78
   7  14  -9   16.68   12.08
  -7 -14   9   -0.29    7.62
  -8 -14   9   -6.98    7.96
  -4  15  -9  -14.68   10.53
  -3  15  -9   -0.68   10.38
   3 -15   9    0.53   10.68
   3 -15   9  -13.14    7.19
  -3  15   9    3.01   10.24
  -2  15  -9    8.93    9.52
   2 -15  -9    9.24   10.36
   2 -15  -9   22.99    6.19
  -2  15   9   -6.11   10.22
   2 -15   9   -8.80    6.52
   2 -15   9  -13.11   11.68
   1 -15  -9   13.71    7.02
   1 -15  -9   -1.99   10.51
  -1  15  -9    7.57    9.07
  -1  15   9   11.55   10.66
  -1  15   9    1.32   10.43
   1 -15   9   -7.10    5.99
   1 -15   9  -23.13   12.04
   0 -15  -9   -1.75    7.44
   0  15  -9    6.38    9.40
   0  15  -9   -9.56   14.71
   0 -15  -9   10.23   10.37
   0  15   9    7.50   10.54
   0  15   9    4.38   11.79
   0 -15   9    2.64    6.29
   0 -15   9    4.86   13.22
   1  15  -9    5.88    9.74
  -1 -15  -9    5.48    8.34
   1  15  -9  -11.81   16.56
  -1 -15  -9  -28.24   10.76
  -1 -15   9  -22.19    7.09
   1  15   9   -5.32   10.76
   1  15   9   -5.70   13.34
  -1 -15   9    4.04   13.62
   2  15  -9   -6.30   15.28
  -2 -15  -9   -5.27    8.92
   2  15  -9    4.12   11.25
  -2 -15   9   -8.47    7.34
  -2 -15   9  -19.34   13.45
   3  15  -9   16.28   12.72
   3  15  -9  -16.55   15.06
  -3 -15   9   -7.65    7.53
  -3 -15   9    0.70   13.61
   4  15  -9    1.44   15.09
   4  15  -9    2.57   12.39
  -4 -15   9   13.22   13.16
  -4 -15   9   -7.83    7.72
   5  15  -9    2.96   14.22
   5  15  -9    8.86   13.30
  -5 -15   9    2.13    7.87
  -5 -15   9    0.37   13.42
   6  15  -9   16.61   14.19
   6  15  -9   13.48   14.05
  -6 -15   9   15.40   13.13
  -6 -15   9    2.79    8.30
   7  15  -9    3.36   13.59
   7  15  -9    5.13   13.14
  -7 -15   9    9.19    8.31
  -8 -15   9   -3.57    8.45
  -4  16  -9   -5.61   11.04
  -3  16  -9    4.90   11.30
   3 -16   9   15.08    8.10
  -2  16  -9   -9.96   10.73
  -2  16   9   -6.87   12.36
   2 -16   9    3.85   13.35
   2 -16   9  -28.51    7.23
  -2  16   9  -14.13   11.69
  -1  16  -9   -8.82   11.15
   1 -16  -9  -11.83    8.39
   1 -16   9  -34.58   14.94
  -1  16   9  -11.64   12.93
   1 -16   9  -11.54    7.48
   0 -16  -9  -15.42   11.65
   0 -16  -9    1.27    8.46
   0  16  -9   12.53   16.31
   0  16  -9  -13.20   10.88
   0  16   9    1.61   13.70
   0 -16   9  -29.50   15.04
   0  16   9  -29.01   12.76
  -1 -16  -9  -14.36    9.65
  -1 -16  -9   -0.34   11.68
   1  16  -9   12.17   17.04
   1  16  -9  -20.12   11.95
   1  16   9   -9.68   15.25
  -1 -16   9   -0.37   17.48
   1  16   9  -17.01   12.24
  -1 -16   9  -27.69    8.21
   2  16  -9    9.95   12.47
  -2 -16  -9   -4.52   10.47
   2  16  -9   42.41   17.32
   2  16   9   26.66   15.63
  -2 -16   9   28.13    8.81
  -2 -16   9    0.38   16.13
   3  16  -9   -4.84   13.34
   3  16  -9  -13.65   17.26
  -3 -16   9  -25.13    8.22
  -3 -16   9    3.90   15.39
   4  16  -9   -1.08   16.59
   4  16  -9   -8.87   13.52
  -4 -16   9   16.76    8.27
  -4 -16   9   -9.93   14.71
   5  16  -9  -13.84   16.64
   5  16  -9    6.79   13.82
  -5 -16   9   -2.31    8.28
  -5 -16   9  -12.62   14.44
   6  16  -9   13.75   14.23
   6  16  -9  -18.46   15.79
  -6 -16   9   -9.14   13.97
  -6 -16   9  -13.13    8.52
   7  16  -9   -9.81   14.97
   7  16  -9  -14.84   15.11
  -7 -16   9    2.73    8.49
   8  16  -9  -10.63   15.31
  -4  17  -9    0.88   12.49
  -3  17  -9    8.36   12.99
   3 -17   9   13.92    8.37
  -2  17  -9   -4.83   11.92
   2 -17   9    0.35    7.76
  -2  17   9   -1.61   12.50
   2 -17   9    0.36   14.48
  -2  17   9   19.83   11.56
   1 -17  -9    1.60    7.97
   1 -17  -9   -0.35   12.26
  -1  17  -9   -9.58   11.61
  -1  17  -9    3.90   16.58
  -1  17   9    2.49   12.79
  -1  17   9    5.85   13.07
   1 -17   9   15.24   14.71
   1 -17   9    3.04    7.48
   0 -17  -9  -11.11   12.52
   0 -17  -9  -10.07    9.26
   0  17  -9   -4.39   11.61
   0  17  -9  -18.06   18.61
   0  17   9   -7.78   14.49
   0  17   9   13.81   12.65
   0 -17   9    0.40   15.57
   0 -17   9    1.68    7.76
   1  17  -9    5.09   12.23
   1  17  -9   23.81   17.98
  -1 -17  -9   -7.20    9.62
  -1 -17  -9  -15.64   12.44
   1  17   9   14.05   12.90
  -1 -17   9   -6.61   16.19
  -1 -17   9   13.67    7.88
   1  17   9    8.33   15.50
   2  17  -9   21.91   18.42
  -2 -17  -9   -9.73   11.65
   2  17  -9  -23.52   13.14
  -2 -17   9  -17.19    8.40
  -2 -17   9    3.81   16.59
   2  17   9   -4.32   16.04
   3  17  -9    5.30   14.12
   3  17  -9    2.35   18.06
  -3 -17   9   -1.77    8.52
  -3 -17   9  -23.41   16.28
   4  17  -9   16.31   15.06
   4  17  -9   -7.99   18.66
  -4 -17   9    0.36    8.89
  -4 -17   9   -5.36   16.43
   5  17  -9    7.47   15.44
   5  17  -9  -13.67   18.74
  -5 -17   9    7.19    9.06
  -5 -17   9  -12.33   16.24
   6  17  -9  -25.11   18.99
   6  17  -9  -36.54   16.32
  -6 -17   9    0.36    9.90
  -6 -17   9  -26.26   16.75
   7  17  -9   16.53   20.20
   7  17  -9   91.81   22.46
  -3  18  -9    3.73   16.80
   3 -18   9   16.26   10.80
  -2  18  -9   -1.02   18.37
   2 -18   9  -19.25    9.36
  -1  18  -9   21.08   18.37
   1 -18  -9  -10.74   13.64
  -1  18  -9  -26.81   14.01
   1 -18  -9   -4.92    8.77
  -1  18   9   11.93   13.69
   1 -18   9    2.69    8.20
   1 -18   9    7.62   16.76
  -1  18   9   -4.36   14.45
   0 -18  -9    4.71   13.65
   0 -18  -9  -16.51   10.13
   0  18  -9    6.25   14.13
   0  18  -9  -27.44   20.75
   0 -18   9  -21.20   17.53
   0  18   9  -14.10   16.28
   0  18   9    3.80   14.08
   0 -18   9    0.37    8.79
   1  18  -9    0.76   13.56
  -1 -18  -9  -11.93   10.32
   1  18  -9  -15.54   20.34
   1  18   9   18.36   14.13
  -1 -18   9  -25.50    9.26
   1  18   9   17.38   16.79
  -1 -18   9    3.20   18.24
  -2 -18  -9  -11.39   11.89
   2  18  -9   -5.05   15.16
   2  18  -9   23.80   21.32
   2  18   9    4.26   17.94
  -2 -18   9  -34.11   10.21
  -2 -18   9  -44.94   19.28
   3  18  -9  -38.69   22.38
   3  18  -9  -23.31   16.61
  -3 -18   9  -36.01   20.11
   4  18  -9  -34.75   19.08
   4  18  -9  -32.37   23.46
   5  18  -9    0.70   19.96
   5  18  -9  -32.23   17.61
  -5 -18   9   -2.03   19.21
  -5 -18   9  -16.55   10.01
   6  18  -9   15.32   16.78
   6  18  -9   21.19   19.85
  -6 -18   9   -1.18   10.16
  -6 -18   9   16.39   18.28
   7  18  -9   11.11   17.33
   7  18  -9   45.01   18.85
  -7 -18   9   -7.14   10.24
  -4  19  -9   -1.63   16.23
  -3  19  -9  -11.53   16.73
   3 -19   9   -7.61   10.25
  -2  19  -9   -0.99   16.35
  -2  19  -9   21.64   19.47
   2 -19   9    3.87    9.56
  -1  19  -9   11.78   15.09
  -1  19  -9   12.60   20.82
  -1  19   9    7.11   15.17
  -1  19   9    3.58   15.53
   1 -19   9  -24.36   18.99
   1 -19   9  -11.99    9.84
   0 -19  -9   18.43   10.78
   0  19  -9  -15.85   15.90
   0 -19  -9   19.42   15.44
   0  19  -9   12.02   21.93
   0 -19   9   29.53   10.65
   0 -19   9  -18.51   19.62
   0  19   9   -6.30   15.66
   0  19   9   15.11   17.25
  -1 -19  -9  -14.71   11.36
   1  19  -9    3.48   15.84
   1  19  -9  -11.32   21.86
   1  19   9  -35.19   18.61
  -1 -19   9  -42.78   19.69
  -1 -19   9    9.54   10.18
   1  19   9  -20.15   14.45
   2  19  -9  -18.09   16.00
   2  19  -9    9.19   22.46
  -2 -19  -9   -0.47   11.90
  -2 -19   9    0.84   10.12
  -2 -19   9   46.34   20.97
   2  19   9    8.37   18.81
   3  19  -9   10.75   16.95
   3  19  -9   -2.98   23.66
  -3 -19   9  -36.03   20.85
  -3 -19   9   -3.82   10.82
   4  19  -9  -16.73   17.82
   4  19  -9   -2.32   23.45
  -4 -19   9  -24.94   20.76
  -4 -19   9    3.42   10.75
   5  19  -9  -13.55   18.46
   5  19  -9   25.03   23.06
  -5 -19   9  -19.48   11.47
   6  19  -9   -9.79   17.99
   0 -20  -9  -32.81   12.15
   0  20   9   -0.58   16.48
   0  20   9   -4.30   19.21
  -1 -20  -9   11.78   12.79
   1  20   9  -10.81   16.83
   1  20   9   59.05   21.25
  -2 -20  -9    9.18   12.89
   2  20   9  -10.11   20.67
   0   1 -10   -0.25    1.19
   1   0 -10    0.40    1.52
  -1   0  10    0.48    2.34
   1   1 -10   21.76    5.75
   1   1 -10   25.50    6.22
  -1  -1  10   22.02    7.13
  -1  -1  10   26.63    6.63
   1  -2 -10   -0.09    1.98
   2   1 -10   -0.05    1.60
   1  -2 -10    6.21    1.70
   2   1 -10    7.22    1.95
  -2  -1  10    7.66    2.53
  -2  -1  10    7.39    2.15
   0   2 -10  201.83   46.67
   1   2 -10    8.37    2.03
   2  -1 -10   10.40    2.00
   1   2 -10   11.00    2.54
  -1  -2  10    6.57    3.18
  -1  -2  10    9.10    2.72
   2  -2 -10   49.81   10.30
   2   2 -10   60.42   13.21
   2  -2 -10   33.99    9.87
   2   2 -10   40.55   10.61
   2   2 -10   49.22   10.55
  -2   2  10   42.99   11.84
  -2  -2  10   38.17   11.98
  -2  -2  10   34.99   11.97
  -2  -2  10   45.29   11.00
   2  -3 -10   21.91    7.13
   3   2 -10   34.01    8.06
   3   2 -10   32.86    7.48
   3   2 -10   31.96    8.09
   2  -3 -10   29.81    7.00
   3   2 -10   26.08    7.15
  -2   3  10   24.91    8.17
  -3  -2  10   34.39    9.09
  -3  -2  10   30.58    7.44
  -3  -2  10   30.29    7.07
  -3  -2  10   27.63    7.79
   3   1 -10    9.08    2.08
   1  -3 -10    4.70    2.28
   3   1 -10    7.81    2.54
   1  -3 -10   -0.07    1.74
  -1   3  10    3.98    3.08
  -3  -1  10    6.12    1.75
  -3  -1  10    7.03    2.90
   0  -3 -10    0.33    1.89
   0  -3 -10    0.17    1.21
   0   3 -10    1.62    1.27
   3   0 -10    0.82    1.15
   0   3  10   -1.00    2.92
   0  -3  10   -0.41    1.72
   3  -1 -10    7.25    2.15
   1   3 -10    7.15    2.44
   3  -1 -10    6.50    1.88
   1   3 -10    8.82    1.84
   1   3 -10    6.62    2.99
  -1  -3  10    4.79    2.33
  -1  -3  10    6.21    3.06
  -3   1  10    6.25    2.57
  -1  -3  10    5.64    2.72
   3  -2 -10   27.71    6.92
   2   3 -10   32.12    7.24
   2   3 -10   28.96    7.33
   3  -2 -10   32.83    7.08
   2   3 -10   38.33    8.37
  -3   2  10   25.14    7.89
  -2  -3  10   28.29    8.27
  -2  -3  10   29.90    7.29
  -2  -3  10   24.36    8.30
   3  -3 -10    0.56    0.68
   3   3 -10    1.11    1.31
   3   3 -10    0.20    2.00
   3   3 -10    0.67    2.55
   3  -3 -10    0.35    1.40
   3   3 -10    0.37    1.10
   3  -3 -10    0.08    1.62
  -3   3  10    0.43    1.31
  -3  -3  10    2.52    1.23
  -3  -3  10    0.94    1.68
  -3  -3  10    1.55    2.91
  -3   3  10    0.44    0.94
  -3   3  10   -0.07    2.33
  -3  -3  10    1.21    1.54
   4   3 -10    0.47    1.41
   3  -4 -10    0.05    2.44
   4   3 -10    1.40    3.32
   3  -4 -10   -0.12    1.16
   3  -4 -10    0.34    1.38
   3  -4 -10    1.64    1.77
  -3   4  10   -0.56    2.55
  -3   4  10   -0.06    2.37
  -4  -3  10   -5.85    4.05
  -4  -3  10   -3.39    2.00
  -3   4  10    0.72    1.56
   4   2 -10   17.28    4.28
   2  -4 -10   11.64    2.97
   2  -4 -10    9.35    2.59
   2  -4 -10    7.24    2.79
  -4  -2  10   10.54    2.99
  -2   4  10    8.31    3.82
   1  -4 -10   14.66    3.77
   4   1 -10   22.29    4.34
   1  -4 -10   18.20    4.31
   1  -4 -10   15.55    4.82
  -4  -1  10   18.22    4.11
  -4  -1  10   17.48    4.38
  -1   4  10    9.96    5.33
   0  -4 -10    0.23    2.05
   4   0 -10    0.91    1.43
   4   0 -10    1.19    1.52
   0   4 -10    0.51    1.23
   0  -4 -10    0.26    1.31
  -4   0  10    0.51    1.58
   0   4  10    1.81    3.39
   1   4 -10   19.61    4.02
   4  -1 -10   13.38    4.03
   4  -1 -10   14.88    4.00
   1   4 -10   15.15    5.12
  -4   1  10   13.32    4.19
  -1  -4  10   11.50    4.24
   2   4 -10   10.27    3.15
   2   4 -10   10.99    3.64
   4  -2 -10   11.83    2.94
   4  -2 -10   10.27    3.02
   2   4 -10   11.37    2.82
  -2  -4  10   16.71    4.24
  -4   2  10   11.02    3.21
  -2  -4  10   11.03    3.68
  -2  -4  10    9.43    3.11
   4  -3 -10   -1.10    1.82
   4  -3 -10    0.12    1.25
   3   4 -10    9.78    3.05
   3   4 -10   -1.92    2.47
   3   4 -10   -0.94    1.30
   3   4 -10    0.49    1.12
  -4   3  10   -0.32    2.30
  -3  -4  10    0.69    1.29
  -3  -4  10   -2.40    1.85
  -3  -4  10    1.97    3.21
  -3  -4  10   -4.35    2.03
   4  -4 -10   25.39    7.42
   4  -4 -10   30.64    7.52
   4   4 -10   39.74    7.81
   4   4 -10   28.91    8.32
   4  -4 -10   31.68    8.87
  -4   4  10   28.57    8.42
  -4  -4  10   38.84    7.98
  -4  -4  10   33.60    8.21
  -4   4  10   26.90    7.70
   4  -5 -10   46.05    9.41
   4  -5 -10   33.24   10.19
   4  -5 -10   35.42    9.19
   4  -5 -10   34.18   11.05
  -4   5  10   21.15   11.20
  -4   5  10   54.63   10.50
  -4   5  10   47.70    9.56
   3  -5 -10   12.79    3.02
   3  -5 -10   10.67    3.26
   3  -5 -10   11.04    4.51
   5   3 -10   10.80    3.26
   3  -5 -10    9.35    2.83
  -3   5  10   10.96    3.94
  -5  -3  10   10.70    3.61
  -5  -3  10    9.75    3.14
  -3   5  10    9.73    3.46
  -3   5  10   12.62    4.05
   5   2 -10   39.89   10.70
   2  -5 -10   41.61    9.75
   2  -5 -10   37.26    9.94
   2  -5 -10   50.40    9.21
   5   2 -10   45.65   10.44
   2  -5 -10   37.84   14.47
  -5  -2  10   51.26   11.00
  -5  -2  10   41.19   10.56
  -2   5  10   45.48   11.46
  -2   5  10   49.57   12.42
   5   1 -10    1.92    1.78
   5   1 -10    0.37    1.94
   1  -5 -10    1.96    2.10
   1  -5 -10    0.51    2.33
   1  -5 -10    1.57    1.30
  -5  -1  10    0.49    1.81
  -1   5  10    2.33    3.20
   1  -5  10    3.29    2.48
   5   0 -10    0.12    1.73
   0   5 -10   -0.51    1.20
   0   5 -10   -1.89    3.18
   0  -5 -10    0.53    1.26
   5   0 -10   -0.08    1.71
   0  -5 -10   -0.86    2.32
   0   5  10    0.11    3.65
  -5   0  10   -0.10    1.85
   0  -5  10    0.43    2.25
   0  -5  10    0.08    2.85
   1   5 -10    1.46    0.89
   5  -1 -10    0.43    1.74
   5  -1 -10    2.21    1.88
  -1  -5  10    3.52    3.30
  -5   1  10    1.34    2.00
   2   5 -10   47.64   11.03
   2   5 -10   41.06   10.46
   5  -2 -10   35.45    9.77
   5  -2 -10   37.51   10.00
  -2  -5  10   34.29   12.05
  -2  -5  10   55.82   11.72
  -5   2  10   49.80   10.17
   3   5 -10   12.80    2.92
   5  -3 -10   13.20    3.11
   5  -3 -10    8.91    3.28
   3   5 -10   12.88    2.81
   3   5 -10    9.52    4.62
  -3  -5  10   11.42    2.94
  -3  -5  10    0.47    5.22
  -3  -5  10    6.41    3.23
   5  -4 -10   44.72    9.65
   4   5 -10   41.91   10.02
   4   5 -10   41.48   10.56
   4   5 -10   73.82   12.01
   5  -4 -10   47.79    9.59
   4   5 -10   38.05   11.50
   5  -4 -10   43.72   10.92
  -4  -5  10   52.60   10.14
  -4  -5  10   17.96   10.53
  -5   4  10   42.39    9.91
  -4  -5  10   38.21   10.54
  -4  -5  10   29.41   12.69
   5  -5 -10    0.87    2.47
   5   5 -10   -0.98    1.72
   5   5 -10   -2.56    4.48
   5  -5 -10    1.74    2.14
   5  -5 -10   -0.63    2.14
  -5  -5  10   -1.02    5.07
  -5   5  10   -0.87    2.28
  -5  -5  10   -3.02    2.99
   5  -6 -10   15.91    3.57
   5  -6 -10    9.00    4.27
   5  -6 -10    7.94    3.50
  -5   6  10   11.58    4.30
  -6  -5  10   14.48    4.46
  -5   6  10    7.93    3.72
   6   4 -10   15.20    2.65
   4  -6 -10    5.12    2.75
   4  -6 -10    5.72    2.35
   4  -6 -10    5.03    3.54
   4  -6 -10    5.31    2.44
  -4   6  10    7.45    2.78
  -4   6  10    4.60    2.93
  -4   6  10    4.84    3.40
  -4   6  10    3.41    3.45
   3  -6 -10  175.80   38.01
   3  -6 -10  182.17   36.80
   3  -6 -10  150.69   35.20
   3  -6 -10  147.50   48.27
   6   3 -10  157.70   41.06
  -3   6  10  135.16   41.97
  -3   6  10  163.81   40.80
  -3   6  10  141.09   41.77
   6   2 -10   13.88    4.93
   6   2 -10   21.51    5.07
   2  -6 -10   18.96    4.15
   2  -6 -10   15.73    4.65
   2  -6 -10   21.34    4.70
   2  -6 -10   21.16    7.56
  -2   6  10   21.04    6.46
  -2   6  10   19.21    5.60
  -6  -2  10   21.93    5.01
  -2   6  10   17.52    5.88
  -1   6 -10   38.47   15.92
   1  -6 -10   34.34   13.17
   6   1 -10   59.99   13.10
   1  -6 -10   54.94   11.13
   6   1 -10   58.86   12.81
   1  -6 -10   51.09   12.24
   1  -6  10   41.04   12.86
  -1   6  10   54.74   15.02
   1  -6  10   48.25   13.65
  -6  -1  10   57.17   12.96
   6   0 -10   11.08    3.36
   0  -6 -10   11.86    3.46
   0   6 -10   12.49    4.47
   6   0 -10    8.81    3.23
   0  -6 -10    6.75    2.61
   0   6 -10    9.26    3.03
   0   6  10   10.28    4.98
   0  -6  10   10.69    4.36
  -6   0  10   13.75    3.30
   0  -6  10   14.24    3.48
   6  -1 -10   48.47   13.32
   1   6 -10   59.78   14.34
   1   6 -10   53.63   13.35
   6  -1 -10   57.49   12.98
  -1  -6  10   54.14   12.62
  -1  -6  10   63.80   15.03
  -6   1  10   63.50   13.21
   2   6 -10   19.28    5.79
   2   6 -10   13.38    4.49
   6  -2 -10   10.58    4.85
   6  -2 -10   19.67    4.64
  -6   2  10   15.84    4.69
  -2  -6  10   18.85    4.58
  -2  -6  10   31.36    5.09
   3   6 -10  150.88   42.64
   3   6 -10  183.57   39.71
   3   6 -10  159.48   41.50
   6  -3 -10  168.13   37.17
   3   6 -10  165.15   41.49
  -3  -6  10  170.40   43.29
  -3  -6  10  161.68   37.12
  -3  -6  10  151.24   40.89
   4   6 -10    4.82    4.75
   6  -4 -10    7.08    2.91
   6  -4 -10    3.26    2.57
   4   6 -10    4.95    1.89
   4   6 -10    3.83    4.51
  -4  -6  10    4.28    3.23
  -6   4  10    5.48    2.77
  -4  -6  10    6.26    5.00
  -4  -6  10    3.59    2.21
   6  -5 -10   12.44    3.60
   6  -5 -10   11.12    3.69
   5   6 -10    8.83    5.94
   5   6 -10   13.43    3.48
  -5  -6  10   14.42    4.43
  -6   5  10    6.87    3.75
  -5  -6  10   11.05    6.45
   6  -6 -10    0.61    2.63
   6  -6 -10    0.53    2.87
  -6  -6  10    0.84    3.81
  -6   6  10   -0.29    2.67
   6  -7 -10    0.13    2.77
   7   6 -10   -1.33    2.42
   6  -7 -10    4.49    3.03
  -6   7  10    1.87    3.36
  -7  -6  10    0.31    3.99
   5  -7 -10   10.30    2.82
   5  -7 -10    7.12    2.97
   7   5 -10    3.92    2.87
  -5   7  10    2.51    3.85
  -7  -5  10    4.48    3.89
  -5   7  10    7.47    3.32
   4  -7 -10   77.09   18.53
   7   4 -10   79.58   20.78
   4  -7 -10   76.67   17.84
  -4   7  10   82.06   18.70
  -4   7  10   85.26   20.67
   3  -7 -10   -0.74    1.90
   7   3 -10    0.67    2.39
   3  -7 -10    0.22    2.43
  -3   7  10    3.41    3.56
   2  -7 -10  110.29   25.50
   2  -7 -10  117.41   24.00
   7   2 -10  114.36   27.97
  -2   7  10  100.26   30.84
   2  -7  10   93.52   27.89
   1  -7 -10   22.53    8.09
   7   1 -10   32.41    8.41
   1  -7 -10   43.68    8.52
   1  -7 -10   38.12   12.02
  -1   7 -10   25.04   10.47
   1  -7 -10   33.48    7.23
  -1   7  10   25.13   10.44
   1  -7  10   27.86    8.27
  -1   7  10   30.70   10.29
   1  -7  10   40.78    9.14
   0   7 -10   -2.64    3.66
   0  -7 -10    0.56    2.69
   0  -7 -10    0.44    3.54
   0  -7 -10    0.09    1.59
   7   0 -10    0.59    2.53
  -7   0  10    0.86    2.28
   0   7  10   -2.82    4.42
   0  -7  10   -1.93    2.69
   0  -7  10    1.39    4.05
  -1  -7 -10   42.79    7.39
   7  -1 -10   28.00    8.17
   7  -1 -10   23.51    8.40
   1   7 -10   31.91    8.99
  -7   1  10   32.98    8.32
  -1  -7  10   36.05   10.03
  -1  -7  10   26.57    7.74
   2   7 -10  106.06   28.65
   7  -2 -10  112.69   26.05
   7  -2 -10   95.97   26.72
  -7   2  10   94.70   26.61
  -2  -7  10  106.63   24.93
  -2  -7  10  134.61   30.67
   3   7 -10   -2.39    5.22
   7  -3 -10    0.40    2.96
   3   7 -10    2.31    3.99
   7  -3 -10    3.99    2.61
  -3  -7  10    4.82    5.11
  -7   3  10    0.45    2.55
  -3  -7  10    0.11    3.03
   4   7 -10   60.02   19.88
   7  -4 -10   70.39   17.38
   7  -4 -10   74.59   17.80
   4   7 -10   68.60   22.12
  -4  -7  10   78.60   18.36
  -4  -7  10   76.17   21.18
   7  -5 -10    3.76    3.19
   7  -5 -10    5.71    3.13
   5   7 -10    6.04    5.83
  -5  -7  10   14.57    6.32
  -5  -7  10    4.92    3.97
  -7   5  10    3.50    3.18
   6   7 -10    3.56    5.79
   7  -6 -10    0.27    3.01
   7  -6 -10    4.56    3.33
  -6  -7  10    1.87    4.09
  -7   6  10    0.17    3.26
   7  -7 -10    8.16    3.85
   7  -7 -10    5.42    3.63
  -7   7  10    3.84    3.54
  -7  -7  10    2.34    4.52
   7  -8 -10    2.61    3.84
   7  -8 -10    0.74    3.69
  -7   8  10   -0.92    3.77
   6  -8 -10   -2.86    3.14
   6  -8 -10    0.20    3.01
  -6   8  10   -0.83    3.45
   5  -8 -10    0.38    2.97
   5  -8 -10   -2.28    2.92
  -5   8  10    0.60    3.22
  -5   8  10   -0.43    3.69
  -5   8  10    1.39    4.03
   4  -8 -10   15.58    6.71
   4  -8 -10   19.57    5.31
   4  -8 -10   16.72    5.17
   4  -8 -10   19.83    4.92
  -4   8  10   22.21    5.41
  -4   8  10   22.12    6.32
  -4   8  10   12.98    6.26
  -4   8  10   18.94    5.96
   3  -8 -10   13.16    5.89
   3  -8 -10   11.50    3.98
   3  -8 -10   11.92    3.57
   3  -8 -10   16.28    3.85
  -3   8  10    6.31    5.42
  -3   8  10   10.88    4.77
  -3   8  10   13.81    4.19
  -3   8  10   13.46    5.28
   2  -8 -10   17.86    4.15
   2  -8 -10   15.25    4.71
  -2   8 -10    7.13    7.01
   2  -8 -10   20.43    4.71
   2  -8 -10   14.97    7.19
  -2   8  10   11.63    5.84
  -2   8  10   13.76    6.63
   2  -8  10   16.64    5.83
  -2   8  10   19.77    6.37
  -1   8 -10    7.30    5.72
   1  -8 -10   14.02    3.25
   1  -8 -10   13.16    4.53
   1  -8 -10    6.18    6.64
   1  -8 -10   14.11    4.05
   1  -8  10   12.32    4.31
   1  -8  10   14.70    5.22
  -1   8  10   10.01    6.12
  -1   8  10   14.12    5.90
   0  -8 -10    9.41    2.83
   0   8 -10   12.55    4.83
   0  -8 -10    9.49    4.86
   0  -8 -10    7.15    3.80
   0  -8  10   13.90    5.26
   0  -8  10    9.34    3.88
   0   8  10    9.06    5.92
  -1  -8 -10    5.86    5.65
   1   8 -10   10.15    4.90
  -1  -8 -10   12.59    3.34
  -1  -8  10   10.82    3.91
  -1  -8  10   12.59    6.24
   2   8 -10   18.81    6.22
   8  -2 -10   16.68    5.06
  -2  -8  10   21.58    7.49
  -2  -8  10    9.65    4.96
  -8   2  10   18.35    4.95
   8  -3 -10   13.98    4.22
   3   8 -10    9.38    5.99
   3   8 -10    9.87    6.86
  -3  -8  10   16.73    6.91
  -3  -8  10   12.57    4.51
  -8   3  10   11.18    4.23
   4   8 -10   20.87    7.66
   4   8 -10   12.79    7.62
   8  -4 -10   10.66    5.00
  -4  -8  10   15.35    5.59
  -4  -8  10   19.26    7.66
   8  -5 -10    4.82    3.25
   8  -5 -10    0.25    3.36
   5   8 -10    4.00    6.37
  -8   5  10    3.67    3.52
  -5  -8  10   -0.96    4.09
  -5  -8  10    0.54    6.51
   8  -6 -10   -2.00    3.43
   8  -6 -10    0.16    3.27
   6   8 -10    3.28    6.80
  -6  -8  10    3.54    7.11
  -6  -8  10   -1.37    4.50
  -8   6  10    0.57    3.72
   8  -7 -10    4.43    3.75
   8  -7 -10    2.57    3.62
  -7  -8  10    2.40    4.83
  -8   7  10   -0.20    3.72
   8  -8 -10   41.90    9.35
   8  -8 -10   34.78    9.51
  -8   8  10   45.39    9.81
  -8  -8  10   18.07   10.22
   8  -9 -10    0.57    4.34
   8  -9 -10   -4.79    4.27
  -8   9  10  -14.14    4.65
   7  -9 -10   17.29    4.79
   7  -9 -10   17.71    5.24
  -7   9  10    5.68    5.13
   6  -9 -10   12.83    5.42
   6  -9 -10   20.39    5.53
  -6   9  10   21.00    6.53
  -6   9  10   19.67    5.66
   5  -9 -10    7.92    3.77
   5  -9 -10    9.77    3.88
  -5   9  10    5.94    5.09
  -5   9  10   11.18    4.05
   4  -9 -10    5.14    5.19
   4  -9 -10    1.94    2.50
   4  -9 -10   -1.67    3.01
   4  -9 -10    1.10    2.80
  -4   9  10    4.81    3.75
  -4   9  10   -0.13    4.86
  -4   9  10   -1.66    3.16
  -4   9  10    4.21    4.54
   3  -9 -10   17.23    4.72
   3  -9 -10   13.68    7.10
   3  -9 -10   25.30    4.95
   3  -9 -10   16.26    5.08
  -3   9  10   19.82    6.85
  -3   9  10    5.29    6.76
  -3   9  10   17.25    6.11
  -3   9  10   17.72    5.27
   2  -9 -10    4.32    3.38
   2  -9 -10    3.77    2.44
   2  -9 -10    6.94    5.72
   2  -9 -10    4.96    3.18
  -2   9 -10   16.19    6.21
  -2   9  10    4.00    5.53
   2  -9  10    7.75    4.82
  -2   9  10    6.45    4.93
   2  -9  10    3.16    4.22
  -2   9  10    3.58    4.95
   1  -9 -10    0.94    1.93
   1  -9 -10    4.34    3.75
  -1   9 -10    0.50    5.00
   1  -9 -10    0.17    5.99
   1  -9 -10    2.00    2.93
  -1   9  10    1.15    5.53
   1  -9  10   -2.42    4.96
  -1   9  10    2.05    5.19
   1  -9  10    1.79    3.52
   0  -9 -10   -1.91    4.51
   0  -9 -10    0.11    1.83
   0  -9 -10    0.48    3.00
   0   9 -10   -0.14    4.34
   0   9  10    1.30    5.50
   0  -9  10    1.57    3.34
   0   9  10   -0.16    5.44
   0  -9  10    3.52    5.47
  -1  -9 -10    0.46    2.05
  -1  -9 -10    3.35    5.11
   1   9 -10   -0.51    4.42
  -1  -9  10    1.36    3.29
  -1  -9  10   -2.58    6.69
   2   9 -10    7.84    5.29
   2   9 -10    7.99    7.27
  -2  -9  10    5.31    3.91
  -2  -9  10   13.74    6.98
   3   9 -10   18.46    7.39
   3   9 -10   18.73    8.41
  -3  -9  10   16.27    8.28
  -3  -9  10   14.27    5.70
   4   9 -10   -0.44    6.65
   4   9 -10    3.78    6.41
  -4  -9  10   -0.32    4.22
  -4  -9  10   -0.18    6.74
   5   9 -10    3.94    7.79
   5   9 -10    8.15    7.63
  -5  -9  10   10.74    5.38
  -5  -9  10    8.99    7.49
   6   9 -10    3.26    8.39
  -6  -9  10   15.77    6.39
  -6  -9  10    9.51    9.02
   9  -7 -10   11.68    5.06
  -7  -9  10   12.78    6.15
   9  -8 -10   -8.33    4.38
  -8  -9  10   -3.17    5.62
   9  -9 -10    7.23    4.75
   8 -10 -10    3.02    4.48
   8 -10 -10    1.60    4.68
  -8  10  10   19.95    4.99
   7 -10 -10    6.82    4.91
   7 -10 -10    9.49    4.37
  -7  10  10    9.62    4.67
   6 -10 -10   -2.28    3.66
   6 -10 -10    0.68    3.96
  -6  10  10    1.12    3.63
  -6  10  10   -1.78    5.06
   5 -10 -10   11.72    4.82
   5 -10 -10   12.23    4.62
  -5  10  10   16.70    6.24
  -5  10  10   16.63    5.05
   4 -10 -10   11.56    4.39
   4 -10 -10   12.48    3.95
  -4  10  10    8.89    5.85
  -4  10  10   15.16    4.54
  -4  10  10    4.14    6.14
  -4  10  10   14.98    5.07
  -3  10 -10   -6.69    7.29
   2 -10 -10    0.72    2.25
   2 -10 -10   -3.03    3.12
   2 -10 -10    1.68    3.45
   2 -10 -10   -3.77    5.98
  -2  10 -10    3.30    6.02
   2 -10  10   -4.67    5.27
  -2  10  10   -2.73    5.28
  -2  10  10   -5.98    6.00
   2 -10  10    0.42    4.54
  -2  10  10    2.78    5.33
   1 -10 -10   -3.37    3.34
   1 -10 -10   -1.01    2.06
   1 -10 -10   -4.35    4.04
   1 -10 -10   -0.19    6.65
  -1  10 -10    2.34    5.36
  -1  10  10   -3.11    6.18
   1 -10  10   -3.44    5.68
  -1  10  10    0.85    6.29
   1 -10  10    0.52    3.85
  -1  10  10   -3.91    5.90
   0 -10 -10    5.29    8.86
   0  10 -10   17.70    6.45
   0 -10 -10   14.44    6.42
   0 -10 -10   20.18    4.29
   0 -10 -10   12.98    5.43
   0  10  10   14.98    8.11
   0 -10  10   16.29    8.01
   0  10  10   10.68    7.71
   0 -10  10   20.92    5.18
  -1 -10 -10   -0.90    5.27
   1  10 -10    1.60    4.88
  -1 -10 -10    0.48    2.17
  -1 -10  10    0.31    3.63
  -1 -10  10  -11.11    7.53
   2  10 -10   -0.25    8.36
   2  10 -10   -0.80    5.90
  -2 -10  10   -7.39    7.90
  -2 -10  10    0.16    3.96
   3  10 -10    1.03    7.03
   3  10 -10   -9.70    8.88
  -3 -10  10  -19.40    5.29
   4  10 -10   14.74    7.87
   4  10 -10    8.56    8.45
  -4 -10  10   -8.62    8.39
  -4 -10  10    9.22    5.42
   5  10 -10   13.98    8.85
   5  10 -10   10.74    8.92
  -5 -10  10   13.98    5.83
  -5 -10  10    0.22    8.59
   6  10 -10    1.48    8.04
  -6 -10  10    5.61    5.55
  -6 -10  10   -8.32    8.23
   7  10 -10    5.23    8.72
  -7 -10  10    8.46    6.06
  -8 -10  10    6.07    6.10
   9 -11 -10   43.43   11.37
   7 -11 -10    2.24    4.60
   7 -11 -10    0.51    4.44
  -7  11  10   -2.23    4.81
  -7  11  10   10.53    5.78
   6 -11 -10   -5.95    4.04
   6 -11 -10    4.65    4.05
  -6  11  10    1.00    4.06
  -6  11  10    4.84    5.47
   5 -11 -10    2.13    3.68
   5 -11 -10    1.62    3.54
  -5  11  10    2.37    3.97
  -5  11  10    0.13    5.43
   4 -11 -10    0.71    3.54
   4 -11 -10    1.04    3.17
  -4  11  10    4.66    5.41
  -4  11  10    4.90    3.80
   3 -11 -10    3.14    6.94
   3 -11 -10    1.94    2.83
   3 -11 -10   -5.04    3.54
  -3  11 -10    8.74    7.17
   3 -11 -10    2.71    3.63
   3 -11  10    6.15    5.98
  -3  11  10    1.31    6.35
  -3  11  10    3.89    3.48
  -3  11  10   -2.11    5.45
  -3  11  10   -1.43    5.33
  -2  11 -10    1.41    7.09
   2 -11 -10   -3.44    6.88
   2 -11 -10   -0.26    2.56
   2 -11 -10   -0.30    3.49
   2 -11 -10    0.88    3.93
  -2  11  10    4.26    6.00
  -2  11  10    1.17    5.95
   2 -11  10    0.17    6.26
   2 -11  10    5.15    4.78
  -2  11  10    7.32    6.89
   1 -11 -10    5.72   10.72
   1 -11 -10   30.98    7.97
  -1  11 -10   35.20    9.02
   1 -11 -10   31.05    6.51
   1 -11 -10   32.89    7.59
   1 -11  10   16.84    7.13
  -1  11  10   40.99   10.13
  -1  11  10   23.57   10.19
  -1  11  10   27.68   10.65
   1 -11  10   17.00    9.69
   0 -11 -10    4.76    7.59
   0 -11 -10   -1.26    5.40
   0  11 -10    5.06    5.88
   0 -11 -10   -1.77    2.24
   0  11  10   -2.84    6.75
   0  11  10   -2.08    6.95
   0 -11  10   -5.69    8.02
   0 -11  10    0.18    4.14
  -1 -11 -10   27.94    8.80
  -1 -11 -10   23.48    6.19
   1  11 -10   28.96    8.78
  -1 -11  10    9.31   11.13
  -1 -11  10   15.98    6.89
  -2 -11 -10   -2.15    6.37
   2  11 -10    2.72    6.66
   2  11 -10    3.68    9.67
  -2 -11  10   -6.46    5.04
  -2 -11  10  -26.19    9.41
   3  11 -10   -1.13    9.25
   3  11 -10   -1.36    7.67
  -3 -11  10    1.90    5.21
  -3 -11  10   18.28    9.66
   4  11 -10    8.75    9.11
   4  11 -10    3.99    8.37
  -4 -11  10    1.14    8.74
  -4 -11  10    0.20    5.18
   5  11 -10    8.33    8.89
   5  11 -10   -1.54    9.05
  -5 -11  10    3.64    5.57
  -5 -11  10   -6.45    8.89
   6  11 -10    2.60    9.21
  -6 -11  10    4.28    6.22
  -6 -11  10    2.06    9.06
   7  11 -10    6.32    8.66
  -7 -11  10   -0.24    6.03
   9 -12 -10    0.21    5.06
  -8  12  10    6.36    5.26
   7 -12 -10   -4.62    4.46
  -7  12  10   -2.12    6.21
   6 -12 -10   -1.80    4.32
   6 -12 -10   -1.35    4.29
  -6  12  10   -4.12    6.21
  -6  12  10   -1.90    4.77
   5 -12 -10    0.79    3.74
   5 -12 -10    1.78    4.06
  -5  12  10   -0.80    5.81
  -5  12  10   -2.71    4.22
   4 -12 -10    3.46    3.37
   4 -12 -10    4.32    3.68
  -4  12  10   -1.08    4.17
  -4  12  10   -2.69    5.58
   3 -12 -10   -4.08    7.51
   3 -12 -10    0.81    2.97
   3 -12 -10    3.35    3.89
   3 -12 -10    0.90    3.73
  -3  12  10   -2.28    5.97
  -3  12  10    1.02    3.88
  -3  12  10   -4.68    5.90
  -3  12  10   -3.36    7.11
   2 -12 -10    6.76    4.79
   2 -12 -10   -3.80    7.93
   2 -12 -10    9.21    4.23
   2 -12 -10    3.43    3.32
  -2  12  10    5.16    4.21
  -2  12  10    8.91    7.05
  -2  12  10    4.19    7.46
  -2  12  10   17.61    7.25
   1 -12 -10    0.78    2.58
  -1  12 -10    6.00    6.49
   1 -12 -10   11.87    7.83
   1 -12 -10   -0.19    5.02
  -1  12  10    7.65    6.97
  -1  12  10    7.16    7.67
  -1  12  10   -4.31    7.99
   1 -12  10   -0.21    4.51
   0 -12 -10   28.39    7.71
   0 -12 -10   13.36   10.22
   0  12 -10   28.89    8.25
   0  12  10   34.46    9.69
   0 -12  10   10.38    6.36
   0 -12  10   -0.22    9.62
   1  12 -10   -6.52    6.71
  -1 -12 -10   -2.34    6.48
  -1 -12  10  -13.70    4.75
   1  12  10    4.92    7.92
   2  12 -10   13.57    8.62
   2  12 -10   40.85   11.55
   3  12 -10   -8.84    9.02
  -3 -12  10    1.27    5.30
  -3 -12  10   -0.25    9.21
   4  12 -10   -7.52    9.88
  -4 -12  10    0.22    5.68
   7  12 -10    4.20    9.59
  -8 -12  10   -7.05    6.74
   9 -13 -10    5.33    5.54
  -9  13  10   -8.89    7.09
  -8  13  10   -4.00    6.76
  -8  13  10   -0.56    5.73
  -3  13 -10   -4.22    8.75
  -3  13  10   -0.72    8.10
   3 -13  10   -0.28    6.06
   3 -13  10    1.22    7.37
  -3  13  10  -14.70    7.23
   2 -13 -10    3.09    8.62
  -2  13 -10  -10.25    7.71
   2 -13 -10   -4.29    4.87
  -2  13  10  -13.42    7.85
   2 -13  10    5.24    5.49
   2 -13  10   -2.36    8.69
  -2  13  10    3.66    8.48
   1 -13 -10    9.80    9.32
   1 -13 -10   -1.49    6.40
  -1  13  10    7.01    9.25
  -1  13  10   18.90    9.70
   1 -13  10    1.41    9.44
   0 -13 -10    0.26    9.10
   0 -13 -10   -1.72    6.17
   0 -13  10    0.25   10.22
   0  13  10   -1.52    8.62
   0  13  10   -6.99   10.36
   1  13 -10   16.49   13.11
  -1 -13 -10   -1.13    8.01
   1  13  10    7.62    9.11
  -1 -13  10    5.13   11.59
   2  13 -10   -8.72   12.64
  -2 -13 -10   -1.54    8.01
  -2 -13  10   -2.23   11.59
   3  13 -10  -20.54   12.22
  -3 -13  10   -0.24    5.22
   4  13 -10   16.57   16.00
   4  13 -10   50.35   15.51
  -4 -13  10   73.27   16.26
   5  13 -10    0.39   11.61
   5  13 -10    1.65   10.90
  -5 -13  10   -2.83    6.71
  -5 -13  10  -12.37   11.18
   6  13 -10    4.01   11.10
   6  13 -10    8.50   11.33
  -6 -13  10    0.26    6.81
  -6 -13  10  -14.85   10.99
   7  13 -10   -2.93   10.93
   7  13 -10    8.09   12.13
  -7 -13  10   -4.37    7.32
  -7 -13  10    2.26   10.43
  -8 -13  10    0.28    7.39
  -3  14 -10    4.58    9.34
   3 -14  10   -7.43    8.93
   3 -14  10   -9.64    6.10
   2 -14 -10    2.94    5.45
  -2  14 -10   -8.65    8.86
   2 -14  10   -0.24    9.26
  -2  14  10   -8.09    8.52
   2 -14  10    0.26    5.58
   1 -14 -10    8.89    6.28
  -1  14 -10    3.06    8.54
   1 -14  10    0.25    5.81
  -1  14  10   -1.41    9.85
   1 -14  10   -3.45   10.68
   0  14 -10   -1.43    8.53
   0 -14  10    0.24    5.83
   0 -14  10    0.29   11.78
   1  14 -10    0.24    8.53
   1  14 -10  -22.05   14.05
  -1 -14  10   38.90   12.72
  -1 -14  10    0.24    6.06
  -2 -14 -10   -0.33    6.98
   2  14 -10  -24.52   10.46
   2  14 -10   -6.90   14.32
  -2 -14  10    0.25    6.48
  -2 -14  10    0.31   12.89
   3  14 -10    3.08   11.35
   3  14 -10    8.27   13.52
  -3 -14  10   -5.03   13.13
  -3 -14  10    0.26    6.72
   4  14 -10   -6.39   13.45
   4  14 -10    9.63   11.91
  -4 -14  10   -0.96   12.06
  -4 -14  10  -15.85    7.17
   5  14 -10  -12.67   12.42
   5  14 -10   -7.05   13.24
  -5 -14  10   -1.97   11.55
  -5 -14  10   -2.23    7.21
   6  14 -10  -15.24   13.38
   6  14 -10    7.71   12.49
  -6 -14  10   -1.70   11.79
  -6 -14  10    0.86    6.95
   7  14 -10   -6.28   12.51
   7  14 -10    4.63   12.23
  -7 -14  10    9.84   11.62
  -7 -14  10   -2.93    7.55
  -8 -14  10   -9.90    7.97
  -4  15 -10   -9.00   10.23
   4 -15  10  -24.06   10.20
  -3  15 -10   -5.00   10.64
   3 -15  10    2.62   10.33
   3 -15  10   -0.33    7.00
  -2  15 -10   -8.93    9.75
   2 -15  10   -0.29    6.25
  -2  15  10   10.31    9.91
   2 -15  10   -0.28   11.36
   1 -15 -10   -1.03    6.80
  -1  15 -10  -11.11    9.47
   1 -15 -10   -0.57   10.09
  -1  15  10    2.37   10.07
   1 -15  10  -11.37   12.45
   1 -15  10   -1.68    6.14
   0 -15 -10   14.85   10.26
   0  15 -10   -8.58    9.35
   0  15 -10   -2.50   14.46
   0 -15 -10   -0.29    7.47
   0 -15  10    9.29   12.95
   0  15  10   -5.84   12.28
   0 -15  10   -3.24    6.19
   0  15  10  -11.52   10.01
   1  15 -10    5.66    9.78
   1  15 -10    2.64   15.04
  -1 -15 -10    5.20    8.20
   1  15  10   11.48   13.39
  -1 -15  10   -4.30    6.49
   1  15  10   -7.70   10.56
  -1 -15  10  -10.06   13.41
  -2 -15 -10    4.26    9.18
   2  15 -10    6.82   15.28
   2  15 -10   -0.57   10.73
  -2 -15  10   12.62    7.05
  -2 -15  10    1.38   13.76
   3  15 -10   -2.33   15.26
   3  15 -10    4.67   12.23
  -3 -15  10   21.34   13.78
  -3 -15  10    7.86    7.32
   4  15 -10  -12.65   15.41
   4  15 -10   14.87   12.97
  -4 -15  10    0.30    7.53
  -4 -15  10  -17.63   13.94
   5  15 -10    5.98   15.17
   5  15 -10   -4.29   12.79
  -5 -15  10   -0.30    8.00
  -5 -15  10  -35.31   14.30
   6  15 -10   -9.42   13.58
   6  15 -10   19.58   14.75
  -6 -15  10   -4.15   13.64
  -6 -15  10    9.02    8.07
   7  15 -10  -18.01   14.54
   7  15 -10   -7.19   13.94
  -7 -15  10  -21.49    8.32
  -7 -15  10    0.77   12.96
   8  15 -10   -5.15   14.26
  -8 -15  10   -1.28    8.09
  -4  16 -10    8.17   11.25
  -3  16 -10   -5.11   12.22
   3 -16  10  -35.25   12.70
   3 -16  10   -6.42    8.03
  -2  16 -10    3.54   12.08
   2 -16  10  -41.49   13.42
   2 -16  10  -13.89    7.92
   1 -16 -10   85.16   17.88
  -1  16 -10   28.75   20.01
   1 -16  10   34.51   15.65
   1 -16  10   77.55   22.64
  -1  16  10   37.23   20.89
  -1  16  10  118.79   22.99
   0  16 -10   23.65   22.12
   0 -16 -10   86.33   19.76
   0  16 -10   48.01   17.57
   0 -16 -10   29.33   15.55
   0  16  10   28.67   17.77
   0  16  10   29.62   20.63
   0 -16  10   65.00   13.60
  -1 -16 -10   28.55   17.76
   1  16 -10   24.47   24.39
   1  16 -10   39.11   19.72
  -1 -16  10   44.19   14.91
   1  16  10   21.93   23.71
   1  16  10   17.91   19.63
  -2 -16 -10  -13.32   10.94
   2  16 -10  -25.97   17.61
   2  16 -10  -33.84   13.45
   3  16 -10  -15.11   17.78
   3  16 -10  -19.85   13.89
  -3 -16  10  -12.82   16.12
  -3 -16  10  -15.69    8.50
   4  16 -10    5.48   16.87
   4  16 -10   -4.27   13.54
  -4 -16  10  -18.86    8.41
  -4 -16  10    9.60   15.08
   5  16 -10    3.36   16.21
   5  16 -10   -9.45   14.96
  -5 -16  10  -29.43   15.09
  -5 -16  10   -0.33    8.28
   6  16 -10    4.39   14.98
   6  16 -10  -19.72   16.74
  -6 -16  10  -21.47    8.72
  -6 -16  10    9.18   14.67
   7  16 -10    4.78   15.05
   7  16 -10   -5.73   15.36
  -7 -16  10   -3.06    8.98
  -7 -16  10  -33.05   15.03
   8  16 -10    7.04   14.40
  -4  17 -10   -9.85   12.72
  -3  17 -10   -4.79   12.96
   3 -17  10    1.18    8.17
   3 -17  10   -9.11   13.33
  -2  17 -10  -14.27   12.53
   2 -17  10  -22.62    8.35
   2 -17  10   27.41   14.65
  -1  17 -10    0.72   11.76
  -1  17 -10  -34.86   17.80
  -1  17  10  -15.15   12.58
  -1  17  10  -14.56   13.64
   1 -17  10   -0.35    7.52
   1 -17  10   15.82   15.16
   0 -17 -10  -15.69   11.78
   0  17 -10  -23.72   18.13
   0 -17 -10  -11.12    9.32
   0  17 -10    0.35   12.02
   0  17  10   30.04   14.42
   0 -17  10   25.13    8.28
   0 -17  10   12.25   16.07
   0  17  10    0.86   12.22
   1  17 -10   -8.52   12.17
  -1 -17 -10  -19.01    9.57
   1  17 -10  -23.23   18.36
   1  17  10    3.41   15.64
   1  17  10    3.17   12.14
  -1 -17  10   -2.36    8.08
  -1 -17  10   -2.06   16.36
   2  17 -10   -7.92   18.47
   2  17 -10  -16.06   13.09
  -2 -17 -10    6.95   10.40
  -2 -17  10   -0.42   16.52
   2  17  10    0.39   16.35
  -2 -17  10  -21.22    8.53
   3  17 -10   -3.78   14.12
   3  17 -10   28.49   18.93
  -3 -17  10   -4.58    8.49
  -3 -17  10  -13.88   16.53
   4  17 -10  -10.24   14.95
   4  17 -10    1.24   19.43
  -4 -17  10  -24.68   16.94
  -4 -17  10   -3.25    9.08
   5  17 -10   29.54   18.71
   5  17 -10   -0.40   15.79
  -5 -17  10    0.45   16.49
  -5 -17  10    7.63    9.09
   6  17 -10  -15.47   16.34
   6  17 -10  -22.16   19.26
  -6 -17  10    0.36   10.59
   7  17 -10  -24.75   18.21
   7  17 -10  -29.50   19.56
  -7 -17  10  -37.79   11.62
   8  17 -10   -9.21   16.04
  -8 -17  10    0.37    9.21
  -4  18 -10  -14.85   14.54
  -3  18 -10  -49.47   20.17
  -2  18 -10   56.16   30.66
   2 -18  10  116.51   23.47
   2 -18  10  124.86   31.13
  -1  18 -10  -49.52   20.81
  -1  18 -10  -24.11   15.92
   0 -18 -10   -7.20   10.69
   0 -18 -10  -37.67   14.46
   0  18 -10  -24.04   15.79
   0  18 -10  -21.14   21.01
   0  18  10  -21.65   14.33
   0  18  10  -10.57   16.91
   1  18 -10  -63.50   22.46
  -1 -18 -10  -12.38   11.87
   1  18  10  -26.12   18.51
   1  18  10   -5.92   14.91
   2  18 -10   93.32   29.82
  -2 -18 -10   52.93   25.75
   2  18 -10   18.89   34.44
   2  18  10   24.42   32.31
  -2 -18  10  149.33   23.19
   3  18 -10  -25.86   23.53
   3  18 -10  -12.66   18.04
  -3 -18  10  -65.35   22.18
   4  18 -10    4.86   21.48
   4  18 -10  -13.25   16.11
  -4 -18  10    0.99   18.40
  -4 -18  10    0.39    9.98
   5  18 -10   16.91   20.95
   5  18 -10  -22.09   17.21
  -5 -18  10    9.17   10.20
  -5 -18  10   -3.57   18.51
   6  18 -10  -12.60   17.18
   6  18 -10   -7.11   20.16
  -6 -18  10   -0.40   10.34
  -6 -18  10   10.26   17.88
   7  18 -10   -6.05   17.48
   7  18 -10   -8.63   18.12
  -7 -18  10  -14.66   10.65
   8  18 -10   14.33   18.00
  -4  19 -10    0.55   15.48
  -3  19 -10   23.36   17.32
   3 -19  10   12.51   11.07
  -2  19 -10  -24.64   16.73
  -2  19 -10   -8.51   20.17
   2 -19  10    3.18    9.87
   2 -19  10   19.68   18.20
  -1  19 -10  -15.56   21.19
  -1  19 -10  -10.51   15.98
   1 -19  10  -11.51    9.68
   1 -19  10   21.79   18.30
   0  19 -10  -35.22   21.14
   0  19 -10   19.80   16.08
   0 -19  10    0.48   18.92
   0  19  10    4.66   13.89
   0 -19  10    9.83    9.92
   1  19 -10   33.29   23.37
  -1 -19 -10    4.91   11.34
   1  19 -10   -2.19   15.18
  -1 -19  10  -12.48   19.73
   1  19  10   -8.08   14.30
  -1 -19  10    1.69   10.05
   1  19  10  -25.28   18.75
  -2 -19 -10    5.70   12.30
   2  19 -10   11.16   22.30
   2  19 -10  -10.91   15.48
  -2 -19  10  -12.05   10.19
  -2 -19  10   12.86   20.16
   2  19  10   -8.39   18.90
   3  19 -10    5.23   23.49
   3  19 -10   10.78   16.59
  -3 -19  10    4.30   20.61
  -3 -19  10   13.09   10.60
   4  19 -10    4.67   17.39
   4  19 -10   -0.78   23.73
  -4 -19  10  -10.27   10.35
  -4 -19  10   28.00   20.86
   5  19 -10  -33.16   22.85
   5  19 -10    2.38   18.50
  -5 -19  10  -13.77   11.27
  -1 -20 -10   -3.40   12.18
   1  20  10   13.39   20.43
   0  -1 -11  175.36   33.13
   0  -1 -11  126.34   35.72
   0   1  11  128.53   40.13
   1  -1 -11    0.56    1.13
   1  -1 -11    3.42    1.83
  -1  -1  11    0.03    1.23
  -1   1  11    3.39    2.71
   1  -2 -11   23.29    6.36
   1  -2 -11   16.79    6.90
  -1   2  11   31.16    8.35
  -2  -1  11   31.62    7.87
   0  -2 -11    2.14    2.04
   2   0 -11   -0.38    1.01
   0  -2 -11    0.18    1.39
   0   2 -11    1.87    1.30
   0   2  11   -0.74    3.22
   2  -1 -11   26.56    6.75
   1   2 -11   32.01    7.90
   1   2 -11   39.69    7.26
   2  -1 -11   28.92    7.04
  -1  -2  11   27.80    8.88
  -1  -2  11   27.26    8.48
  -2   1  11   28.31    8.17
   2  -2 -11   -0.42    1.18
   2   2 -11   -0.35    1.48
   2  -2 -11   -0.90    1.72
   2   2 -11    0.75    1.82
  -2  -2  11   -0.40    2.04
  -2  -2  11   -0.06    2.19
  -2   2  11    0.28    2.45
  -2  -2  11    1.75    1.44
   3   2 -11    7.71    2.80
   3   2 -11    4.20    2.41
   2  -3 -11    4.66    1.88
   2  -3 -11    7.81    2.29
  -2   3  11    6.89    3.22
  -3  -2  11    6.77    3.20
  -3  -2  11    5.12    2.03
   3   1 -11    0.03    1.28
   3   1 -11   -0.76    1.67
   1  -3 -11   -0.81    1.89
   3   1 -11   -0.21    1.12
  -3  -1  11   -0.57    1.98
  -1   3  11    0.81    3.05
  -3  -1  11    0.09    0.92
   3   0 -11   14.36    2.53
   3   0 -11   11.90    2.66
   0  -3 -11    7.35    3.14
   0   3 -11    4.60    2.79
  -3   0  11    9.87    3.20
   0   3  11    6.50    4.24
   0  -3  11    7.58    3.04
   3  -1 -11    0.38    1.22
   1   3 -11    0.54    0.97
   3  -1 -11    1.30    1.67
   1   3 -11    0.25    2.11
   1   3 -11    0.10    1.93
  -1  -3  11   -1.12    2.74
  -1  -3  11   -0.43    2.32
  -3   1  11   -0.24    2.12
   3  -2 -11    7.24    2.48
   2   3 -11   10.10    1.99
   2   3 -11    6.84    2.42
   3  -2 -11    7.60    2.08
   2   3 -11    8.69    2.84
  -2  -3  11    7.82    3.26
  -2  -3  11    7.67    3.03
  -3   2  11    3.97    2.92
  -2  -3  11    4.74    2.34
   3   3 -11   -0.96    1.53
   3   3 -11    0.29    2.65
   3   3 -11   -1.65    2.06
   3  -3 -11   -0.09    1.86
   3  -3 -11   -0.29    0.62
  -3  -3  11   -3.72    1.71
  -3   3  11    1.50    2.63
  -3  -3  11   -6.62    3.32
  -3   3  11   -0.21    0.81
  -3  -3  11   -2.48    2.14
  -3  -3  11   -0.06    1.11
   3  -4 -11    0.81    1.47
   3  -4 -11    1.46    1.26
   4   3 -11    9.28    3.44
   3  -4 -11    0.68    2.42
   4   3 -11    5.02    2.44
   3  -4 -11    3.73    2.09
  -4  -3  11    6.87    3.94
  -3   4  11    0.23    2.16
  -3   4  11    1.77    2.89
  -4  -3  11    0.11    1.86
  -3   4  11    1.89    1.68
   2  -4 -11   35.37   10.28
   4   2 -11   48.82   13.31
   2  -4 -11   41.82    9.98
   2  -4 -11   41.99    9.42
   4   2 -11   45.60   10.98
  -4  -2  11   46.10   10.95
  -4  -2  11   48.86   10.16
  -2   4  11   44.19   11.78
   1  -4 -11    1.18    2.08
   4   1 -11    1.07    1.63
   4   1 -11    0.99    1.47
   4   1 -11    0.81    1.31
   1  -4 -11    0.97    1.23
  -4  -1  11   -0.74    2.10
  -1   4  11    1.74    3.27
  -4  -1  11    0.60    1.65
  -4  -1  11   -0.21    1.04
   0  -4 -11   -0.94    1.47
   4   0 -11    0.64    1.44
   0   4 -11   -0.08    1.34
   4   0 -11    0.68    1.59
   0  -4 -11    0.89    2.11
  -4   0  11   -0.52    1.65
   0   4  11    0.23    3.40
  -4   0  11   -0.23    2.12
   4  -1 -11    2.08    1.67
   1   4 -11    0.79    0.96
   4  -1 -11    1.34    1.46
  -4   1  11    1.18    1.78
  -1  -4  11    1.42    1.95
  -4   1  11    0.06    2.22
   4  -2 -11   41.75   10.20
   2   4 -11   38.29   10.58
   4  -2 -11   39.23   10.09
   2   4 -11   52.22   11.18
  -2  -4  11   53.95   12.40
  -4   2  11   37.41   10.35
  -2  -4  11   45.68   10.26
   3   4 -11    0.57    1.33
   3   4 -11    3.19    2.58
   4  -3 -11    1.72    1.97
   3   4 -11   10.07    2.94
   3   4 -11    0.63    1.60
  -4   3  11    3.28    2.68
  -3  -4  11    3.63    2.15
  -3  -4  11    1.23    2.20
  -3  -4  11    2.13    1.48
   4  -4 -11   12.16    3.69
   5   4 -11   -0.13    2.01
   4  -5 -11    2.16    1.89
   4  -5 -11    0.60    1.60
   4  -5 -11   -0.10    2.33
   4  -5 -11   -0.23    2.89
  -4   5  11    3.33    2.35
  -5  -4  11   -0.09    1.92
  -4   5  11    1.42    3.15
  -4   5  11    0.25    2.09
  -4   5  11    1.60    2.75
   3  -5 -11   37.30    7.83
   5   3 -11   29.17    8.22
   3  -5 -11   34.93    7.16
   3  -5 -11   29.82    7.52
   5   3 -11   52.91    7.93
   3  -5 -11   30.57   11.19
  -5  -3  11   15.00    8.25
  -3   5  11   35.58    8.72
  -3   5  11   27.90    8.37
  -5  -3  11   41.66    8.14
  -3   5  11   35.00    9.54
   5   2 -11    2.52    2.16
   2  -5 -11    0.62    1.77
   2  -5 -11    1.72    2.26
   2  -5 -11    0.94    1.49
   5   2 -11    0.95    2.07
  -5  -2  11   -0.59    2.17
  -2   5  11    0.99    3.53
  -5  -2  11   -2.38    2.15
   1  -5 -11    9.14    2.72
   5   1 -11    8.47    3.15
   1  -5 -11   10.02    3.75
   1  -5 -11   12.21    3.44
   5   1 -11    8.58    3.21
  -5  -1  11   12.07    3.14
  -1   5  11   13.69    4.65
   1  -5  11   10.46    3.69
  -5  -1  11   11.26    3.34
   0  -5 -11    0.54    2.42
   0   5 -11    1.99    1.38
   0  -5 -11    0.10    1.49
   0   5 -11   -0.13    3.46
   5   0 -11    0.09    1.90
   5   0 -11    1.19    1.81
   0   5  11   -1.50    3.97
  -5   0  11    1.60    1.15
   0  -5  11    0.55    2.88
   0  -5  11   -0.24    2.51
  -5   0  11    1.24    1.95
   1   5 -11   10.18    2.97
   1   5 -11   13.21    4.24
   5  -1 -11    9.73    3.32
   5  -1 -11   10.74    3.25
  -5   1  11   15.08    3.44
  -1  -5  11   13.11    3.49
  -1  -5  11   15.12    4.50
   5  -2 -11    2.23    1.91
   5  -2 -11    0.37    2.11
   2   5 -11    4.14    2.76
   2   5 -11    1.86    1.14
   2   5 -11   -4.28    2.64
  -2  -5  11  -13.41    5.13
  -2  -5  11  -10.13    3.61
  -5   2  11    1.67    2.29
   3   5 -11   40.70    8.60
   3   5 -11   24.70    9.17
   5  -3 -11   39.36    7.59
   3   5 -11   30.21    7.87
   3   5 -11   36.46    8.19
  -3  -5  11   29.77    8.19
  -5   3  11   39.67    7.85
   5  -4 -11    0.67    2.07
   4   5 -11   13.56    3.49
   4   5 -11    1.16    1.61
   4   5 -11   -1.68    4.07
   5  -4 -11    1.25    2.27
   4   5 -11    0.19    1.67
  -4  -5  11    0.36    1.69
  -5   4  11    2.83    2.51
  -4  -5  11    3.37    4.62
  -4  -5  11    1.23    2.05
   5  -5 -11    0.71    2.26
   5   5 -11   -6.59    4.62
   5  -5 -11   -0.99    2.37
  -5  -5  11   -1.74    3.00
  -5  -5  11   -0.85    5.30
  -5   5  11   -0.13    2.62
  -5   5  11    0.51    3.12
   6   5 -11   34.99    5.36
   5  -6 -11   15.73    4.84
   5  -6 -11   14.56    4.95
  -5   6  11   19.84    5.15
  -6  -5  11   13.85    5.71
  -5   6  11   12.42    5.84
   4  -6 -11  122.05   25.19
   4  -6 -11  115.32   31.14
   6   4 -11  126.54   28.31
   4  -6 -11  113.57   24.43
   4  -6 -11  107.61   28.06
  -4   6  11  116.71   29.36
  -4   6  11  104.80   25.25
  -4   6  11  108.32   27.66
  -4   6  11  102.90   27.83
   6   3 -11    0.48    2.24
   3  -6 -11    2.16    1.73
   3  -6 -11    0.51    1.80
   3  -6 -11    0.54    2.26
   3  -6 -11    1.20    3.92
   6   3 -11    0.65    2.23
  -3   6  11    1.59    3.54
  -6  -3  11    0.47    2.08
  -3   6  11    2.03    2.63
  -3   6  11    0.82    3.46
  -6  -3  11    1.47    2.74
   2  -6 -11  164.71   39.35
   2  -6 -11  172.94   36.39
   2  -6 -11  189.03   38.61
   2  -6 -11  190.09   57.88
   6   2 -11  164.50   42.04
  -6  -2  11  185.84   42.25
  -2   6  11  174.74   49.39
  -2   6  11  169.07   45.65
   1  -6 -11   18.55    4.96
  -1   6 -11    7.09    6.16
   6   1 -11   19.11    4.55
   6   1 -11   15.73    4.81
   1  -6 -11   12.83    3.84
   1  -6 -11   17.41    4.53
  -6  -1  11   18.13    4.62
  -1   6  11   17.30    6.01
   1  -6  11   17.10    5.30
   0   6 -11   -2.72    3.87
   0   6 -11   -0.57    1.37
   6   0 -11   -0.64    2.53
   6   0 -11   -1.62    2.19
   0  -6 -11   -0.19    1.60
   0  -6 -11   -0.14    2.65
  -6   0  11   -1.09    2.38
   0  -6  11   -1.74    3.03
   0  -6  11   -2.19    3.52
   0   6  11   -0.81    4.21
   6  -1 -11    9.75    4.76
   1   6 -11   20.81    5.47
   6  -1 -11   16.67    4.56
   1   6 -11   17.63    4.30
  -1  -6  11   16.56    4.52
  -6   1  11   24.05    4.75
  -1  -6  11   14.88    5.99
   6  -2 -11  174.78   40.25
   2   6 -11  174.87   42.89
   6  -2 -11  184.22   39.00
   2   6 -11  160.26   42.83
  -2  -6  11  160.84   42.07
  -2  -6  11  201.18   45.49
  -2  -6  11  154.17   50.16
  -2  -6  11  183.99   37.91
   3   6 -11   -0.09    3.50
   3   6 -11    2.59    4.60
   6  -3 -11    1.66    2.28
   3   6 -11    0.33    1.41
   3   6 -11    2.15    1.61
   6  -3 -11    2.30    2.43
  -3  -6  11   -0.56    4.80
  -6   3  11    0.26    2.49
  -3  -6  11    2.19    1.42
  -3  -6  11    1.77    2.61
   4   6 -11   97.58   26.44
   4   6 -11  116.02   29.85
   6  -4 -11  101.32   24.65
   4   6 -11   80.76   27.68
   4   6 -11  116.12   27.70
  -4  -6  11  138.17   29.73
  -4  -6  11  125.88   25.59
   6  -5 -11   13.25    4.72
   6  -5 -11   21.17    4.82
   5   6 -11   13.79    7.21
   5   6 -11   19.41    4.73
  -5  -6  11   16.77    7.36
  -5  -6  11   10.41    5.47
  -6   5  11   10.74    4.90
   6  -6 -11    1.77    2.72
   6  -6 -11    0.50    2.81
   6   6 -11   -1.74    5.38
  -6  -6  11   -2.45    3.98
  -6   6  11    1.82    2.99
   6  -7 -11    0.13    3.25
   6  -7 -11   -3.53    3.03
  -6   7  11    0.81    3.30
  -7  -6  11   -0.15    4.03
   5  -7 -11   -0.63    2.98
   7   5 -11   -0.74    2.56
   5  -7 -11   -1.10    2.66
  -7  -5  11    1.63    3.78
  -5   7  11   -0.15    3.10
  -5   7  11    0.70    3.82
   4  -7 -11    7.10    3.34
   7   4 -11    8.81    3.48
   4  -7 -11    9.60    3.12
  -4   7  11    9.89    3.52
  -7  -4  11    2.56    3.97
  -4   7  11   12.50    4.39
   3  -7 -11   32.73    7.75
   3  -7 -11   32.68    7.21
   7   3 -11   25.29    8.56
  -3   7  11   27.60    9.33
   7   2 -11    9.34    4.07
   2  -7 -11   14.42    3.25
   2  -7 -11   10.13    3.85
  -2   7  11   16.13    5.37
   1  -7 -11   24.79    5.01
   7   1 -11   18.64    4.79
   1  -7 -11   14.85    4.63
  -1   7 -11   15.28    6.59
   1  -7 -11   13.68    3.85
   7   1 -11   17.55    4.63
   1  -7  11   24.37    5.09
  -7  -1  11    8.72    4.70
  -1   7  11   12.71    6.41
   1  -7  11   13.90    5.50
   7   0 -11   55.77   14.63
   0  -7 -11   48.53   14.80
   0  -7 -11   67.47   13.02
   0   7 -11   46.87   16.95
   7   0 -11   61.77   15.11
   0  -7 -11   66.26   16.44
  -7   0  11   56.54   14.93
   0  -7  11   62.39   13.96
   0   7  11   53.53   18.38
   0  -7  11   75.40   16.14
   1   7 -11   19.35    5.37
   7  -1 -11   13.37    4.82
   7  -1 -11   15.36    4.49
  -1  -7 -11   11.48    3.87
  -7   1  11   12.84    4.55
  -1  -7  11   20.30    6.34
  -1  -7  11   15.57    4.34
   7  -2 -11   16.40    4.10
   2   7 -11    8.43    4.78
   7  -2 -11    8.36    3.77
  -2  -7  11    9.43    3.84
  -2  -7  11   19.62    6.07
  -7   2  11   10.50    3.98
   3   7 -11   34.57    9.43
   3   7 -11   32.75    9.96
   7  -3 -11   29.99    8.39
   7  -3 -11   25.60    7.92
  -7   3  11   32.27    8.09
  -3  -7  11   36.83    7.94
  -3  -7  11   36.69   10.21
   4   7 -11    6.57    5.64
   7  -4 -11    7.71    3.52
   4   7 -11   10.66    5.48
  -4  -7  11    8.12    3.99
  -4  -7  11   10.14    5.95
   7  -5 -11    2.11    3.14
   7  -5 -11   -1.08    2.92
   5   7 -11    2.37    5.67
  -5  -7  11    3.57    5.84
  -5  -7  11    0.14    3.94
  -7   5  11    1.29    3.34
   7  -6 -11   -2.24    3.31
   7  -6 -11    0.44    3.31
   6   7 -11   -0.92    5.83
  -6  -7  11   -2.31    6.60
  -6  -7  11   -0.31    4.30
  -7   6  11   -2.37    3.35
   7  -7 -11   -0.23    3.69
   7  -7 -11    1.02    3.68
  -7   7  11   -3.02    3.69
  -7  -7  11   -0.33    4.38
   7  -8 -11    8.38    4.34
   7  -8 -11    3.19    3.73
  -8  -7  11    3.88    4.93
  -7   8  11    4.69    3.98
   6  -8 -11    0.20    3.37
   6  -8 -11    1.56    3.35
  -6   8  11   -1.88    3.79
  -8  -6  11    0.98    4.53
  -6   8  11   -0.98    4.41
   5  -8 -11   33.93    8.83
   5  -8 -11   38.23    9.17
  -5   8  11   38.57    9.29
  -5   8  11   32.97   10.43
   4  -8 -11    4.24    3.21
   4  -8 -11    4.33    2.72
  -4   8  11    4.49    4.49
  -4   8  11    7.65    3.41
   3  -8 -11   25.46    7.94
   3  -8 -11   30.23    7.47
   3  -8 -11   32.78    7.63
   3  -8 -11   28.09   10.83
  -3   8  11   27.48    8.74
  -3   8  11   41.34    9.79
  -3   8  11   22.71    9.76
   2  -8 -11   29.77    9.77
   8   2 -11   19.14    6.90
   2  -8 -11   27.55    5.92
   2  -8 -11   20.90    6.55
   2  -8 -11   22.12    6.43
  -2   8  11   24.68    7.73
  -2   8  11   21.08    8.79
  -2   8  11   27.83    8.49
   2  -8  11   29.78    7.42
   1  -8 -11   21.51    4.97
   8   1 -11   19.77    5.90
  -1   8 -11   20.00    7.81
   1  -8 -11   23.49    6.17
   1  -8 -11   20.19    8.94
   1  -8 -11   21.66    5.86
   1  -8  11   22.73    6.74
  -1   8  11   19.62    7.88
   1  -8  11   25.76    5.98
  -1   8  11   14.08    7.82
   0  -8 -11   -0.32    2.91
   0  -8 -11   -4.49    4.13
   8   0 -11   -1.10    2.82
   0  -8 -11    0.54    1.81
   0   8 -11    0.83    4.08
   0  -8  11   -1.37    4.89
   0  -8  11    3.92    3.07
   0   8  11    2.54    5.33
  -1  -8 -11   27.39    7.30
   8  -1 -11   18.19    5.68
   1   8 -11   17.60    6.45
  -1  -8 -11   18.77    4.87
  -8   1  11   21.78    5.84
  -1  -8  11   21.70    7.67
  -1  -8  11   13.42    5.33
   8  -2 -11   22.29    6.67
   2   8 -11   25.60    7.76
   8  -2 -11   15.45    6.88
  -2  -8  11   25.04    6.40
  -2  -8  11   42.57    9.32
  -8   2  11   26.59    6.87
   8  -3 -11   26.43    8.20
   8  -3 -11   31.58    8.64
   3   8 -11   33.53    9.91
   3   8 -11   41.16   10.83
  -3  -8  11   31.37    8.31
  -8   3  11   34.52    8.47
  -3  -8  11   38.86   10.84
   4   8 -11    1.12    5.68
   8  -4 -11    7.07    3.50
   4   8 -11    5.62    6.28
  -4  -8  11    4.41    6.46
  -4  -8  11    3.86    4.06
   5   8 -11   36.47   12.72
   8  -5 -11   37.54    9.24
   5   8 -11   24.70   11.46
   8  -5 -11   35.61    8.77
  -8   5  11   34.38    9.19
  -5  -8  11   38.01   11.80
  -5  -8  11   32.78    9.76
   8  -6 -11    2.20    3.61
   6   8 -11    4.68    6.84
   8  -6 -11    3.05    3.89
  -8   6  11    0.19    3.86
  -6  -8  11    3.07    4.80
  -6  -8  11   -0.81    7.21
   8  -7 -11    5.81    4.49
   8  -7 -11    6.81    3.96
  -7  -8  11    5.62    5.10
  -8   7  11    6.05    4.35
   8  -8 -11    4.54    4.14
   8  -8 -11    3.58    4.45
  -8  -8  11    0.97    5.09
  -8   8  11    0.42    4.37
   8  -9 -11    7.00    4.42
   8  -9 -11    5.48    4.89
  -8   9  11   10.76    4.73
   7  -9 -11   14.33    4.81
   7  -9 -11   18.59    4.59
  -7   9  11    2.18    4.71
   6  -9 -11   -0.65    3.60
   6  -9 -11   -3.17    3.77
  -6   9  11   -0.82    4.75
  -6   9  11   -1.82    3.81
   5  -9 -11   22.57    5.76
   5  -9 -11   17.03    6.08
  -5   9  11   25.68    6.19
  -5   9  11   18.75    7.17
   4  -9 -11   34.62    8.87
   4  -9 -11   38.88    9.37
  -4   9  11   32.46   11.09
  -4   9  11   38.26    9.61
   3  -9 -11    3.38    5.25
   3  -9 -11    0.83    2.83
   3  -9 -11    0.93    2.33
   3  -9 -11   -0.40    3.02
  -3   9  11   -0.29    3.10
  -3   9  11   -0.76    5.14
  -3   9  11   -2.17    4.86
  -3   9  11   -2.31    4.09
  -2   9 -11    9.51    8.23
   2  -9 -11   21.23    5.05
   2  -9 -11   17.23    5.52
   2  -9 -11   18.53    5.71
   2  -9 -11   24.19    8.71
   2  -9  11   19.94    6.36
  -2   9  11   19.00    7.83
   2  -9  11   20.86    6.73
  -2   9  11   16.18    7.94
  -2   9  11   22.07    7.03
   1  -9 -11    5.77    3.94
   1  -9 -11    3.71    3.38
   1  -9 -11    4.48    2.18
   1  -9 -11    3.49    6.17
  -1   9 -11    3.84    5.21
   1  -9  11    8.90    5.15
  -1   9  11    2.41    5.76
   1  -9  11    0.70    3.75
  -1   9  11    3.73    5.61
   0  -9 -11    2.35    4.64
   0  -9 -11    2.23    3.49
   0   9 -11    1.50    4.77
   0  -9 -11    4.66    2.22
   0   9  11    5.15    5.87
   0  -9  11    0.60    3.37
   0  -9  11   -1.47    5.74
  -1  -9 -11    3.59    2.28
   1   9 -11    4.98    4.51
  -1  -9 -11   -1.50    5.21
  -1  -9  11    8.58    6.49
  -1  -9  11    0.14    3.41
   2   9 -11   25.04    7.47
  -2  -9  11   17.33    5.89
  -2  -9  11   27.01    9.12
   3   9 -11   -2.64    6.73
   3   9 -11   -0.15    5.63
  -3  -9  11    0.87    6.87
  -3  -9  11    1.31    3.92
   4   9 -11   41.78   12.37
   4   9 -11   30.48   12.03
  -4  -9  11   34.88    9.86
  -4  -9  11   41.02   12.41
   9  -5 -11   19.85    5.89
   5   9 -11   22.07    9.40
   5   9 -11   12.72    9.03
  -5  -9  11   19.66    6.79
  -9   5  11    8.95    6.09
  -5  -9  11   30.51    9.45
   9  -6 -11    0.70    3.73
   6   9 -11   -2.94    7.11
  -6  -9  11    0.37    4.94
  -9   6  11   -0.22    4.10
  -6  -9  11    3.70    7.69
   7   9 -11    9.01    7.94
   9  -7 -11    0.18    4.15
  -9   7  11    0.23    4.37
  -7  -9  11    5.16    5.58
   9  -8 -11    0.19    4.25
  -8  -9  11    2.06    5.50
   9 -10 -11   -0.20    3.72
  -9  10  11  -10.13    5.71
   7 -10 -11    7.46    4.10
   7 -10 -11   -0.54    4.31
  -7  10  11    2.22    5.50
  -7  10  11    2.76    4.37
   6 -10 -11   -2.73    3.79
   6 -10 -11   -0.68    3.80
  -6  10  11    1.54    4.26
  -6  10  11    4.31    5.38
   5 -10 -11   13.60    4.16
   5 -10 -11    3.64    3.59
  -5  10  11    8.77    4.28
  -5  10  11    2.00    5.65
   4 -10 -11    3.33    3.65
   4 -10 -11    1.79    2.95
  -4  10  11   10.06    3.73
  -4  10  11   -1.77    5.42
   3 -10 -11    8.62    3.39
   3 -10 -11   11.68    3.93
  -3  10  11    4.04    5.92
  -3  10  11    6.51    6.52
  -3  10  11    8.31    5.16
  -3  10  11   14.22    4.20
  -2  10 -11   27.10    7.76
   2 -10 -11    1.16    3.22
   2 -10 -11    3.10    4.14
   2 -10 -11    3.94    4.18
   2 -10 -11   10.28    7.48
  -2  10  11    4.09    6.00
  -2  10  11    1.57    6.69
   2 -10  11   21.07    5.62
  -2  10  11    6.32    7.06
   1 -10 -11    5.16    4.21
   1 -10 -11   -0.66    3.62
  -1  10 -11  -14.91    6.55
   1 -10 -11   -0.60    6.86
   1 -10 -11    0.60    2.35
  -1  10  11    1.11    6.37
  -1  10  11   -5.02    6.36
   1 -10  11  -15.49    4.86
   0 -10 -11   -1.65    3.83
   0 -10 -11    3.46    5.09
   0 -10 -11   -0.48    2.24
   0  10  11    7.39    6.08
   0  10  11   -0.37    6.60
  -1 -10 -11    0.90    2.46
   1  10 -11  -14.17    6.11
  -1 -10 -11   -5.28    5.80
   2  10 -11   42.94    8.91
   2  10 -11   25.18   11.32
   3  10 -11    8.82    8.95
   3  10 -11   -2.03    6.93
  -3 -10  11    1.51    4.79
   4  10 -11    8.24    7.42
   4  10 -11    9.92    8.37
  -4 -10  11   -5.03    8.06
  -4 -10  11   -0.71    4.72
   5  10 -11    4.79    8.41
   5  10 -11   10.17    8.64
  -5 -10  11    9.48    8.18
  -5 -10  11    4.97    5.34
   6  10 -11    3.52    8.24
   6  10 -11    2.15    8.63
  -6 -10  11    0.20    5.59
  -6 -10  11    4.71    8.65
   7  10 -11    4.49    8.08
  -7 -10  11   10.64    6.07
  -8 -10  11   -1.55    5.91
  10 -11 -11    5.86    5.58
   9 -11 -11    1.02    4.82
  -9  11  11   -1.41    5.41
  -8  11  11    0.25    5.00
   7 -11 -11   11.42    4.39
   7 -11 -11   -0.28    3.54
  -7  11  11   -3.54    5.97
   6 -11 -11    0.49    4.34
   6 -11 -11    4.09    4.17
  -6  11  11    3.40    5.77
  -6  11  11   -2.67    4.41
   5 -11 -11    2.63    3.59
   5 -11 -11    0.48    3.76
  -5  11  11    0.94    5.74
  -5  11  11    2.30    4.20
   4 -11 -11    8.14    4.08
   4 -11 -11    7.33    4.42
  -4  11  11   12.81    4.95
  -4  11  11   17.82    6.65
  -3  11 -11    5.73    7.08
   3 -11 -11    3.08    3.57
   3 -11 -11    5.58    3.10
   3 -11  11    4.50    5.72
  -3  11  11    0.14    5.95
  -3  11  11    2.15    3.95
   2 -11 -11   -4.37    3.97
   2 -11 -11   -0.14    2.72
   2 -11 -11    2.26    7.01
   2 -11 -11    1.13    3.51
  -2  11 -11    3.18    6.99
  -2  11  11    4.81    6.98
   2 -11  11    0.16    6.20
  -2  11  11    1.42    5.81
   2 -11  11  -11.80    5.09
  -2  11  11    2.36    6.38
  -1  11 -11   -0.20    6.36
   1 -11 -11    2.94    4.60
   1 -11 -11    5.13    7.52
   1 -11 -11    3.52    3.79
   1 -11 -11    3.14    2.61
  -1  11  11   -1.93    7.02
   1 -11  11    0.98    4.53
  -1  11  11    2.52    7.17
  -1  11  11   -5.15    6.83
   1 -11  11   -0.18    6.74
   0 -11 -11   24.74   10.21
   0 -11 -11   29.68    7.90
   0  11 -11   50.90   10.62
   0 -11  11   30.30    8.52
   0 -11  11   39.56   12.02
   0  11  11   23.27   12.83
   0  11  11   42.30   11.76
   1  11 -11    5.16    6.16
  -1 -11 -11    0.50    6.52
  -1 -11 -11   -0.40    2.61
  -1 -11  11   19.75    9.00
  -1 -11  11    5.65    4.41
   2  11 -11   -0.35    6.78
   2  11 -11    6.89    9.84
  -2 -11  11   -0.18    4.67
  -2 -11  11   -1.77    9.50
   3  11 -11    7.13    7.39
   3  11 -11   18.78   10.00
  -3 -11  11    2.25    9.12
  -3 -11  11   -2.45    4.94
   4  11 -11   14.89    8.64
   4  11 -11   12.75    9.94
  -4 -11  11    6.12    9.79
  -4 -11  11   14.79    6.07
   5  11 -11   12.05    9.16
   5  11 -11   12.39    9.43
  -5 -11  11   -1.26    5.66
  -5 -11  11    8.86    8.86
   6  11 -11    3.08    9.88
   6  11 -11    5.17    9.27
  -6 -11  11   11.57    5.90
  -6 -11  11   -3.32    9.17
   7  11 -11    8.68    9.00
  -7 -11  11  -11.03    6.62
  10 -12 -11    0.23    5.49
   9 -12 -11  -10.93    5.49
  -9  12  11   -7.28    7.28
   8 -12 -11    0.60    4.91
   8 -12 -11   -0.33    5.21
  -8  12  11   -6.92    5.53
   6 -12 -11    4.16    4.58
   6 -12 -11   -5.32    4.66
  -6  12  11   19.51    4.51
  -6  12  11   -7.39    6.84
   5 -12 -11    0.45    4.04
   5 -12 -11    8.54    4.12
  -5  12  11    2.14    6.38
  -5  12  11    0.61    4.33
   4 -12 -11    0.96    3.82
   4 -12 -11   -1.55    3.46
  -4  12  11   -0.88    6.14
  -4  12  11    1.33    4.46
   3 -12 -11    1.51    3.16
   3 -12 -11    3.94    3.80
   3 -12  11    1.63    6.50
  -3  12  11    3.68    6.41
  -3  12  11    0.18    3.96
   2 -12 -11   -0.90    2.79
   2 -12 -11   -2.45    4.33
   2 -12 -11    1.75    3.88
  -2  12  11   12.53    6.76
  -2  12  11   -0.72    7.46
  -2  12  11    0.85    6.66
   1 -12 -11    7.10    5.14
   1 -12 -11    5.06    2.99
   1 -12 -11   10.13    8.35
   1 -12 -11    4.65    4.15
   1 -12  11   -0.21    5.03
  -1  12  11   -2.07    8.00
  -1  12  11    6.18    7.50
  -1  12  11    6.32    7.67
   0 -12 -11    0.81    2.48
   0 -12 -11    3.79    8.43
   0 -12 -11   -2.30    6.19
   0  12 -11   -4.33    6.85
   0 -12  11    5.31    4.80
   0  12  11   -0.29    7.86
  -1 -12 -11    6.04    6.97
   1  12 -11   17.50    7.11
  -1 -12  11    4.21    4.90
   2  12 -11   -0.33    9.96
   2  12 -11    3.98    7.63
  -2 -12  11   -2.40    5.04
   3  12 -11    4.19    8.78
  -3 -12  11   -2.32    5.51
   4  12 -11  -13.12    9.61
  -4 -12  11    4.84    5.85
   7  12 -11   -5.68   10.35
  -7 -12  11    0.30   10.12
  -8 -12  11   11.42    7.34
  10 -13 -11    0.72    5.97
   9 -13 -11    4.19    6.47
  -9  13  11   21.91    8.43
   8 -13 -11    0.83    5.09
   8 -13 -11   -5.67    5.51
  -8  13  11   -7.05    5.81
  -8  13  11    4.41    7.10
   7 -13 -11    4.12    5.15
  -7  13  11   -3.31    4.80
  -5  13  11    5.33    4.69
  -5  13  11    1.22    6.68
  -3  13 -11   11.90   11.00
   3 -13  11    0.29    7.54
   3 -13  11   18.05    9.39
  -2  13 -11   -6.55    8.99
   2 -13  11   -0.26    5.81
   2 -13  11   -2.14    8.30
  -2  13  11   -2.01    7.97
  -2  13  11    1.33    8.72
  -1  13 -11    5.87    7.72
   1 -13 -11    2.54    5.56
   1 -13 -11  -19.58    9.22
  -1  13  11   -7.55    9.04
   1 -13  11   -0.23    5.28
  -1  13  11    4.01    8.52
   1 -13  11   -2.32    9.08
   0 -13 -11   -3.23    8.96
   0 -13 -11    0.50    6.76
   0 -13  11   13.53    5.20
   0 -13  11   -7.53   10.52
   0  13  11   -1.88    8.49
   0  13  11    8.25   10.40
   1  13 -11  -17.35   12.55
  -1 -13 -11    1.43    7.44
  -1 -13  11   24.64    5.27
  -1 -13  11  -22.33   11.33
   2  13 -11   35.54    9.79
  -2 -13 -11  -13.18    8.51
   2  13 -11  -18.69   13.11
  -2 -13  11   33.02    6.45
   3  13 -11   91.24   16.12
   3  13 -11   26.98   15.88
  -3 -13  11   41.60   10.55
  -3 -13  11    9.65   19.71
   4  13 -11   25.45   12.66
   4  13 -11   11.50   11.50
  -4 -13  11    5.91    7.00
  -4 -13  11   -4.59   12.06
   5  13 -11   -0.27   11.12
   5  13 -11   -1.18   12.23
  -5 -13  11    4.84    6.59
  -5 -13  11    0.30   11.07
   6  13 -11    4.28   11.64
   6  13 -11    2.41   11.19
  -6 -13  11   15.73   11.31
  -6 -13  11  -17.34    6.81
   7  13 -11   -3.33   11.30
   7  13 -11   15.51   12.38
  -7 -13  11   -4.49   10.54
  -7 -13  11    2.17    7.14
  -8 -13  11  -12.80    7.60
  -3  14 -11    1.67    9.60
   3 -14  11   -1.83    8.95
   3 -14  11    0.31    6.37
  -2  14 -11    1.25    9.34
   2 -14  11    0.24    9.94
   2 -14  11   -0.28    6.17
   1 -14 -11   -7.22    6.21
  -1  14 -11    0.27    8.59
   1 -14  11   -6.58   10.67
  -1  14  11  -10.29   10.15
   1 -14  11    1.77    5.79
   0  14 -11    2.47    8.35
   0 -14  11    5.65   11.52
   0 -14  11    0.24    6.06
   1  14 -11   -8.71   13.66
   1  14 -11    4.07    8.81
  -1 -14  11    0.24    5.99
  -1 -14  11   -8.72   12.52
   2  14 -11   -7.81   14.07
   2  14 -11   -3.29   10.31
  -2 -14  11   29.26   13.59
  -2 -14  11   -3.24    6.41
   3  14 -11   12.16   13.93
   3  14 -11    3.03   11.63
  -3 -14  11    7.26   13.18
  -3 -14  11    0.78    6.74
   4  14 -11    3.88   13.55
   4  14 -11    4.67   12.09
  -4 -14  11    0.64   12.25
  -4 -14  11  -19.51    7.25
   5  14 -11   -5.78   13.60
   5  14 -11   11.77   11.98
  -5 -14  11  -17.78   12.40
  -5 -14  11    5.00    7.41
   6  14 -11   12.58   13.15
   6  14 -11   12.17   12.63
  -6 -14  11   -8.04    7.35
  -6 -14  11    0.34   12.23
   7  14 -11  -29.97   12.83
   7  14 -11   -0.32   13.07
  -7 -14  11  -12.26   12.00
  -7 -14  11    8.50    7.50
   8  14 -11   22.50   13.47
  -8 -14  11   -3.87    7.91
  -3  15 -11    0.36   10.44
   3 -15  11    9.36    6.99
   3 -15  11    4.71   10.47
  -2  15 -11    1.63   10.04
   2 -15  11    0.30    6.70
   2 -15  11   19.33   11.23
  -1  15 -11   -8.47    9.94
   1 -15  11   -9.52    6.38
  -1  15  11    1.36    9.78
   1 -15  11    3.55   12.06
   0 -15 -11   -0.92   10.37
   0  15 -11   11.29   14.63
   0 -15 -11  -10.59    7.85
   0  15 -11    6.94    9.51
   0 -15  11   15.88   12.81
   0  15  11    4.10   12.02
   0  15  11    0.73   10.19
   0 -15  11    6.12    6.49
   1  15 -11   -9.29   15.23
   1  15 -11    7.56    9.70
  -1 -15 -11    4.96    8.70
  -1 -15  11   40.72   13.78
  -1 -15  11    2.17    6.64
   1  15  11   -8.02   13.56
   2  15 -11    4.13   14.93
   2  15 -11   14.50   10.51
  -2 -15 -11    4.01    9.05
  -2 -15  11   -2.22    6.69
  -2 -15  11    7.96   13.90
   3  15 -11    1.41   15.36
   3  15 -11   -5.53   11.96
  -3 -15  11  -30.57   14.30
  -3 -15  11  -14.44    7.36
   4  15 -11   32.04   15.09
   4  15 -11   16.47   12.39
  -4 -15  11    4.65   13.63
  -4 -15  11  -21.07    7.68
   5  15 -11   18.05   16.20
   5  15 -11   24.56   17.72
  -5 -15  11   70.65   16.83
  -5 -15  11   19.33   10.75
   6  15 -11  -11.61   14.88
   6  15 -11  -13.61   13.69
  -6 -15  11   21.12   13.92
  -6 -15  11   13.02    8.05
   7  15 -11    1.54   14.06
   7  15 -11   -6.88   13.99
  -7 -15  11  -10.08    8.00
  -7 -15  11   10.77   13.14
   8  15 -11    0.35   13.46
  -8 -15  11    0.32    8.11
  -3  16 -11   19.21   11.99
   3 -16  11    0.36    7.63
   3 -16  11    3.57   11.54
  -2  16 -11   -9.53   11.56
   2 -16  11    0.31   12.28
   2 -16  11  -10.37    7.41
  -1  16 -11    8.81   10.70
   1 -16  11  -10.54    7.34
   1 -16  11   -4.98   13.69
   0  16 -11  -21.58   11.14
   0  16 -11  -20.84   16.85
   0 -16 -11    0.96    8.70
   0  16  11   13.85   13.49
   0 -16  11   -7.12    7.35
   0  16  11   -7.91   11.18
   0 -16  11  -25.85   14.99
   1  16 -11  -15.84   11.43
  -1 -16 -11    0.36    9.37
   1  16 -11   -8.32   16.78
   1  16  11   38.45   14.89
  -1 -16  11    0.30    7.08
  -1 -16  11  -28.06   14.87
   2  16 -11   -8.44   11.68
  -2 -16 -11    0.38    9.39
   2  16 -11  -17.33   16.84
  -2 -16  11    1.15   15.37
  -2 -16  11    5.86    7.53
   3  16 -11  -10.01   17.37
   3  16 -11    3.67   12.81
  -3 -16  11   23.37   15.37
  -3 -16  11    1.92    8.05
   4  16 -11   -8.62   13.72
   4  16 -11    9.97   17.50
  -4 -16  11   10.83    8.30
  -4 -16  11   -5.22   15.16
   5  16 -11   -6.61   14.62
   5  16 -11   -3.96   17.14
  -5 -16  11    7.01    8.49
  -5 -16  11    2.47   15.17
   6  16 -11  -13.63   16.72
   6  16 -11   12.19   14.93
  -6 -16  11   -7.71    8.33
  -6 -16  11   15.08   15.04
   7  16 -11   13.82   15.77
   7  16 -11   -8.61   16.34
  -7 -16  11   61.46   15.43
  -7 -16  11    0.34    9.14
   8  16 -11   -0.75   39.47
  -3  17 -11    1.77   13.01
   3 -17  11   10.09   13.10
  -2  17 -11  -15.71   13.14
   2 -17  11    0.37    8.02
   2 -17  11    0.35   13.90
  -1  17 -11  -17.50   12.20
  -1  17 -11   -2.42   16.60
   1 -17  11   -4.85   14.87
   1 -17  11    0.35    7.78
   0  17 -11   -1.03   17.42
   0  17 -11   -2.12   11.77
   0 -17  11  -12.51   15.80
   0 -17  11    0.34    7.94
   0  17  11   -3.87   11.70
   1  17 -11   -8.67   17.79
  -1 -17 -11   -3.45    9.94
   1  17 -11   20.28   11.98
   1  17  11   -1.52   15.78
  -1 -17  11   -0.41   16.04
  -1 -17  11    7.36    7.79
   2  17 -11  -14.33   12.16
  -2 -17 -11   22.25   10.59
   2  17 -11    2.84   18.59
  -2 -17  11    1.70    8.11
   2  17  11   11.92   16.37
  -2 -17  11    2.53   16.24
   3  17 -11  -11.84   13.38
   3  17 -11   46.53   19.75
  -3 -17  11    8.25   17.14
  -3 -17  11    7.00    8.82
   4  17 -11   -7.04   14.81
   4  17 -11  -47.21   20.24
  -4 -17  11  -14.24   16.79
  -4 -17  11    6.10    9.28
   5  17 -11    2.54   19.38
   5  17 -11  -10.02   15.84
  -5 -17  11   -8.67   17.30
   6  17 -11    8.94   23.67
   7  17 -11   -8.39   17.41
   7  17 -11    5.26   16.50
  -7 -17  11  -31.85   16.33
  -7 -17  11   -0.37    9.67
   8  17 -11   -7.31   16.35
  -8 -17  11   -8.57    9.76
  -3  18 -11    2.95   14.64
   3 -18  11   -8.82    9.75
   3 -18  11  -32.87   15.95
  -1  18 -11   27.45   16.60
  -1  18 -11   61.11   19.91
   1 -18  11    0.42   18.62
   0  18 -11  117.65   31.82
   0  18 -11   46.59   28.20
   0 -18  11   38.72   20.48
   1  18 -11   15.35   15.36
  -1 -18 -11   30.30   11.55
   1  18 -11   25.78   21.50
  -1 -18  11    3.60   20.39
  -1 -18  11  -24.38   10.76
   1  18  11    7.05   17.53
  -2 -18 -11   -7.55   12.28
   2  18 -11    6.92   21.14
   2  18  11   -1.72   18.41
  -2 -18  11  -39.81   10.54
   3  18 -11  -12.43   15.20
   3  18 -11  -26.65   21.10
  -3 -18  11  -13.91   19.13
  -3 -18  11    8.46    9.62
   4  18 -11  -29.44   22.94
   4  18 -11   -5.58   16.06
  -4 -18  11   10.96   18.44
  -4 -18  11    7.06    9.82
   5  18 -11   14.56   17.37
   5  18 -11   26.34   21.58
  -5 -18  11    7.96   10.49
  -5 -18  11   12.65   19.54
   6  18 -11  -15.79   21.23
   6  18 -11   53.83   19.12
  -6 -18  11   16.31   10.74
  -6 -18  11   -0.51   18.98
   7  18 -11   32.24   17.62
   7  18 -11   -0.72   19.20
  -7 -18  11   -9.91   10.11
  -7 -18  11    9.35   17.43
   8  18 -11   -8.78   18.70
  -8 -18  11   30.84   11.36
  -3  19 -11   -3.30   16.45
   3 -19  11  -22.05   10.87
  -2  19 -11   13.42   17.60
  -2  19 -11  -39.48   20.58
   2 -19  11   14.26   10.08
  -1  19 -11   18.50   20.47
  -1  19 -11    4.85   15.66
   1 -19  11   -0.46   18.19
   1 -19  11    2.19    9.96
   0  19 -11   19.58   16.19
   0  19 -11   32.03   21.74
   0 -19  11    4.31   18.90
   0 -19  11   -7.88    9.84
   1  19 -11   -7.99   22.80
   1  19 -11    0.45   16.11
  -1 -19  11   18.83   19.71
  -1 -19  11   36.78   10.91
   2  19 -11   15.38   15.98
   2  19 -11   -6.98   23.41
  -2 -19  11    0.84   10.18
  -2 -19  11   45.04   20.56
   3  19 -11  -12.77   24.64
   3  19 -11    2.66   16.42
  -3 -19  11    5.07   10.06
  -3 -19  11  -12.87   20.30
   4  19 -11   11.50   17.39
  -4 -19  11    0.43   10.89
  -4 -19  11   43.39   20.67
   5  19 -11  -57.58   19.58
  -5 -19  11    7.75   11.26
   0  -1 -12    0.10    1.44
   0   1 -12   -1.00    1.48
   1   0 -12   -0.74    1.17
   1   0 -12   -0.95    1.95
   0  -1 -12   -0.13    2.23
  -1   0  12    1.26    3.00
   0   1  12   -0.11    3.19
   1   1 -12   45.16   10.39
   1  -1 -12   51.73    9.92
   1  -1 -12   51.31   10.72
  -1  -1  12   32.03   11.51
  -1   1  12   45.55   12.38
   2   1 -12   -0.08    1.49
   1  -2 -12    1.32    2.17
   1  -2 -12    0.08    1.33
   2   1 -12    0.59    1.10
  -2  -1  12    4.63    2.46
  -1   2  12    1.06    3.13
  -2  -1  12    1.03    1.67
   0  -2 -12   15.73    3.89
   2   0 -12   17.24    4.11
   0  -2 -12   14.13    4.47
   2   0 -12   18.66    3.80
  -2   0  12    9.55    4.91
  -2   0  12   17.37    4.69
   0   2  12    9.80    5.52
   2  -1 -12    0.36    1.28
   2  -1 -12    0.95    1.90
  -1  -2  12    1.79    1.81
  -2   1  12    0.15    2.68
   2  -2 -12    9.47    2.41
   2  -2 -12   10.59    2.88
  -2   2  12    7.88    3.69
  -2  -2  12    6.57    3.28
   2  -3 -12    1.74    2.01
   3   2 -12    0.28    2.30
   3   2 -12   -0.71    1.27
   3   2 -12   -0.87    1.82
   2  -3 -12   -0.14    1.15
  -3  -2  12    5.18    2.75
  -2   3  12    0.17    3.02
  -3  -2  12    3.58    1.51
   3   1 -12    2.73    1.66
   1  -3 -12    3.45    2.17
   3   1 -12    1.04    1.33
   3   1 -12    1.35    1.75
   3   1 -12   -0.92    1.38
  -1   3  12    1.52    3.39
  -3  -1  12    0.50    2.02
  -3  -1  12    2.18    2.38
   3   0 -12   -0.39    1.28
   3   0 -12   -1.02    1.68
   0  -3 -12    0.13    2.45
  -3   0  12    0.84    2.49
   0   3  12    1.46    3.64
   3  -1 -12    3.59    1.91
   1   3 -12    2.67    2.12
   3  -1 -12    3.81    1.43
  -1  -3  12   -0.83    2.97
  -1  -3  12    0.39    2.41
  -3   1  12    1.58    2.59
   3  -2 -12   -1.33    1.95
   2   3 -12    1.68    1.94
   3  -2 -12    1.54    1.46
   2   3 -12    3.57    2.45
  -2  -3  12    2.63    2.83
  -2  -3  12    5.24    1.79
  -2  -3  12    3.90    2.99
  -3   2  12   -0.66    2.64
   3   3 -12   20.78    5.85
   3  -3 -12   21.94    5.11
   3   3 -12   23.87    5.92
  -3  -3  12   11.58    6.49
  -3  -3  12   15.17    5.06
  -3   3  12   24.52    6.01
   3  -4 -12   28.72    7.51
   3  -4 -12   29.90    7.06
   3  -4 -12   30.12    8.09
  -3   4  12   36.89    8.72
   2  -4 -12   -0.43    1.41
   4   2 -12   -0.67    1.86
   4   2 -12   -3.01    3.21
   2  -4 -12   -0.63    1.57
   4   2 -12   -0.92    1.97
   4   2 -12    0.09    1.61
   2  -4 -12    1.54    2.22
  -4  -2  12   -8.24    4.13
  -4  -2  12   -4.79    1.57
  -2   4  12   -0.64    3.38
  -4  -2  12   -0.86    2.02
   1  -4 -12    1.15    1.41
   1  -4 -12    1.21    2.37
   4   1 -12    0.75    1.61
   4   1 -12   -0.31    1.22
   4   1 -12    0.23    1.77
  -4  -1  12   -0.03    0.96
  -4  -1  12    1.36    2.40
  -1   4  12    0.76    3.63
  -4  -1  12   -1.22    1.84
   4   0 -12    2.38    1.66
   0  -4 -12    0.84    2.47
   0  -4 -12    2.05    1.58
   0   4 -12    0.18    1.61
   4   0 -12    1.56    1.71
  -4   0  12    2.58    2.43
  -4   0  12    1.74    1.80
   0  -4  12    2.77    2.40
   0   4  12    2.68    4.01
   4  -1 -12    0.70    1.57
   1   4 -12   -0.06    1.08
   4  -1 -12    3.04    1.88
  -4   1  12    0.58    1.99
  -4   1  12    0.40    2.47
   2   4 -12   -6.78    2.86
   4  -2 -12   -1.25    1.68
   2   4 -12   -1.44    1.27
   4  -2 -12   -0.64    2.12
  -2  -4  12   -5.82    3.25
  -4   2  12   -4.13    3.18
  -4   2  12   -1.02    2.19
   4  -3 -12   31.21    7.07
   4  -3 -12   38.74    7.31
  -4   3  12   28.57    8.22
  -3  -4  12   -0.05   10.38
   4  -4 -12   29.83    7.42
   4  -4 -12   27.03    7.18
   4   4 -12   28.06    8.51
  -4   4  12   29.95    8.33
  -4  -4  12   30.37    7.31
   4  -5 -12   17.88    5.41
   5   4 -12   30.01    5.87
   4  -5 -12   19.30    5.76
   5   4 -12   21.10    6.21
  -5  -4  12   18.06    6.05
  -4   5  12   19.86    5.81
  -4   5  12   23.32    6.64
   3  -5 -12    6.12    2.50
   5   3 -12    3.92    2.16
   3  -5 -12    4.04    1.79
   3  -5 -12    3.54    1.94
   5   3 -12    4.98    2.40
  -3   5  12    4.24    3.48
  -3   5  12    3.61    3.03
  -5  -3  12    3.80    2.28
  -3   5  12    4.20    2.45
  -5  -3  12    3.06    2.28
   5   2 -12  105.58   23.32
   2  -5 -12   82.38   20.98
   5   2 -12  101.83   22.05
   2  -5 -12  101.00   19.70
   2  -5 -12   79.21   21.59
  -5  -2  12  104.82   23.04
  -2   5  12   89.02   24.71
   1  -5 -12    1.67    1.56
   5   1 -12    1.70    2.05
   1  -5 -12    0.51    2.81
   1  -5 -12   -0.88    2.98
   5   1 -12   -0.51    2.07
  -5  -1  12   -2.91    1.48
  -5  -1  12   -0.31    2.21
  -1   5  12    2.20    3.99
   0  -5 -12   -0.10    1.73
   0   5 -12    3.10    4.11
   5   0 -12   -0.24    2.10
   5   0 -12    2.06    2.17
   0   5 -12    1.55    1.62
   0  -5 -12   -2.19    2.76
   0   5  12    5.69    4.44
  -5   0  12    3.77    2.36
   1   5 -12    0.82    1.19
   5  -1 -12    1.64    1.97
   5  -1 -12    0.09    2.26
   1   5 -12  -10.58    4.14
  -5   1  12   -0.11    2.29
   2   5 -12  106.66   23.98
   2   5 -12   84.08   22.46
   2   5 -12   99.05   24.61
   5  -2 -12   91.72   21.45
   5  -2 -12   66.11   20.78
  -2  -5  12   83.61   26.86
  -2  -5  12   81.79   24.65
  -5   2  12   78.49   21.63
  -5   2  12   99.19   22.63
  -2  -5  12  110.63   20.73
   3   5 -12    1.77    1.68
   5  -3 -12    3.53    2.29
   3   5 -12    4.24    2.00
   3   5 -12    5.61    4.09
   5  -3 -12    1.24    2.28
  -5   3  12    3.55    3.03
  -5   3  12    5.21    2.58
  -3  -5  12    2.72    2.65
  -3  -5  12    2.56    1.81
  -3  -5  12    2.85    4.27
   4   5 -12   30.96    5.77
   4   5 -12   22.19    7.06
   5  -4 -12   15.02    5.70
   4   5 -12   18.74    6.85
  -5   4  12   17.94    6.44
  -4  -5  12   13.57    7.60
  -4  -5  12   29.18    5.75
  -4  -5  12   24.53    6.22
   5  -5 -12   20.36    5.05
   5  -5 -12   26.33    4.76
   5   5 -12   21.34    6.71
   5   5 -12   21.78    6.59
   5   5 -12   -0.13    5.11
  -5   5  12   18.12    5.64
  -5  -5  12   11.76    7.39
  -5  -5  12   29.31    5.26
  -5   5  12   19.22    5.07
   6   5 -12    4.94    2.51
   5  -6 -12    2.26    2.51
   5  -6 -12    2.86    3.09
  -5   6  12    6.59    3.32
  -6  -5  12    5.47    3.67
  -5   6  12    4.71    3.86
   4  -6 -12   25.07    7.69
   4  -6 -12   44.47    7.33
   6   4 -12   30.11    8.27
  -6  -4  12   27.45    8.23
  -4   6  12   35.80    7.75
  -4   6  12   24.51    8.77
   3  -6 -12   89.04   17.36
   3  -6 -12   67.09   18.25
   6   3 -12   76.01   20.43
   6   3 -12   69.94   20.06
  -6  -3  12   85.85   20.13
  -3   6  12   78.09   23.59
  -3   6  12   66.65   21.09
  -6  -3  12   84.17   20.55
  -3   6  12   94.83   20.33
   2  -6 -12   21.47    5.45
   2  -6 -12   28.65    4.98
   6   2 -12   26.52    6.06
   2  -6 -12   23.16    5.61
   6   2 -12   18.09    5.79
  -6  -2  12   14.01    6.01
  -2   6  12   20.29    7.08
  -6  -2  12   26.08    5.88
   6   1 -12   15.17    4.18
   1  -6 -12   14.58    4.10
   1  -6 -12   11.53    3.24
   6   1 -12   12.36    3.83
   1  -6 -12    8.36    4.31
  -1   6  12   13.36    5.66
  -6  -1  12   11.54    3.95
   1  -6  12   10.84    4.68
   0  -6 -12  147.56   29.31
   6   0 -12  162.68   32.18
   0   6 -12  114.62   39.66
   0  -6 -12  151.61   32.72
   0   6 -12  123.23   38.69
   6   0 -12  173.42   33.59
   0  -6  12  163.34   32.40
   0   6  12  115.85   38.90
  -6   0  12  157.22   33.09
   0  -6  12  145.56   35.09
   6  -1 -12   16.11    3.92
   6  -1 -12   12.29    4.20
   1   6 -12   15.05    3.57
   1   6 -12   18.03    4.97
  -1  -6  12   18.93    5.39
  -6   1  12   12.33    4.12
  -1  -6  12    7.66    4.08
   2   6 -12   21.52    6.30
   6  -2 -12   17.20    5.49
   2   6 -12   18.98    5.48
   6  -2 -12   27.80    5.80
  -2  -6  12   30.74    7.40
  -6   2  12   23.79    5.71
  -2  -6  12   19.44    5.43
   3   6 -12   87.31   20.49
   6  -3 -12   80.98   18.86
   3   6 -12   82.62   20.61
   6  -3 -12   77.50   18.24
   3   6 -12   79.05   20.61
   3   6 -12   80.37   21.24
  -3  -6  12   87.56   21.87
  -3  -6  12   62.77   17.95
  -6   3  12   96.55   18.91
   4   6 -12   22.65    8.85
   4   6 -12   24.85    8.89
   6  -4 -12   27.25    7.12
  -4  -6  12   36.96    9.52
  -4  -6  12   27.13    7.37
   5   6 -12    2.97    5.36
   5   6 -12    3.83    4.83
   6  -5 -12    6.88    3.09
   6  -5 -12    7.43    3.17
  -5  -6  12    6.05    3.60
  -5  -6  12    5.99    5.60
  -6   5  12    6.17    3.29
   6   6 -12    6.76    6.16
   6  -6 -12   10.72    3.93
   6  -6 -12   10.48    3.89
  -6   6  12   12.53    4.24
  -6  -6  12    5.75    4.64
  -6   6  12   11.24    4.68
   6  -7 -12    5.74    3.54
   6  -7 -12    1.75    3.19
  -7  -6  12    1.62    4.42
  -6   7  12    6.42    4.54
  -6   7  12    5.36    3.62
   5  -7 -12   16.20    5.89
   5  -7 -12   29.84    6.18
   7   5 -12   29.22    6.74
  -7  -5  12   19.48    6.92
  -5   7  12   24.29    7.11
  -5   7  12   22.52    6.30
   4  -7 -12    5.75    3.29
   4  -7 -12    2.85    2.69
   7   4 -12    2.73    3.00
  -4   7  12    6.84    3.24
  -7  -4  12   17.37    3.71
  -4   7  12    8.46    4.32
   7   3 -12   33.58    7.21
   3  -7 -12   23.51    5.97
   3  -7 -12   15.58    6.54
  -3   7  12   21.83    8.20
   7   2 -12   23.36    6.41
   7   2 -12   22.88    6.24
   2  -7 -12   20.57    5.98
   2  -7 -12   20.34    5.26
  -7  -2  12   21.71    6.28
  -2   7  12   25.27    7.72
   1  -7 -12   28.06    7.04
   7   1 -12   26.39    6.68
  -1   7 -12    9.77    8.69
   1  -7 -12   24.70    5.68
   7   1 -12   35.16    7.11
   1  -7 -12   23.25    6.65
  -7  -1  12   26.52    6.82
  -1   7  12   27.55    8.71
   1  -7  12   24.72    7.41
   7   0 -12   -0.59    2.62
   0  -7 -12    0.16    3.03
   0  -7 -12    1.10    1.80
   0  -7 -12   -1.60    3.94
   7   0 -12    0.20    2.89
   0   7 -12    0.74    4.16
   0  -7  12   -0.75    4.07
   0  -7  12   -0.56    3.03
   0   7  12    2.52    5.21
  -7   0  12    0.29    2.51
   7  -1 -12   30.42    6.78
   7  -1 -12   25.36    6.35
   1   7 -12   24.36    7.46
  -1  -7  12   21.47    6.22
  -7   1  12   15.67    6.51
  -1  -7  12   22.95    8.10
   7  -2 -12   14.80    6.31
   2   7 -12   22.23    6.84
   7  -2 -12   21.31    6.01
  -2  -7  12   22.89    5.81
  -2  -7  12   27.32    8.27
  -7   2  12   30.62    6.20
   7  -3 -12   30.02    6.73
   3   7 -12   24.90    7.98
   7  -3 -12   22.75    7.23
   3   7 -12   24.37    9.02
  -3  -7  12   19.80    6.61
  -3  -7  12   37.42    9.16
  -7   3  12   29.19    6.85
   7  -4 -12    3.70    3.13
   4   7 -12    5.71    5.56
   4   7 -12    4.98    4.78
  -4  -7  12    5.13    5.87
  -4  -7  12    4.82    3.46
   5   7 -12   27.04    8.46
   5   7 -12   19.15    8.09
   7  -5 -12   14.21    6.07
   7  -5 -12   17.99    5.80
  -5  -7  12   18.81    8.41
  -7   5  12   26.56    5.99
  -5  -7  12   13.45    6.38
   6   7 -12    0.67    6.19
   7  -6 -12    5.60    3.52
   7  -6 -12    8.15    3.83
  -6  -7  12    1.62    4.31
  -7   6  12    2.95    3.50
  -6  -7  12    0.19    6.84
   7  -7 -12   -4.19    4.06
   7  -7 -12   -2.53    4.00
  -7  -7  12   -1.44    4.54
   7  -8 -12    0.96    3.90
   7  -8 -12    2.23    3.71
  -8  -7  12   -1.75    4.78
  -7   8  12   -0.12    4.89
  -7   8  12    6.74    4.00
   6  -8 -12    0.20    3.53
   6  -8 -12    2.53    3.71
  -6   8  12    3.55    3.92
  -8  -6  12    1.59    4.48
  -6   8  12    4.51    4.85
   5  -8 -12    2.01    2.91
   8   5 -12    2.63    3.13
   5  -8 -12    0.14    3.31
  -5   8  12    2.80    3.72
  -5   8  12    3.01    4.65
   8   4 -12   36.88   12.72
   4  -8 -12   48.80   11.42
   4  -8 -12   50.52   10.95
  -4   8  12   62.79   11.61
  -4   8  12   47.60   13.19
   3  -8 -12    5.18    3.33
   8   3 -12    8.78    3.53
   3  -8 -12    7.08    2.86
  -3   8  12    5.87    5.07
   2  -8 -12   23.17   10.16
   2  -8 -12   33.81    5.90
   2  -8 -12   23.71    6.41
   2  -8 -12   25.88    6.70
   8   2 -12   24.14    7.06
  -2   8  12   26.03    8.76
  -2   8  12   18.67    7.72
   2  -8  12   23.36    7.40
  -2   8  12   18.49    8.95
   1  -8 -12    9.13    3.15
   1  -8 -12    8.57    4.34
  -1   8 -12    2.90    6.25
   8   1 -12    6.79    3.92
   1  -8 -12    9.54    4.16
   1  -8  12   13.91    4.50
   1  -8  12   20.94    5.08
  -1   8  12   10.84    6.33
   8   0 -12   31.05    8.07
   0  -8 -12   27.49    7.08
   0  -8 -12   27.49    8.38
   0   8 -12   34.54    9.65
   0  -8 -12   36.91    9.23
   0   8  12   24.46   11.05
  -8   0  12   28.88    8.36
   0  -8  12   37.56    9.47
   0  -8  12   32.02    7.77
   8  -1 -12   12.84    4.37
   1   8 -12   12.66    4.98
  -1  -8 -12   10.06    3.32
   8  -1 -12    9.31    3.99
  -1  -8  12   12.15    4.04
  -1  -8  12   12.88    6.35
  -8   1  12   11.36    4.20
   2   8 -12   20.48    7.39
   8  -2 -12   16.16    6.86
   8  -2 -12   27.91    6.42
  -2  -8  12   26.00    9.14
  -8   2  12   27.79    6.74
  -2  -8  12   19.84    6.17
   8  -3 -12   10.09    4.11
   8  -3 -12    5.52    3.57
   3   8 -12    8.47    6.75
   3   8 -12    7.96    5.02
  -3  -8  12    6.74    6.67
  -8   3  12    7.84    3.84
  -3  -8  12    5.03    3.81
   4   8 -12   41.01   13.06
   4   8 -12   43.65   12.80
   8  -4 -12   32.98   10.13
  -4  -8  12   40.23   13.31
  -4  -8  12   35.91   10.61
   5   8 -12    3.25    6.63
   8  -5 -12    1.77    3.83
   8  -5 -12    2.76    3.54
   5   8 -12    0.15    6.17
  -5  -8  12    4.36    6.87
  -5  -8  12    4.74    4.19
  -8   5  12    5.85    3.40
   6   8 -12    6.28    7.03
   8  -6 -12    1.90    3.74
   8  -6 -12    7.22    3.82
  -6  -8  12    4.58    4.60
  -6  -8  12   -3.79    7.38
  -8   6  12    2.75    4.15
   8  -7 -12   -2.47    3.82
   8  -7 -12   -1.61    4.33
  -7  -8  12   -1.07    4.78
  -8   7  12    0.20    3.88
   8  -8 -12   -0.17    4.04
   8  -8 -12    0.84    4.41
  -8  -8  12   -2.83    5.14
  -8   8  12    5.39    4.46
   8  -9 -12    5.19    4.42
   7  -9 -12    0.51    4.16
   7  -9 -12    1.34    3.95
  -7   9  12    4.57    5.45
  -7   9  12   -0.41    4.18
   6  -9 -12    1.08    3.88
   6  -9 -12   15.46    4.20
  -6   9  12    6.22    4.19
  -6   9  12    3.64    5.41
   5  -9 -12   19.93    7.00
   5  -9 -12   26.05    7.52
  -5   9  12   35.40    7.64
  -5   9  12   26.82    8.83
   4  -9 -12   23.09    5.35
   4  -9 -12   19.85    4.73
  -4   9  12    5.47    5.18
  -4   9  12    6.15    6.70
   3  -9 -12   36.79   10.05
   3  -9 -12   42.95    9.47
  -3   9  12   31.64   12.59
   2  -9 -12    1.92    3.16
  -2   9 -12    0.23    5.87
   2  -9 -12    3.37    2.24
   2  -9 -12    0.15    3.40
  -2   9  12    4.41    5.37
  -2   9  12    5.41    5.74
  -2   9  12    3.64    4.89
   2  -9  12    0.13    4.64
  -1   9 -12   16.96    7.65
   1  -9 -12   18.45    4.61
   1  -9 -12   18.26    6.03
   1  -9 -12   17.27    5.70
   1  -9  12   21.67    5.88
  -1   9  12   12.22    8.33
   1  -9  12   18.15    6.91
  -1   9  12   15.87    7.85
   0  -9 -12    1.59    2.20
   0  -9 -12   -0.55    4.65
   0  -9 -12   -1.66    3.56
   0   9 -12   -1.96    4.86
   0  -9  12   -3.04    5.74
   0   9  12   -0.73    6.12
   0  -9  12   -0.16    3.49
   1   9 -12   21.88    6.69
  -1  -9 -12   18.46    7.55
  -1  -9 -12   19.87    4.74
  -1  -9  12   16.10    5.27
  -1  -9  12   10.73    8.19
   2   9 -12    3.02    4.68
   9  -2 -12    0.16    3.48
  -2  -9  12    0.96    3.39
  -2  -9  12    1.88    7.17
   3   9 -12   39.32   12.39
   9  -3 -12   41.13   10.38
   3   9 -12   43.01   13.59
  -3  -9  12   43.95   10.29
  -3  -9  12   56.93   13.77
  -9   3  12   35.16   10.82
   4   9 -12   15.86    8.71
   4   9 -12    7.74    7.81
   9  -4 -12   23.62    5.73
  -4  -9  12   33.86    8.92
  -4  -9  12    9.60    5.87
   5   9 -12   17.37   10.38
   9  -5 -12   30.90    7.23
   9  -5 -12   21.42    7.74
   5   9 -12   27.76   10.67
  -5  -9  12   19.96    8.04
  -5  -9  12   31.94   10.47
  -9   5  12   31.74    7.69
   9  -6 -12    1.60    4.05
   9  -6 -12    4.77    4.70
   6   9 -12    2.87    8.10
   6   9 -12   -0.53    7.48
  -9   6  12    9.52    4.51
  -6  -9  12    1.81    5.01
  -6  -9  12   14.14    8.39
   9  -7 -12   -0.18    4.20
   7   9 -12    6.17    7.54
  -7  -9  12    2.34    5.30
  -8  -9  12    6.32    5.87
   9  -9 -12    2.67    5.15
  -9   9  12   -0.51    5.23
   9 -10 -12   -0.70    5.27
   9 -10 -12   -0.61    4.69
  -9  10  12    0.80    5.07
   7 -10 -12    0.18    4.50
   7 -10 -12    7.94    4.39
  -7  10  12    6.48    5.73
   6 -10 -12    2.55    4.16
   6 -10 -12   -1.36    3.96
  -6  10  12    5.24    4.47
  -6  10  12   -4.06    5.81
   5 -10 -12   10.34    3.86
   5 -10 -12    9.20    4.42
  -5  10  12   11.03    4.71
  -5  10  12    3.21    6.06
   4 -10 -12   21.37    6.31
   4 -10 -12   25.60    6.71
  -4  10  12   18.52    6.93
  -4  10  12   24.74    8.64
   3 -10 -12    0.30    2.69
   3 -10 -12    2.19    3.58
  -3  10  12    1.70    5.73
  -3  10  12    3.37    3.82
   2 -10 -12    1.90    2.67
  -2  10 -12   -5.63    6.76
   2 -10 -12    4.92    3.56
   2 -10  12    4.28    5.50
  -2  10  12    7.23    6.47
  -2  10  12    2.68    6.34
  -2  10  12   15.08    5.79
   1 -10 -12    1.96    3.85
   1 -10 -12    1.66    2.40
   1 -10 -12    1.68    6.86
  -1  10 -12   -0.62    6.42
   1 -10 -12   -3.19    4.42
  -1  10  12   -0.18    6.80
   1 -10  12  -20.74    6.27
  -1  10  12    2.77    6.24
   0 -10 -12   -0.40    5.29
   0  10 -12  -10.27    6.01
   0 -10 -12   -1.15    2.43
   0 -10 -12   -3.12    3.91
   0 -10  12  -16.78    7.34
   0  10  12   -6.74    6.95
  -1 -10 -12   -0.47    5.84
  -1 -10 -12    3.31    2.55
   1  10 -12   -0.61    5.35
   2  10 -12   14.40    9.06
   2  10 -12    7.95    5.60
  -2 -10  12    1.24    3.89
  -2 -10  12   -9.81    8.21
   3  10 -12   -0.34    6.34
   3  10 -12    4.11    8.52
  -3 -10  12   -7.62    8.30
  -3 -10  12    1.64    4.35
   4  10 -12   32.51   10.04
   4  10 -12   25.76   10.60
  -4 -10  12   28.17   10.59
  -4 -10  12   20.20    7.47
   5  10 -12    8.85    8.27
   5  10 -12    8.98    8.57
  -5 -10  12    7.66    8.27
  -5 -10  12    7.86    5.50
   6  10 -12    4.27    8.44
   6  10 -12   -2.32    8.51
  -6 -10  12  -10.46    8.84
  -6 -10  12   -0.60    5.47
   7  10 -12    1.90    8.28
  -7 -10  12    0.21    5.66
  -8 -10  12  -20.25    8.31
  10  -9 -12   -2.37    5.13
  -9 -10  12   -4.17    6.50
  10 -10 -12    9.79    5.86
  10 -11 -12    0.23    5.25
   9 -11 -12    0.21    5.02
  -9  11  12    2.84    5.70
   8 -11 -12   34.36    8.97
  -8  11  12   54.38   10.34
   6 -11 -12    8.51    4.32
   6 -11 -12    1.79    4.63
  -6  11  12    3.78    6.28
  -6  11  12   10.87    4.51
   5 -11 -12    4.04    3.90
   5 -11 -12    8.34    4.48
  -5  11  12    1.80    4.48
  -5  11  12    7.04    6.22
   4 -11 -12    2.92    3.29
   4 -11 -12   -0.82    3.99
  -4  11  12    2.65    4.17
  -4  11  12    5.38    6.07
   3 -11 -12    3.80    3.03
   3 -11 -12   -0.17    3.98
  -3  11  12    2.13    4.05
  -3  11  12    3.25    6.54
   2 -11 -12   -1.32    2.88
   2 -11 -12   -0.18    3.85
  -2  11 -12    2.84    7.28
   2 -11  12    7.61    6.20
   2 -11  12   -0.24    4.98
  -2  11  12    3.25    6.83
   1 -11 -12    4.49    7.53
   1 -11 -12    2.95    4.64
   1 -11 -12    0.82    2.60
  -1  11 -12   -1.32    6.57
   1 -11 -12   -1.14    4.04
  -1  11  12    2.54    7.21
   1 -11  12   -1.05    6.77
   1 -11  12    1.25    4.62
  -1  11  12    6.04    7.10
  -1  11  12    6.65    7.20
   0 -11 -12    1.91    5.40
   0 -11 -12    2.98    2.77
   0  11 -12   -1.88    6.39
   0  11  12   -7.66    7.46
   0 -11  12   -9.88    7.86
   0 -11  12   -0.55    4.19
   1  11 -12    4.47    6.05
  -1 -11 -12    3.54    6.30
  -1 -11 -12   -0.58    2.56
  -1 -11  12   -7.56    9.08
  -1 -11  12    0.17    4.03
   2  11 -12   -0.88    9.77
   2  11 -12    3.65    6.44
  -2 -11  12    1.75    4.40
  -2 -11  12   -1.11    9.15
   3  11 -12   14.34   10.02
   3  11 -12   -0.19    7.62
  -3 -11  12    3.40    9.20
  -3 -11  12   -0.18    4.74
   4  11 -12    2.66    8.23
   4  11 -12    4.70    9.49
  -4 -11  12    1.14    9.05
  -4 -11  12   -0.20    5.02
   5  11 -12   10.77    9.34
   5  11 -12    5.30    8.77
  -5 -11  12   11.00    5.64
  -5 -11  12  -20.40    9.47
   6  11 -12    0.47    9.89
   6  11 -12   -0.64    9.95
  -6 -11  12    7.62    9.51
  -6 -11  12    0.44    6.02
   7  11 -12   -5.45   10.19
   7  11 -12   26.01    9.66
  -7 -11  12   -0.93    6.72
  10 -12 -12   14.56    7.07
   9 -12 -12    0.22    5.51
  -9  12  12    2.41    6.04
  -9  12  12    3.77    7.22
   8 -12 -12   -2.29    5.05
   8 -12 -12    1.02    5.27
  -8  12  12   -4.61    5.27
  -8  12  12   -4.11    6.98
   7 -12 -12    0.31    4.97
  -7  12  12   -0.74    5.52
   5 -12 -12    4.48    7.65
   5 -12 -12   56.64    8.32
  -5  12  12   29.16    8.66
   4 -12 -12    4.66    4.19
   4 -12 -12    3.17    3.89
  -4  12  12    7.09    4.54
  -4  12  12    0.63    6.81
   3 -12 -12    8.66    4.22
   3 -12 -12    0.87    3.19
   3 -12  12    0.55    6.78
  -3  12  12    4.51    4.45
  -3  12  12   -0.34    6.90
   2 -12 -12    3.97    4.28
   2 -12 -12    1.76    3.03
  -2  12  12    2.38    7.26
   1 -12 -12   -0.60    4.25
   1 -12 -12    1.04    2.82
  -1  12  12   -0.19    8.08
  -1  12  12    3.50    7.50
  -1  12  12    5.72    7.50
   0 -12 -12    8.02    3.16
   0 -12 -12    6.24    6.57
   1  12 -12   -2.90    6.96
  -1 -12 -12   -7.55    7.20
  -1 -12 -12    1.19    2.90
  -1 -12  12   -0.39    4.75
   2  12 -12  -10.45    7.65
  -2 -12  12   -1.78    5.06
   3  12 -12  -29.50   10.04
  -3 -12  12   18.06    5.90
   7  12 -12    1.88    9.99
  -7 -12  12    9.68   10.16
  -8 -12  12    1.55    6.87
  -9 -12  12    6.46    7.55
  10 -13 -12  -19.16    6.59
 -10  13  12   -4.21    8.60
   9 -13 -12    0.23    5.34
  -9  13  12   -0.95    6.35
  -9  13  12   -7.66    8.00
   8 -13 -12    0.22    5.56
   8 -13 -12   -0.72    5.85
  -8  13  12   10.38    7.77
  -8  13  12   -4.57    5.79
   7 -13 -12    2.05    4.92
   7 -13 -12   -6.78    5.67
  -7  13  12    0.17    7.16
  -7  13  12   -1.81    5.29
   6 -13 -12   -0.28    5.16
  -6  13  12   -4.04    5.09
  -4  13  12    4.64    4.63
  -4  13  12   -5.68    7.24
  -3  13 -12   -7.06    9.10
   3 -13  12   -5.09    7.97
  -2  13 -12    3.82    9.06
   2 -13  12   -0.21    8.10
   2 -13  12  -11.22    6.24
  -1  13 -12    8.28   10.35
   1 -13  12   11.37    7.25
   1 -13  12   14.28   11.06
   0  13 -12    6.26   11.63
   0 -13 -12   11.75   10.78
   0 -13  12   76.60   14.19
   0  13  12   36.69   13.28
   0 -13  12   44.81    9.30
   1  13 -12   38.64   15.20
  -1 -13 -12    9.50   10.41
   1  13 -12   19.40   11.01
  -1 -13  12   40.01    8.59
   2  13 -12    0.66    9.76
   2  13 -12   13.73   12.96
   3  13 -12  -27.69   13.73
   3  13 -12   -8.63   13.04
  -3 -13  12  -29.39   16.07
  -3 -13  12   -0.23    6.85
   4  13 -12   18.47   11.03
   4  13 -12  -10.96   12.42
  -4 -13  12   -9.17   11.82
  -4 -13  12    3.44    6.52
   5  13 -12   23.46   11.73
   5  13 -12   -3.98   12.41
  -5 -13  12    7.15   11.40
  -5 -13  12    0.50    6.79
   6  13 -12    9.67   12.20
   6  13 -12   25.53   11.88
  -6 -13  12   -9.19    7.14
  -6 -13  12   -4.94   11.50
   7  13 -12   -2.49   10.97
   7  13 -12   18.61   12.44
  -7 -13  12    4.15   10.95
  -7 -13  12    6.78    7.42
   8  13 -12    8.43   12.53
  -8 -13  12   -4.15    7.17
  -9 -13  12   -7.48    7.90
  -3  14 -12    5.88    9.36
   3 -14  12   -6.41    8.99
  -2  14 -12   -3.84    9.42
   2 -14  12  -11.58    9.72
   2 -14  12    0.89    6.12
  -1  14 -12    4.17    8.73
   1 -14  12    0.26    5.68
   1 -14  12    5.49   10.14
   0  14 -12   -4.93    9.50
   0 -14  12   -6.50    5.97
   0 -14  12  -13.18   11.58
   1  14 -12   -8.36   13.95
   1  14 -12   -2.21    8.91
  -1 -14  12   16.19   12.32
  -1 -14  12  -11.34    5.90
   2  14 -12   18.29   14.46
   2  14 -12    6.17    9.51
  -2 -14  12   11.82   13.00
  -2 -14  12    6.19    6.29
   3  14 -12    3.82   14.17
   3  14 -12  -17.45   11.75
  -3 -14  12    1.27   13.40
  -3 -14  12   -3.37    6.77
   4  14 -12   19.62   12.52
   4  14 -12    5.66   14.67
  -4 -14  12   13.85    8.06
  -4 -14  12   25.12   13.38
   5  14 -12    9.74   12.40
   5  14 -12    7.64   14.25
  -5 -14  12    6.63   12.66
  -5 -14  12    8.69    7.57
   6  14 -12    9.50   13.35
   6  14 -12   -6.60   12.32
  -6 -14  12    1.43    7.41
  -6 -14  12  -18.77   12.92
   7  14 -12    8.30   13.02
   7  14 -12   -4.17   13.11
  -7 -14  12    4.67    7.72
  -7 -14  12   -3.49   12.14
   8  14 -12   10.43   13.36
  -8 -14  12   -9.60    7.94
   9  14 -12  -12.81   14.02
  -3  15 -12   37.22   11.66
   3 -15  12    5.16   10.86
  -2  15 -12   -8.08   10.64
   2 -15  12    1.94    7.02
   2 -15  12   -0.27   10.42
  -1  15 -12    7.10    9.95
   1 -15  12    0.86    6.38
   1 -15  12   -5.87   12.08
   0  15 -12    0.87    9.87
   0 -15  12    0.83    6.19
   0  15  12   -5.94    9.94
   0 -15  12    0.31   12.93
   1  15 -12   -6.19   14.84
   1  15 -12   25.49    9.80
  -1 -15 -12  -13.63    9.01
   1  15  12   26.08   13.47
  -1 -15  12    1.00   13.48
  -1 -15  12    1.10    6.46
   2  15 -12   -2.22   10.46
   2  15 -12    1.38   15.72
  -2 -15  12    0.35   13.88
  -2 -15  12  -17.08    6.88
   3  15 -12    0.60   11.31
   3  15 -12   26.13   15.64
  -3 -15  12   -5.74    7.40
  -3 -15  12  -13.03   14.52
   4  15 -12   35.40   21.16
   4  15 -12   33.84   23.49
  -4 -15  12   57.19   15.57
   5  15 -12   -3.54   15.27
   5  15 -12  -15.14   13.80
  -5 -15  12    5.50    7.67
  -5 -15  12   -8.47   13.61
   6  15 -12    4.07   14.71
   6  15 -12    2.05   13.86
  -6 -15  12    3.40   13.74
  -6 -15  12  -19.51    8.05
   7  15 -12    5.59   14.41
   7  15 -12   -8.24   14.22
  -7 -15  12  -16.73    8.72
  -7 -15  12  -16.52   13.79
   8  15 -12    5.28   14.39
  -8 -15  12   -8.69    8.27
  -3  16 -12    5.77   11.70
   3 -16  12   -9.79   11.71
  -2  16 -12   19.83   12.30
   2 -16  12    1.78    8.27
   2 -16  12   27.29   13.19
  -1  16 -12   -2.76   10.81
   1 -16  12    1.59    7.11
   1 -16  12  -17.77   13.09
   0  16 -12   32.14   12.04
   0  16 -12   15.22   16.64
   0 -16  12    8.65    8.00
   0 -16  12    5.95   14.74
  -1 -16 -12  -12.49    9.37
   1  16 -12   -6.38   16.93
   1  16 -12   -0.62   10.77
  -1 -16  12   -2.94   14.68
   1  16  12   31.91   14.85
  -1 -16  12    0.31    7.13
   2  16 -12   44.64   18.37
   2  16 -12   12.92   12.31
  -2 -16  12    0.31    7.80
  -2 -16  12   27.08   16.25
   3  16 -12  -10.64   12.38
   3  16 -12   17.56   17.36
  -3 -16  12  -12.09   15.36
  -3 -16  12   -9.48    8.08
   4  16 -12   10.62   17.80
   4  16 -12   21.71   14.15
  -4 -16  12  -10.09   14.86
  -4 -16  12   11.11    8.72
   5  16 -12    1.48   14.84
   5  16 -12   -5.70   16.91
  -5 -16  12    0.34    8.92
  -5 -16  12    6.95   15.13
   6  16 -12   -5.14   16.73
   6  16 -12    3.77   14.98
  -6 -16  12    4.76    8.79
  -6 -16  12  -25.16   15.25
   7  16 -12   -0.58   15.86
   7  16 -12   -1.14   15.32
  -7 -16  12  -14.84   14.95
  -7 -16  12  -13.97    9.20
   8  16 -12   12.57   16.04
  -3  17 -12   18.17   12.99
   3 -17  12    1.62    8.11
   3 -17  12   -6.04   13.80
  -2  17 -12  -19.03   13.29
   2 -17  12   -5.92   14.16
   2 -17  12   26.74    8.77
  -1  17 -12   12.94   12.89
   1 -17  12   -0.35    7.84
   1 -17  12   27.35   15.38
   0  17 -12  -15.36   17.50
   0  17 -12   -2.22   12.51
   0 -17  12   12.42   15.61
   0 -17  12   -7.41    8.10
   1  17 -12   12.50   18.41
   1  17 -12   15.53   12.60
  -1 -17  12    7.86    8.37
  -1 -17  12    2.44   16.34
   2  17 -12   18.03   12.95
   2  17 -12   40.54   19.69
  -2 -17  12    4.47    8.56
  -2 -17  12    3.78   16.92
   3  17 -12   37.86   19.62
   3  17 -12   -0.36   12.98
  -3 -17  12  -20.67   16.46
  -3 -17  12    1.39    8.24
   4  17 -12   -4.31   16.14
   4  17 -12  -28.79   21.18
  -4 -17  12  -38.84   18.39
  -4 -17  12  -38.02   10.84
   5  17 -12  103.39   50.39
   5  17 -12   69.99   52.69
   6  17 -12    4.11   17.06
   6  17 -12  -27.04   19.30
  -6 -17  12    1.10    9.58
  -6 -17  12  -50.36   18.25
   7  17 -12   16.53   16.99
   7  17 -12   -7.12   18.05
  -7 -17  12    8.45    9.63
  -7 -17  12  -17.35   16.73
   8  17 -12  -27.99   17.00
  -8 -17  12    1.86    9.97
  -3  18 -12  -12.11   15.47
   3 -18  12   -7.15   15.42
  -2  18 -12   13.07   15.08
   2 -18  12    7.43   16.08
   2 -18  12    3.05    9.47
  -1  18 -12    2.28   14.09
  -1  18 -12   -7.50   19.13
   1 -18  12    0.39    8.86
   1 -18  12  -25.93   16.89
   0  18 -12   -6.25   20.38
   0  18 -12    1.25   13.64
   0 -18  12  -29.13   17.98
   0 -18  12  -10.57    9.19
   1  18 -12  -30.64   20.79
   1  18 -12   -0.41   14.12
  -1 -18  12   -9.11    9.14
  -1 -18  12  -23.67   18.66
   2  18 -12    9.47   21.13
   2  18 -12   16.63   14.31
  -2 -18  12    9.25   18.62
  -2 -18  12    0.38    9.14
   3  18 -12   14.88   15.23
   3  18 -12   32.81   22.33
  -3 -18  12    0.38    9.18
  -3 -18  12   17.22   18.79
   4  18 -12  -31.10   22.56
   4  18 -12  -25.29   16.62
  -4 -18  12  -35.96   19.30
  -4 -18  12   16.08   10.00
   5  18 -12  -11.51   21.81
   5  18 -12   40.95   17.68
  -5 -18  12    6.59   19.30
  -5 -18  12    5.16   10.44
   6  18 -12  -20.26   21.17
  -6 -18  12   13.43   19.17
  -6 -18  12  -30.99   10.70
   7  18 -12  -15.32   19.61
   7  18 -12   13.85   17.58
  -7 -18  12   -4.68   17.87
  -7 -18  12   -6.02   10.47
   8  18 -12    2.67   17.83
  -8 -18  12  -13.18   10.73
  -2  19 -12   14.17   17.06
   2 -19  12    6.80   10.62
  -1  19 -12  -25.23   16.61
   1 -19  12   -0.46   14.62
   1 -19  12  -14.67   10.59
   0  19 -12   -6.91   22.28
   0  19 -12   -6.39   16.05
   0 -19  12   19.59   10.38
   1  19 -12   15.85   22.33
   1  19 -12   -1.83   15.61
  -1 -19  12   -3.91    9.87
   2  19 -12  -37.78   23.93
   2  19 -12  -14.92   15.68
  -2 -19  12    8.38    9.83
   3  19 -12   -1.35   16.50
  -3 -19  12    9.49   18.52
  -3 -19  12   -2.11   10.12
   4  19 -12  -13.41   17.92
   4  19 -12  -50.38   20.76
  -4 -19  12   -2.99   10.76
   0   0 -13    0.11    1.62
   1   0 -13   34.41    9.02
   0  -1 -13   32.76    8.31
   0   1 -13   35.30    8.83
   1   0 -13   46.86    8.26
  -1   0  13   30.85   10.41
   0   1  13   24.74   10.50
   1  -1 -13    0.96    2.22
   1   1 -13   -0.94    1.32
   1  -1 -13   -0.59    1.24
   1   1 -13    0.60    2.15
  -1   1  13   -0.62    3.30
  -1  -1  13   -1.82    3.39
   2   1 -13    6.76    1.89
   1  -2 -13    6.16    2.77
   2   1 -13    5.43    2.54
   1  -2 -13    8.00    2.02
  -2  -1  13    7.15    2.46
  -1   2  13    3.57    3.82
  -2  -1  13    2.67    3.37
   0  -2 -13    1.53    1.71
   2   0 -13   -0.38    1.31
   0   2 -13   -0.11    1.65
   0  -2 -13   -0.43    2.53
   2   0 -13    0.58    2.01
  -2   0  13    0.50    1.12
  -2   0  13   -0.08    2.82
   0   2  13   -1.41    3.70
   2  -1 -13    4.37    1.93
   1   2 -13    4.79    1.94
   2  -1 -13    4.17    2.47
  -2   1  13    3.86    3.37
  -1  -2  13   11.65    3.51
  -1  -2  13    6.30    2.47
   2  -2 -13    1.14    2.02
   2   2 -13   -0.62    1.27
   2  -2 -13   -0.25    1.32
   2   2 -13    2.02    1.87
  -2  -2  13    0.13    2.28
  -2  -2  13   10.59    3.04
  -2   2  13    0.36    3.17
   2  -3 -13    1.01    1.29
   2  -3 -13    1.64    2.30
   2  -3 -13    0.87    1.42
   3   2 -13   -3.72    2.47
   3   2 -13   -1.53    1.70
   3   2 -13   -4.95    2.76
  -2   3  13    1.06    3.48
   3   1 -13    1.20    1.39
   3   1 -13    0.25    1.89
   1  -3 -13   -1.66    2.43
   3   1 -13   -0.08    1.73
  -1   3  13    0.56    3.65
  -3  -1  13    1.51    1.94
  -3  -1  13   -0.83    2.68
   0  -3 -13    0.15    2.60
   3   0 -13   -0.61    1.80
   3   0 -13    1.15    1.36
  -3   0  13   -0.29    2.71
   0   3  13    0.80    3.97
   3  -1 -13    0.60    1.39
   3  -1 -13   -0.09    2.01
  -1  -3  13   -0.58    2.47
  -3   1  13    1.75    2.77
   3  -2 -13   -0.36    1.66
   3  -2 -13   -1.55    2.36
   2   3 -13   -0.06    1.27
  -3   2  13   -3.16    3.49
   3  -3 -13   -2.57    1.77
   3   3 -13   -3.78    1.96
   3  -3 -13   -4.10    2.72
  -3   3  13   -7.01    4.04
  -3  -3  13    4.50    2.65
   4   3 -13    9.59    3.69
   3  -4 -13   14.48    3.78
   4   3 -13   10.27    4.67
   4   3 -13   15.60    4.00
   4   3 -13   14.55    3.65
  -3   4  13   13.90    4.76
  -4  -3  13    8.79    5.29
  -4  -3  13   11.20    3.77
  -4  -3  13   15.27    3.43
  -4  -3  13   12.13    4.17
   2  -4 -13   10.29    2.30
   4   2 -13    0.98    3.87
   2  -4 -13    8.42    2.34
   4   2 -13    4.48    2.70
   2  -4 -13   14.54    2.95
   4   2 -13    6.24    2.44
   4   2 -13    8.65    2.56
  -2   4  13    8.50    4.02
  -4  -2  13    2.65    4.40
  -4  -2  13    3.44    2.55
  -4  -2  13    0.28    2.22
  -4  -2  13   10.26    3.18
   4   1 -13   -1.45    2.39
   4   1 -13    1.27    1.87
   1  -4 -13   -0.48    1.61
   1  -4 -13    2.40    2.53
  -1   4  13   -2.13    4.30
  -4  -1  13   -4.77    3.08
  -4  -1  13    2.13    2.14
   0  -4 -13    1.88    1.94
   4   0 -13    7.85    2.50
   0  -4 -13    4.87    3.34
   0   4  13    4.47    4.91
   4  -1 -13   -2.08    2.54
   4  -1 -13   -0.52    1.87
  -4   1  13   -1.56    3.36
  -4   1  13    3.53    2.37
   4  -2 -13   10.00    2.75
   4  -2 -13   10.15    2.89
  -4   2  13   11.47    3.63
  -4   2  13    7.58    3.09
   4  -3 -13    8.86    3.69
   4  -3 -13    8.45    3.43
  -4   3  13   11.88    3.71
  -3  -4  13   19.47    3.51
  -4   3  13    8.69    4.42
   4  -4 -13   -0.22    2.41
   4   4 -13    0.19    1.75
  -4   4  13   -0.36    3.35
  -4  -4  13    0.53    2.12
  -4  -4  13    0.91    1.82
   5   4 -13   43.67   12.08
   4  -5 -13   36.50   10.75
   4  -5 -13   48.04   10.42
   5   4 -13   55.30   11.43
  -4   5  13   30.88   12.14
  -4   5  13   51.26   10.97
  -5  -4  13   44.51   11.77
  -5  -4  13   51.54   12.01
   5   3 -13  103.34   26.33
   3  -5 -13  107.67   23.24
   5   3 -13  108.23   24.87
   3  -5 -13   98.64   22.12
   5   3 -13  104.09   30.75
  -3   5  13   95.41   26.71
  -5  -3  13   96.84   23.79
  -5  -3  13  101.63   25.83
   5   2 -13   18.66    5.76
   5   2 -13   19.14    5.43
   2  -5 -13   22.57    5.47
   2  -5 -13   16.96    4.76
   2  -5 -13   21.85    5.27
  -2   5  13   20.57    6.89
  -5  -2  13   16.73    5.07
  -5  -2  13   24.60    5.99
  -5  -2  13   18.06    5.70
   1  -5 -13   20.25    6.28
   1  -5 -13   22.02    4.84
   1  -5 -13   21.94    5.77
   5   1 -13   19.62    5.42
   5   1 -13   20.26    5.67
  -5  -1  13   22.51    5.63
  -1   5  13   21.62    7.22
  -5  -1  13   20.66    5.96
   0  -5 -13   74.10   13.15
   5   0 -13   62.48   14.28
   0  -5 -13   58.77   14.78
   0   5 -13   49.10   17.00
   5   0 -13   57.02   14.90
   0  -5  13   67.30   16.05
  -5   0  13   74.87   14.84
   0   5  13   59.36   17.58
  -5   0  13   62.36   15.35
   1   5 -13   21.93    5.57
   1   5 -13   21.48    7.17
   5  -1 -13   19.93    5.37
   5  -1 -13   21.55    5.49
  -5   1  13   22.64    6.03
  -5   1  13   19.82    5.62
  -1  -5  13   21.23    5.68
  -1  -5  13   21.20    6.54
   5  -2 -13   17.03    5.60
   2   5 -13   32.73    6.75
   2   5 -13   23.65    5.59
   5  -2 -13   18.33    5.66
   2   5 -13   33.40    6.53
  -2  -5  13   14.51    7.34
  -5   2  13   25.88    6.23
  -2  -5  13   26.85    5.63
  -2  -5  13   23.32    7.10
  -5   2  13   17.56    5.79
   3   5 -13  109.03   26.09
   3   5 -13  126.29   26.71
   5  -3 -13  101.78   23.25
   3   5 -13  110.45   25.63
  -3  -5  13  105.24   27.59
  -5   3  13   94.22   25.33
  -3  -5  13   87.76   28.27
  -5   3  13   74.46   24.02
   4   5 -13   39.36   11.93
   4   5 -13   42.41   11.89
   5  -4 -13   37.73   10.35
  -4  -5  13   41.03   12.94
  -5   4  13   38.18   11.49
  -4  -5  13   43.53   10.20
   5   5 -13    0.18    3.87
   5  -5 -13   -1.17    2.39
   5   5 -13   -1.24    4.70
   5   5 -13   -0.64    2.12
   5  -5 -13    1.99    2.70
  -5  -5  13    1.02    2.55
  -5  -5  13    0.10    2.02
  -5   5  13   -2.43    2.90
  -5  -5  13   -0.71    2.77
  -5   5  13    1.67    3.78
  -5  -5  13   -1.05    5.17
   5  -6 -13    9.09    4.03
   5  -6 -13   12.10    4.42
   6   5 -13   12.23    6.35
   6   5 -13   12.45    4.10
  -5   6  13   14.28    4.60
  -6  -5  13   17.21    4.26
  -5   6  13   13.36    5.24
  -6  -5  13   15.51    4.73
   6   4 -13    5.38    2.43
   4  -6 -13    4.21    2.50
   4  -6 -13    2.67    2.84
   6   4 -13    4.72    2.75
  -4   6  13    3.78    3.11
  -6  -4  13    3.22    2.48
  -4   6  13    2.75    4.15
   3  -6 -13   20.98    5.62
   3  -6 -13   16.71    6.05
   6   3 -13   23.37    6.41
   6   3 -13   32.82    6.79
  -3   6  13   18.38    7.54
  -6  -3  13   29.79    6.48
   2  -6 -13   14.07    4.38
   6   2 -13   13.65    4.24
   2  -6 -13   10.34    3.52
   6   2 -13   14.89    4.53
  -6  -2  13   17.19    4.40
  -2   6  13   12.46    5.90
   6   1 -13   57.07   13.38
   1  -6 -13   50.10   12.65
   1  -6 -13   59.59   13.74
   6   1 -13   53.11   12.64
  -6  -1  13   67.89   13.09
   1  -6  13   42.02   13.52
  -1   6  13   47.00   15.36
   0  -6 -13   -0.23    1.74
   0  -6 -13   -3.16    3.17
   0   6 -13    0.31    4.11
   6   0 -13    1.65    2.46
   0   6 -13   -1.69    1.59
   6   0 -13   -0.63    2.35
   0   6  13   -0.16    5.11
  -6   0  13    0.26    2.47
   0  -6  13    0.47    3.57
   1   6 -13   53.75   13.52
   6  -1 -13   44.27   12.91
   6  -1 -13   60.48   12.33
   1   6 -13   45.55   15.09
  -1  -6  13   68.39   14.41
  -6   1  13   53.90   12.83
  -1  -6  13   47.74   12.22
   6  -2 -13   11.73    4.47
   6  -2 -13   11.99    4.20
   2   6 -13   18.23    5.10
  -6   2  13   15.89    4.45
  -2  -6  13   13.43    4.27
  -2  -6  13   25.01    6.23
   3   6 -13   20.32    6.90
   6  -3 -13   24.22    6.25
   6  -3 -13   19.12    6.04
   3   6 -13   25.59    7.96
  -3  -6  13   24.22    8.13
  -3  -6  13   18.68    5.86
  -6   3  13   29.97    6.32
   4   6 -13    3.73    3.98
   6  -4 -13    2.62    2.84
   4   6 -13    2.60    4.77
  -6   4  13    5.49    3.77
  -4  -6  13    4.02    2.86
  -4  -6  13    6.51    5.35
   5   6 -13   12.45    6.26
   6  -5 -13   13.86    4.39
   6  -5 -13   11.47    4.43
   5   6 -13   19.82    5.87
  -6   5  13   13.17    4.64
  -6   5  13   11.70    5.04
  -5  -6  13   12.81    4.51
  -5  -6  13   10.47    6.77
   6  -6 -13   -0.28    3.37
   6   6 -13   -0.61    5.63
   6  -6 -13    1.29    3.00
  -6  -6  13   -0.52    6.23
  -6   6  13    1.65    3.32
  -6   6  13   -0.86    4.20
  -6  -6  13    2.34    3.65
   6  -7 -13   16.83    4.64
   6  -7 -13   15.16    4.77
  -7  -6  13   15.75    5.50
  -6   7  13   13.46    5.77
  -6   7  13   11.69    4.94
   5  -7 -13    1.13    3.22
   5  -7 -13    4.39    2.89
   7   5 -13    1.80    2.72
  -5   7  13    2.06    4.35
  -5   7  13   -0.32    3.34
   4  -7 -13   78.07   16.28
   7   4 -13   67.18   18.40
  -4   7  13   53.50   18.54
  -4   7  13   76.75   16.52
   3  -7 -13   27.58    6.55
   7   3 -13   31.66    7.87
   3  -7 -13   28.18    7.24
  -7  -3  13   21.22    7.77
  -3   7  13   22.97    8.96
   2  -7 -13   17.02    5.78
   7   2 -13   18.78    6.21
   7   2 -13   25.09    5.95
   2  -7 -13   23.00    4.98
  -2   7  13   20.95    7.60
  -7  -2  13   17.06    6.00
   1  -7 -13   14.65    3.83
   1  -7 -13    8.51    2.48
   7   1 -13    2.85    3.14
   1  -7 -13    2.06    3.60
   7   1 -13    4.18    3.47
  -1   7  13    6.37    5.47
  -7  -1  13    9.69    3.35
   1  -7  13    8.07    4.42
   7   0 -13   53.76   12.57
   0  -7 -13   49.97   14.61
   7   0 -13   58.61   13.30
   0  -7 -13   35.44   12.93
   0  -7 -13   65.88   11.17
   0   7 -13   47.29   15.66
  -7   0  13   48.73   12.85
   0   7  13   44.28   16.17
   0  -7  13   51.91   13.88
   0  -7  13   46.81   12.51
   1   7 -13    5.89    4.25
   7  -1 -13   10.64    3.27
   7  -1 -13    7.30    3.55
  -1  -7  13    8.15    5.27
  -7   1  13    3.79    3.29
  -1  -7  13    8.45    3.50
   7  -2 -13   21.61    5.68
   7  -2 -13   19.95    6.09
   2   7 -13   20.94    6.56
  -7   2  13   25.77    5.89
  -2  -7  13   26.45    8.09
  -2  -7  13   15.35    5.51
   7  -3 -13   24.51    7.46
   3   7 -13   30.87    9.88
   3   7 -13   32.82    8.66
   7  -3 -13   22.32    8.02
  -3  -7  13   26.72    7.35
  -3  -7  13   42.03   10.11
  -7   3  13   41.81    7.79
   4   7 -13   63.34   18.34
   4   7 -13   67.25   18.61
  -4  -7  13   72.10   15.83
  -4  -7  13   60.52   19.33
   5   7 -13    2.77    5.18
   7  -5 -13    1.40    3.20
   7  -5 -13    3.42    3.58
   5   7 -13    3.43    5.90
  -7   5  13    0.69    3.29
  -5  -7  13    1.56    6.21
  -5  -7  13   -0.12    3.67
   6   7 -13    8.11    7.44
   7  -6 -13    6.22    4.87
   7  -6 -13   21.07    4.73
   6   7 -13   16.61    7.21
  -7   6  13   15.61    5.04
  -6  -7  13    4.59    8.20
  -6  -7  13   10.34    5.40
   7  -7 -13   -1.85    3.75
   7  -7 -13    4.56    3.75
  -7   7  13   -0.19    3.78
  -7   7  13    0.36    4.65
  -7  -7  13    4.11    4.70
   7  -8 -13   -0.97    3.80
   7  -8 -13    0.17    3.86
  -7   8  13   -1.81    4.38
  -7   8  13   -0.51    5.30
   6  -8 -13   12.01    4.45
   6  -8 -13   10.56    4.64
  -6   8  13   13.72    5.68
  -6   8  13   10.17    4.65
   5  -8 -13   32.18    7.55
   5  -8 -13   19.63    7.17
   8   5 -13   24.89    8.30
  -5   8  13   24.92    7.69
  -5   8  13   30.48    9.14
   4  -8 -13    1.22    2.87
   4  -8 -13    4.34    3.32
   8   4 -13    2.19    3.18
  -4   8  13    0.79    3.48
  -4   8  13    0.25    5.04
   3  -8 -13   64.48   12.65
   3  -8 -13   58.74   13.43
   8   3 -13   44.43   14.88
  -3   8  13   58.23   16.12
   8   2 -13    3.35    3.38
   2  -8 -13    5.22    2.54
   2  -8 -13    9.44    3.77
  -2   8  13    6.24    5.58
   1  -8 -13   35.08    7.97
   1  -8 -13   32.23    6.44
   8   1 -13   29.18    7.67
  -1   8 -13   22.17    9.87
   1  -8 -13   19.69    7.61
  -1   8  13   17.90   10.29
   1  -8  13   36.03    8.49
  -8  -1  13   15.19    7.83
   8   0 -13    0.14    3.08
   8   0 -13   -0.71    3.35
   0  -8 -13   -0.50    2.26
   0   8 -13    0.67    4.80
   0  -8 -13    2.80    3.53
   0  -8 -13    3.17    4.62
  -8   0  13    2.77    3.14
   0  -8  13   -5.29    5.15
   0   8  13   -2.90    6.25
   0  -8  13   -3.00    3.50
   8  -1 -13   33.53    7.85
   1   8 -13   29.41    9.03
   8  -1 -13   29.57    8.21
  -1  -8  13   29.63    7.45
  -8   1  13   30.82    8.04
  -1  -8  13   41.44    9.96
   8  -2 -13    6.49    3.38
   2   8 -13    4.00    4.20
   8  -2 -13    4.13    4.05
  -2  -8  13    2.30    3.22
  -2  -8  13    7.01    6.60
  -8   2  13    3.74    3.55
   3   8 -13   39.11   14.53
   8  -3 -13   66.07   12.65
   8  -3 -13   57.63   13.40
   3   8 -13   43.15   16.23
  -3  -8  13   41.54   12.33
  -3  -8  13   58.24   16.24
  -8   3  13   50.08   13.14
   4   8 -13   -0.13    5.29
   8  -4 -13   -0.15    3.28
   4   8 -13   -0.39    6.52
  -4  -8  13    3.33    6.71
  -4  -8  13    3.01    3.57
  -8   4  13    1.48    3.81
   5   8 -13   29.22   10.39
   8  -5 -13   28.69    7.65
   5   8 -13   17.86   10.15
   8  -5 -13   44.33    8.29
  -5  -8  13   22.20    8.10
  -5  -8  13   30.51   10.51
  -8   5  13   43.79    8.16
   6   8 -13    9.76    7.51
   8  -6 -13    8.00    4.87
   8  -6 -13   13.25    4.30
   6   8 -13    3.32    7.28
  -8   6  13    3.80    4.92
  -6  -8  13    4.76    5.36
  -6  -8  13   14.34    8.08
   7   8 -13    0.27    6.93
   8  -7 -13   -0.83    4.31
   8  -7 -13   -4.35    4.00
  -8   7  13    0.21    4.35
  -7  -8  13   -3.85    5.11
   8  -8 -13    0.18    4.13
   7  -9 -13   10.34    4.46
   7  -9 -13   16.29    4.68
  -7   9  13   -0.21    3.50
  -7   9  13   -1.22    5.88
   6  -9 -13    3.22    3.84
   6  -9 -13   -0.51    3.74
  -6   9  13    4.55    4.48
  -6   9  13    0.80    5.60
   5  -9 -13    0.75    3.37
   5  -9 -13    6.91    3.96
  -5   9  13    4.28    4.32
  -5   9  13    8.34    5.66
   9   4 -13   37.38   12.70
   4  -9 -13   41.87   11.42
   4  -9 -13   42.52   10.88
  -4   9  13   49.84   13.65
  -4   9  13   63.61   11.72
   9   3 -13   -1.66    3.42
   3  -9 -13    2.83    3.52
   3  -9 -13    1.31    2.73
  -3   9  13   -0.99    5.71
   9   2 -13   30.14    7.16
   2  -9 -13   29.67    7.03
   2  -9 -13   30.91    5.98
  -2   9  13   26.90    9.50
   2  -9  13    6.30    7.67
  -1   9 -13   -0.43    6.20
   1  -9 -13   -0.54    3.77
   9   1 -13    2.47    3.43
   1  -9 -13    4.67    2.24
   1  -9  13    2.57    4.37
  -1   9  13    4.22    6.65
   1  -9  13    0.13    5.27
   9   0 -13   28.34    8.40
   0   9 -13   24.19    9.99
   0  -9 -13   27.00    8.71
   0  -9 -13   24.70    9.60
   0  -9 -13   31.81    7.21
   0  -9  13   33.14    7.81
   0   9  13   24.90   11.78
   0  -9  13   51.08   10.02
   1   9 -13    2.60    4.77
  -1  -9 -13    3.67    2.32
   9  -1 -13   -0.48    3.73
  -1  -9  13    0.16    6.95
  -9   1  13    0.20    3.66
  -1  -9  13    1.48    3.84
   2   9 -13   21.85    7.62
   9  -2 -13   21.53    6.44
  -9   2  13   19.05    6.88
  -2  -9  13   17.39    6.07
  -2  -9  13   17.21   10.04
   3   9 -13   -2.73    8.08
   9  -3 -13   -2.32    3.89
   3   9 -13    0.57    5.38
   9  -3 -13   -1.99    4.10
  -9   3  13   -0.62    3.86
  -3  -9  13   -5.24    4.19
   4   9 -13   40.42   13.64
   9  -4 -13   43.93   10.60
   4   9 -13   33.65   14.05
   9  -4 -13   47.28   11.31
  -9   4  13   57.85   11.29
  -4  -9  13   30.46   11.00
  -4  -9  13   43.23   14.22
   9  -5 -13   -0.29    4.20
   5   9 -13    0.34    7.00
   5   9 -13    1.68    7.65
   9  -5 -13    0.17    3.73
  -5  -9  13    4.21    4.59
  -5  -9  13    1.15    7.51
   6   9 -13    2.43    7.79
   9  -6 -13  -10.58    4.32
   6   9 -13   -2.86    7.69
  -6  -9  13    0.53    4.98
  -6  -9  13   -3.60    7.92
   7   9 -13    5.76    7.92
  -7  -9  13    2.68    5.59
   9  -8 -13   -3.90    5.26
  -8  -9  13    0.41    5.86
  -9   8  13    0.25    4.55
   9  -9 -13    3.78    4.74
   9  -9 -13    7.12    5.48
  -9   9  13   -0.77    5.46
   9 -10 -13    1.06    5.26
   9 -10 -13    5.05    4.98
  -9  10  13    2.45    5.27
   8 -10 -13   31.27    6.54
   6 -10 -13    8.60    5.11
   6 -10 -13    8.79    4.82
  -6  10  13   20.56    5.77
  -6  10  13   18.62    6.87
   5 -10 -13    9.91    5.17
   5 -10 -13   22.21    5.70
  -5  10  13   17.96    6.08
  -5  10  13   15.59    7.33
   4 -10 -13    7.75    4.37
   4 -10 -13    6.39    3.59
  -4  10  13   11.13    4.42
  -4  10  13    9.73    6.32
   3 -10 -13   28.37    7.91
   3 -10 -13   21.02    7.16
  -3  10  13   35.41   10.45
   2 -10 -13    2.60    2.71
  -2  10 -13    9.60    6.76
   2 -10 -13    4.52    4.05
  -2  10  13    0.67    6.63
   2 -10  13    1.18    5.52
  -1  10 -13    2.92    6.35
   1 -10 -13   -0.14    2.50
   1 -10 -13    0.77    4.08
   1 -10  13   -6.78    5.96
   1 -10  13    0.21    4.55
  -1  10  13   -1.51    7.15
   0 -10 -13   -0.55    2.50
   0  10 -13   -4.08    5.87
   0 -10 -13   -1.20    5.35
   0 -10  13    3.37    4.24
   0 -10  13    9.63    6.96
   0  10  13    6.74    7.28
  -1 -10 -13   -1.32    2.56
   1  10 -13   -4.97    5.44
  -1 -10 -13   -1.93    6.09
  -1 -10  13    7.94    7.64
  -1 -10  13   -0.16    3.97
   2  10 -13   11.34    5.71
  -2 -10  13  -11.95    8.58
  -2 -10  13    0.31    3.98
   3  10 -13   27.13   12.79
   3  10 -13   46.76   10.30
  -3 -10  13   29.26   12.00
  -3 -10  13   25.61    8.09
   4  10 -13   10.63    7.19
   4  10 -13    0.26    8.59
  -4 -10  13    2.77    4.84
  -4 -10  13   -3.47    8.74
   5  10 -13   14.81    9.26
   5  10 -13   12.54    9.86
  -5 -10  13   20.91    6.59
  -5 -10  13   21.11    9.56
   6  10 -13    8.35    8.90
   6  10 -13   19.73    9.41
  -6 -10  13    6.67    5.87
 -10   6  13    0.25    5.26
  -6 -10  13   14.30    9.16
   7  10 -13    0.31    8.51
  10  -7 -13   -3.49    4.67
   7  10 -13   -0.68    9.98
  -7 -10  13   -1.25    5.86
 -10   7  13   -0.26    4.69
  -7 -10  13   12.53    9.07
  10  -8 -13  -14.36    5.26
 -10   8  13  -10.46    6.07
  -8 -10  13  -15.50    7.01
  10  -9 -13    0.22    4.92
 -10   9  13    0.29    5.56
  10 -10 -13   -0.23    5.33
 -10  10  13   -0.30    5.54
  10 -11 -13    0.24    5.61
   9 -11 -13   -2.42    5.21
   9 -11 -13   -4.45    5.45
  -9  11  13   -2.04    6.95
  -9  11  13    1.72    5.80
   8 -11 -13    2.65    5.42
   8 -11 -13    0.21    5.07
  -8  11  13    8.18    7.00
  -8  11  13    5.47    5.57
   7 -11 -13   -5.23    5.39
  -7  11  13    0.24    5.16
   5 -11 -13    2.18    3.88
   5 -11 -13    3.94    4.48
  -5  11  13    1.68    4.58
  -5  11  13    3.24    6.43
   4 -11 -13    3.52    4.32
   4 -11 -13    4.84    4.03
  -4  11  13   12.40    4.89
  -4  11  13    4.88    6.64
   3 -11 -13   -0.68    3.24
   3 -11 -13    3.25    4.36
  -3  11  13    3.64    4.34
  -3  11  13    5.08    6.93
  -2  11 -13   -2.16    7.27
   2 -11 -13    2.96    3.03
   2 -11 -13   -0.58    4.37
   2 -11  13   -0.17    6.14
  -2  11  13   -0.18    7.31
   1 -11 -13   -1.83    4.19
  -1  11 -13    1.20    7.25
   1 -11 -13    0.59    2.75
   1 -11  13    4.55    7.20
  -1  11  13    0.41    7.59
   1 -11  13    0.21    4.69
   0  11 -13    3.44    6.36
   0 -11 -13    2.75    2.76
   0 -11 -13   -1.08    5.62
   0  11  13    0.68    7.84
   0 -11  13   -5.12    7.51
   0 -11  13   -0.19    4.44
   1  11 -13   -3.40    6.22
  -1 -11 -13    1.56    6.60
  -1 -11 -13   -0.15    2.84
  -1 -11  13   -7.29    4.31
  -1 -11  13  -12.57    8.78
   2  11 -13    0.17    6.16
   2  11 -13    1.18   10.52
  -2 -11  13  -11.61    9.42
  -2 -11  13    2.61    4.41
   3  11 -13    1.79   10.04
   3  11 -13   -1.12    7.25
  -3 -11  13    7.77    9.43
  -3 -11  13    3.83    4.69
   4  11 -13   -1.19   10.25
   4  11 -13    1.41    8.30
  -4 -11  13    0.69    9.31
  -4 -11  13    2.14    5.16
   5  11 -13    2.17    9.01
   5  11 -13    7.11    9.71
  -5 -11  13    5.91    5.80
  -5 -11  13   -1.19    9.29
   6  11 -13   -3.75    9.66
   6  11 -13    1.93    9.98
  -6 -11  13   -5.88    6.22
   7  11 -13   13.21    8.54
   7  11 -13   -1.49   10.74
  -7 -11  13   -6.67    6.65
  10 -12 -13  -11.79    6.14
 -10  12  13   17.80    8.26
   9 -12 -13    5.89    6.04
   9 -12 -13   11.51    5.89
  -9  12  13    0.30    6.33
  -9  12  13    3.05    7.84
   8 -12 -13    0.22    5.29
   8 -12 -13    2.47    5.69
  -8  12  13   -7.82    7.66
  -8  12  13   -1.94    5.53
   7 -12 -13    4.71    6.09
   7 -12 -13    1.04    5.97
  -7  12  13    2.68    8.20
  -7  12  13    3.29    6.17
   6 -12 -13   -0.28    4.73
  -6  12  13    2.13    5.20
   4 -12 -13   22.28    6.51
   4 -12 -13    4.70    5.77
  -4  12  13   20.05    6.77
  -4  12  13   33.26    9.43
   3 -12 -13   -3.68    4.42
   3 -12 -13    1.12    3.55
  -3  12  13    3.61    7.36
  -3  12  13    4.02    4.38
   2 -12 -13    5.70    4.77
   2 -12 -13    6.83    3.54
  -2  12  13    7.56    8.13
   2 -12  13    7.46    7.40
   1 -12 -13   -4.70    4.51
   1 -12 -13    3.18    3.21
  -1  12  13   11.62    8.26
   0 -12 -13    0.15    3.15
  -1 -12 -13    4.92    6.97
  -1 -12 -13    2.07    2.96
  -6 -12  13   -8.65   10.83
   7  12 -13   -0.37   11.56
  -7 -12  13   65.70    8.30
  -7 -12  13    0.29   11.39
   8  12 -13  -28.07   12.26
  -8 -12  13   -2.82    6.97
  10 -13 -13    6.14    6.33
 -10  13  13    4.80    8.74
   9 -13 -13   -3.68    6.11
   9 -13 -13   -0.24    6.04
  -9  13  13    9.35    6.62
  -9  13  13    0.19    8.33
   8 -13 -13    4.43    7.36
   8 -13 -13    2.97    7.10
  -8  13  13   31.03    8.08
   7 -13 -13   -2.30    5.36
   7 -13 -13    1.51    5.18
  -7  13  13   14.83    7.75
  -7  13  13   -6.64    5.81
   6 -13 -13    1.15    5.01
   6 -13 -13    1.02    4.97
  -6  13  13    2.23    5.49
  -6  13  13    1.57    7.42
  -5  13  13    6.80    5.46
  -3  13  13    2.92    8.39
   3 -13  13  -16.43    7.74
  -3  13  13   20.91    4.87
  -2  13 -13    4.62    8.75
  -2  13  13   -3.21    8.55
   2 -13  13    1.26    8.04
   2 -13  13    0.28    6.09
  -1  13 -13   -0.81    8.40
   1 -13  13   -3.83    9.12
   1 -13  13    5.03    5.55
   0  13 -13   -1.42    7.59
   0 -13  13   -0.25    9.83
   0 -13  13   -0.23    5.41
  -1 -13 -13    3.81    7.80
   1  13 -13    0.23    8.19
  -1 -13  13  -10.87   11.40
  -1 -13  13   -0.22    5.46
   2  13 -13  -15.18    8.79
   2  13 -13   -2.25   12.96
  -2 -13  13  -10.36   12.46
  -2 -13  13   -2.85    5.55
   3  13 -13   -6.57    9.33
   3  13 -13  -11.82   12.62
  -3 -13  13  -22.07    6.20
  -3 -13  13   -2.01   12.54
   4  13 -13   -0.38   12.87
   4  13 -13   15.31   10.66
  -4 -13  13   -6.93   12.16
  -4 -13  13    7.98    6.32
   5  13 -13    3.01   11.40
   5  13 -13   17.48   12.89
  -5 -13  13   -2.67   11.29
  -5 -13  13   14.17    7.23
   6  13 -13    3.16   11.48
   6  13 -13    6.47   12.50
  -6 -13  13   11.49    7.07
  -6 -13  13   15.12   11.65
   7  13 -13    7.03   11.94
   7  13 -13  -13.39   12.19
  -7 -13  13   30.54   11.18
  -7 -13  13  -12.70    7.49
   8  13 -13   21.33   13.82
  -8 -13  13   -0.28    8.63
  -9 -13  13   -3.13    8.47
   3 -14  13   -0.23    8.84
  -2  14 -13   11.38    9.81
   2 -14  13   -1.51    6.37
   2 -14  13   -8.18    9.89
  -1  14 -13   -3.87    9.25
   1 -14  13   13.35   10.57
   1 -14  13   11.00    6.31
   0  14 -13   -6.08    8.45
   0 -14  13   -7.20   11.37
   0 -14  13   -1.28    5.93
   1  14 -13    4.06    8.92
   1  14 -13   14.74   13.75
  -1 -14  13   -6.84   12.08
  -1 -14  13   -7.88    5.98
   2  14 -13    1.67   14.48
   2  14 -13  -14.17    9.51
  -2 -14  13  -14.18    6.20
  -2 -14  13    9.32   12.56
   3  14 -13   16.38   10.33
   3  14 -13   10.24   14.27
  -3 -14  13    1.28   12.66
  -3 -14  13   -0.26    6.66
   4  14 -13    1.30   13.35
   4  14 -13   -3.74   11.38
  -4 -14  13   26.05   13.01
  -4 -14  13   -8.04    6.97
   5  14 -13    6.35   13.85
   5  14 -13   12.80   12.24
  -5 -14  13   -5.07    7.47
  -5 -14  13   15.69   13.11
   6  14 -13   61.06   17.99
   6  14 -13    2.73   17.41
  -6 -14  13   40.71   12.51
  -6 -14  13   51.30   17.35
   7  14 -13    1.85   12.81
   7  14 -13  -16.25   13.60
  -7 -14  13  -10.47   12.34
  -7 -14  13   -2.92    7.69
   8  14 -13   32.97   14.08
   8  14 -13    2.37   12.16
  -8 -14  13    0.30    8.33
   9  14 -13   -9.99   13.76
  -9 -14  13   17.05    8.45
  -3  15 -13   -1.92   13.69
   3 -15  13   15.51   13.05
  -2  15 -13    2.20   11.29
   2 -15  13  -11.49   10.90
   2 -15  13    0.33    7.29
  -1  15 -13    5.28   11.09
   1 -15  13   -6.65    7.27
   1 -15  13  -20.53   12.05
   0  15 -13   11.26    9.26
   0 -15  13    4.34   12.36
   0 -15  13   -8.23    6.71
   1  15 -13   -7.16   10.57
   1  15 -13  -12.42   15.75
  -1 -15  13  -26.39    7.47
  -1 -15  13  -26.77   14.52
   2  15 -13    2.52   10.54
   2  15 -13  -12.57   17.02
  -2 -15  13  -24.38    7.33
   3  15 -13   36.95   16.94
   3  15 -13   85.47   21.76
   4  15 -13  -24.79   16.06
   4  15 -13   -7.37   12.47
  -4 -15  13    7.39    7.47
  -4 -15  13   -4.68   13.96
   5  15 -13   -6.14   15.34
   5  15 -13  -18.35   13.52
  -5 -15  13    0.37   14.07
  -5 -15  13    0.62    8.06
   6  15 -13   -0.70   13.71
   6  15 -13   -1.54   14.92
  -6 -15  13   -7.84    8.50
  -6 -15  13   29.97   14.18
   7  15 -13    3.89   14.24
   7  15 -13    2.07   14.55
  -7 -15  13   -6.92   13.74
  -7 -15  13   24.66    8.80
   8  15 -13   15.72   15.20
   8  15 -13   11.55   13.71
  -8 -15  13    8.69    8.98
   9  15 -13   48.12   23.21
  -9 -15  13   67.89   16.80
  -3  16 -13  -10.05   11.59
   3 -16  13    0.29   11.51
  -2  16 -13    7.69   12.15
   2 -16  13   -2.78   12.39
   2 -16  13   -5.40    7.56
  -1  16 -13   29.42   11.81
   1 -16  13    0.33    7.71
   1 -16  13   -9.42   13.26
   0  16 -13  -16.62   15.65
   0  16 -13   -7.98   11.36
   0 -16  13    3.78    7.23
   0 -16  13  -19.11   14.13
   1  16 -13   10.35   17.09
   1  16 -13   14.53   11.43
  -1 -16  13   14.99    7.99
  -1 -16  13   11.69   15.51
   2  16 -13   16.54   17.72
   2  16 -13    4.42   11.60
  -2 -16  13   10.65   15.74
  -2 -16  13    9.85    7.57
   3  16 -13    2.60   12.04
   3  16 -13    8.55   17.30
  -3 -16  13    8.59   15.49
  -3 -16  13   21.40    8.31
   4  16 -13    4.97   13.46
   4  16 -13   12.81   18.26
  -4 -16  13   -1.30    8.22
  -4 -16  13   -5.60   15.30
   5  16 -13  -25.92   17.91
   5  16 -13    8.96   14.49
  -5 -16  13  -23.75    9.11
  -5 -16  13   13.55   15.73
   6  16 -13  -14.99   17.14
   6  16 -13   18.28   15.72
  -6 -16  13   17.67    9.55
  -6 -16  13   21.88   15.64
   7  16 -13   38.63   41.69
  -7 -16  13  165.99   40.03
   8  16 -13   14.04   15.13
   8  16 -13  -13.13   15.50
  -8 -16  13   -6.22    9.07
   9  16 -13   -2.32   15.84
  -9 -16  13    6.98    9.39
  -3  17 -13  -33.19   15.86
   3 -17  13  -41.09   14.93
  -2  17 -13    2.25   13.46
   2 -17  13    3.97    8.49
   2 -17  13    5.55   13.87
  -1  17 -13  -12.36   13.11
   1 -17  13    9.66    8.30
   1 -17  13   16.02   15.46
   0  17 -13    0.78   12.56
   0  17 -13  -14.33   17.77
   0 -17  13    8.09   15.83
   0 -17  13    5.60    7.81
   1  17 -13   12.02   12.54
   1  17 -13   21.80   19.64
  -1 -17  13    0.35    8.28
  -1 -17  13    6.85   16.52
   2  17 -13   13.42   13.12
   2  17 -13  -19.38   18.82
  -2 -17  13    8.53    8.20
  -2 -17  13   10.49   17.05
   3  17 -13   -5.81   15.60
   3  17 -13  -39.90   21.43
  -3 -17  13  -49.49   19.40
   4  17 -13   47.97   52.17
   4  17 -13   89.46   47.41
   5  17 -13  -48.66   21.96
   5  17 -13  -21.08   16.96
  -5 -17  13  -12.40   10.31
   6  17 -13   21.39   18.82
   6  17 -13   -9.94   16.07
  -6 -17  13   -5.58    9.71
  -6 -17  13   23.33   16.87
   7  17 -13  -19.54   18.39
   7  17 -13    1.67   16.79
  -7 -17  13   -0.47   16.52
  -7 -17  13   20.87    9.90
   8  17 -13   -3.33   16.18
   8  17 -13  -49.75   17.19
  -8 -17  13   21.50    9.78
  -3  18 -13    4.09   14.45
   3 -18  13    2.61   14.92
  -2  18 -13   18.08   14.98
   2 -18  13    0.44    9.48
   2 -18  13    5.45   15.98
  -1  18 -13   -1.39   15.02
  -1  18 -13   26.65   18.83
   1 -18  13   11.19    9.63
   1 -18  13   29.35   16.90
   0  18 -13  -11.36   20.77
   0  18 -13  -34.38   16.34
   0 -18  13  -52.32   19.37
   0 -18  13  -26.84   10.88
   1  18 -13  -12.57   20.78
   1  18 -13   32.77   15.17
  -1 -18  13   -8.90   18.13
  -1 -18  13    0.39    9.39
   2  18 -13  -32.95   21.03
   2  18 -13    9.36   14.35
  -2 -18  13   -0.39    9.24
  -2 -18  13   21.63   18.99
   3  18 -13    6.05   21.37
   3  18 -13    6.93   14.57
  -3 -18  13    0.38    9.27
  -3 -18  13   13.84   18.81
   4  18 -13  -11.28   22.81
   4  18 -13   22.83   16.45
  -4 -18  13   24.20   10.57
  -4 -18  13   -5.42   18.67
   5  18 -13  -67.52   22.49
   5  18 -13   31.46   16.73
  -5 -18  13    0.40    9.58
  -5 -18  13   -7.62   19.17
   6  18 -13  -18.18   17.56
   6  18 -13   24.81   21.30
  -6 -18  13   -5.18   18.89
  -6 -18  13  -14.45   10.51
   7  18 -13  -28.57   20.16
   7  18 -13   -1.36   19.69
  -7 -18  13   10.44   10.71
  -7 -18  13  -19.26   18.05
   8  18 -13  -20.43   19.28
  -8 -18  13  -18.80   11.10
  -1  19 -13    6.05   17.49
   1 -19  13   27.36   11.12
   0  19 -13    0.63   17.75
   0  19 -13  -12.96   16.17
   0 -19  13   -0.89   10.14
   1  19 -13   19.66   16.98
  -1 -19  13    1.74   10.13
   2  19 -13  -14.03   22.12
   2  19 -13   -1.41   16.34
  -2 -19  13    0.43   10.11
   3  19 -13   19.05   16.56
  -3 -19  13    0.43   11.02
   0   0 -14   54.96   12.92
   0   1 -14   -1.40    1.85
   1   0 -14   -0.53    2.49
   1   0 -14    0.09    1.37
   0  -1 -14    0.23    1.76
  -1   0  14   -1.26    3.72
   0   1  14    0.14    3.91
   1  -1 -14   28.19    6.31
   1   1 -14   29.32    6.62
   1   1 -14   29.94    7.36
   1  -1 -14   27.82    7.11
  -1  -1  14   27.82    8.56
  -1   1  14   16.25    8.42
   2   1 -14    0.44    2.50
   1  -2 -14    4.78    2.81
   2   1 -14    1.11    1.41
   1  -2 -14    2.78    1.53
  -2  -1  14   -1.21    3.77
  -1   2  14    0.60    4.07
  -2  -1  14   -3.44    2.37
   2   0 -14    7.33    2.03
   0  -2 -14   11.71    2.33
   2   0 -14    5.89    2.84
   0   2 -14    4.79    2.45
  -2   0  14    4.19    2.19
  -2   0  14    5.43    3.88
   0   2  14    5.87    4.53
   2  -1 -14    1.91    1.49
   1   2 -14    1.10    3.06
   2  -1 -14    2.80    2.38
   1   2 -14    0.50    1.57
  -1  -2  14   -9.91    4.87
  -2   1  14    0.87    3.55
   2  -2 -14    1.90    1.52
   2   2 -14   -0.08    1.34
   2   2 -14   -2.46    2.72
   2  -2 -14    1.74    2.56
  -2  -2  14    4.64    4.08
  -2   2  14    2.75    3.76
  -2  -2  14   -3.39    2.99
   2  -3 -14   -3.28    2.59
   3   2 -14   -0.74    1.50
   3   2 -14   -0.73    2.00
   2  -3 -14   -0.57    1.57
  -2   3  14    1.68    3.58
  -3  -2  14   -3.35    2.78
  -3  -2  14    3.46    3.06
   1  -3 -14    0.79    1.65
   3   1 -14   -2.41    2.33
   3   1 -14   -0.34    1.55
   1  -3 -14   -0.84    2.82
  -1   3  14    1.24    4.16
  -3  -1  14   -6.09    2.29
  -3  -1  14   -5.93    3.34
   0  -3 -14   -2.09    2.97
   3   0 -14   -4.44    2.55
   0   3 -14   -4.54    2.25
   3   0 -14   -1.52    1.80
  -3   0  14   -4.11    3.57
   0   3  14   -1.02    4.67
   1   3 -14   -1.82    1.62
   3  -1 -14   -0.37    1.78
   3  -1 -14   -2.12    2.39
  -1  -3  14   -7.96    3.05
  -3   1  14   -3.64    3.48
   3  -2 -14    0.78    1.64
   3  -2 -14   -0.11    2.30
   2   3 -14    0.43    1.33
   2   3 -14   -3.53    2.65
  -2  -3  14   -2.16    3.53
  -3   2  14    0.18    3.31
  -2  -3  14    2.40    2.91
   3   3 -14   18.92    6.97
   3   3 -14   22.25    5.71
   3  -3 -14   25.13    5.64
   3   3 -14   20.34    5.78
   3  -3 -14   21.40    5.23
  -3  -3  14   26.70    6.68
  -3  -3  14   22.99    5.54
  -3  -3  14   21.12    6.73
  -3   3  14   19.52    6.71
   4   3 -14   29.91    7.19
   3  -4 -14   26.56    6.21
   4   3 -14   22.71    6.60
   4   3 -14   21.51    6.31
   4   3 -14   24.05    6.84
  -4  -3  14   25.27    6.99
  -4  -3  14   24.26    5.91
  -4  -3  14   29.49    8.14
  -4  -3  14   18.70    6.46
  -3   4  14   20.52    7.44
   4   2 -14   -1.42    1.99
   4   2 -14    1.90    1.77
   2  -4 -14    1.40    2.68
  -2   4  14   -0.23    4.02
  -4  -2  14    0.75    1.96
  -4  -2  14   -3.77    2.97
  -4  -2  14    1.93    1.48
   4   1 -14   18.87    5.47
   4   1 -14   26.65    5.58
   1  -4 -14   27.73    5.93
  -1   4  14   27.42    7.27
  -4  -1  14   33.96    6.16
  -4  -1  14   19.34    5.60
   0  -4 -14    1.63    1.89
   4   0 -14   -0.32    1.84
   4   0 -14    1.65    2.03
   0   4 -14   -1.38    1.80
   0  -4 -14   -0.50    3.19
   0   4  14    1.66    4.73
   0  -4  14   -0.07    2.54
  -4   0  14    0.11    2.23
  -4   0  14   -0.15    3.07
   4  -1 -14   24.17    5.77
   4  -1 -14   31.22    5.87
  -1  -4  14   33.39    6.67
  -4   1  14   27.99    6.53
   4  -2 -14    1.45    1.92
   2   4 -14    0.27    1.27
   4  -2 -14    0.75    2.33
  -4   2  14    1.38    3.21
   3   4 -14   42.13    6.67
   4  -3 -14   20.79    6.36
   4  -3 -14   20.03    6.19
   3   4 -14   28.16    6.62
  -3  -4  14   27.81    7.63
  -4   3  14   19.92    7.25
   4   4 -14   28.35    6.73
   4  -4 -14   19.59    6.31
   4   4 -14   29.92    6.37
  -4   4  14   26.37    7.31
  -4  -4  14   21.69    6.60
  -4  -4  14   24.47    7.04
   4  -5 -14   13.62    3.07
   5   4 -14    5.87    3.22
   5   4 -14    9.68    3.42
   4  -5 -14   11.47    3.68
  -5  -4  14    9.86    3.75
  -4   5  14    7.59    4.61
  -5  -4  14    6.24    3.27
   5   3 -14   22.80    6.98
   3  -5 -14   17.29    6.31
   5   3 -14   25.79    6.64
   3  -5 -14   26.01    5.86
  -5  -3  14   29.62    7.19
  -5  -3  14   19.60    6.87
  -3   5  14   26.82    7.76
   2  -5 -14   25.71    6.04
   2  -5 -14   27.01    5.26
   5   2 -14   22.04    6.31
   5   2 -14   25.65    5.98
  -5  -2  14   22.40    6.56
  -5  -2  14   19.62    6.23
  -2   5  14   19.08    7.58
   1  -5 -14   51.88   14.05
   5   1 -14   60.26   14.01
  -5  -1  14   63.28   14.96
  -1   5  14   63.79   16.84
   5   0 -14   -0.25    2.19
   5   0 -14   -1.43    2.40
   0  -5 -14    3.10    3.23
   0  -5 -14   -0.60    1.93
   0  -5  14   -1.75    3.16
   0   5  14    0.80    4.95
  -5   0  14   -0.78    3.04
  -5   0  14   -1.42    2.42
   1   5 -14   42.76   17.39
   5  -1 -14   50.12   13.69
   5  -1 -14   43.84   13.19
  -5   1  14   66.56   14.35
  -1  -5  14   59.40   15.44
   5  -2 -14   18.04    5.63
   2   5 -14   24.04    7.05
   5  -2 -14   18.44    5.69
  -5   2  14   26.77    5.83
  -5   2  14   18.77    6.37
  -2  -5  14   16.50    7.30
  -2  -5  14   19.30    5.62
   5  -3 -14   29.47    6.56
   3   5 -14   34.30    7.40
   5  -3 -14   23.79    6.63
  -5   3  14   25.76    6.78
  -3  -5  14   22.15    6.27
  -3  -5  14   21.32    8.28
  -5   3  14   26.05    7.38
   4   5 -14    8.02    3.12
   4   5 -14   15.07    4.95
   5  -4 -14    6.38    3.61
   4   5 -14   17.89    4.02
  -4  -5  14    0.31    5.37
  -4  -5  14    8.62    3.09
  -5   4  14    9.61    4.44
  -4  -5  14    8.30    3.22
   5   5 -14   31.61    9.26
   5   5 -14   28.77    8.23
   5  -5 -14   27.55    7.50
   5  -5 -14   19.82    7.29
   5   5 -14   34.45    7.80
   5   5 -14   41.11    8.79
  -5  -5  14   28.44    7.90
  -5   5  14   27.32    8.60
  -5  -5  14   33.60    7.40
  -5  -5  14   15.73   10.08
  -5   5  14   31.18    7.72
  -5  -5  14   32.53    8.20
   6   5 -14   -0.64    2.43
   5  -6 -14   -1.27    3.35
   6   5 -14   -0.09    2.38
   5  -6 -14    0.16    2.55
  -5   6  14   -0.79    3.50
  -6  -5  14    0.83    2.36
  -5   6  14    1.36    4.27
   6   4 -14   23.14    8.24
   4  -6 -14   21.94    7.52
   4  -6 -14   25.92    7.20
   6   4 -14   25.11    7.95
  -6  -4  14   35.29    7.97
  -4   6  14   40.71    8.88
  -6  -4  14   33.54    8.43
  -4   6  14   34.82    7.76
   6   3 -14   29.53    7.17
   3  -6 -14   28.32    6.89
   3  -6 -14   31.29    6.22
   6   3 -14   25.53    7.56
  -6  -3  14   21.05    7.23
  -6  -3  14   29.69    7.71
  -3   6  14   18.87    8.44
   2  -6 -14   27.74    5.12
   6   2 -14   22.86    5.97
   2  -6 -14   15.82    5.94
   6   2 -14   23.26    6.28
  -6  -2  14   20.80    6.16
  -2   6  14   22.44    7.58
   6   1 -14    4.00    2.93
   1  -6 -14    3.73    3.54
   1  -6 -14    5.96    2.38
   6   1 -14    4.42    2.79
  -1   6  14    4.61    5.36
   1  -6  14    5.52    3.67
  -6  -1  14    8.84    3.05
   6   0 -14   13.84    4.63
   0  -6 -14   12.84    3.74
   6   0 -14    9.37    4.37
   0  -6 -14   10.97    4.95
   0  -6  14   18.87    5.32
  -6   0  14   23.80    4.54
   0   6  14   10.33    6.92
   6  -1 -14    5.33    2.98
   6  -1 -14    9.48    3.08
   1   6 -14    2.42    4.38
  -1  -6  14    7.68    3.44
  -6   1  14    7.64    3.52
  -6   1  14    5.67    3.22
  -1  -6  14    5.92    4.50
   6  -2 -14   22.29    5.77
   2   6 -14   20.52    6.75
   6  -2 -14   21.82    5.51
  -6   2  14   18.79    6.22
  -2  -6  14   12.01    5.37
  -2  -6  14   22.22    7.50
  -6   2  14   19.66    5.83
   6  -3 -14   19.12    6.88
   6  -3 -14   22.05    6.70
   3   6 -14   31.70    8.81
   3   6 -14   28.34    7.59
  -6   3  14   33.83    6.97
  -3  -6  14   18.90    6.37
  -6   3  14   25.56    7.49
  -3  -6  14   24.48    8.82
   4   6 -14   34.77    8.32
   4   6 -14   24.43    8.80
   6  -4 -14   27.09    7.19
  -4  -6  14   21.52    9.46
  -4  -6  14   24.34    6.97
  -6   4  14   28.20    8.12
   6  -5 -14    1.43    3.21
   6  -5 -14   -0.14    2.94
   5   6 -14    3.35    5.51
   5   6 -14   -4.26    4.22
  -6   5  14    2.12    4.19
  -5  -6  14    4.60    5.77
  -5  -6  14   -5.93    3.16
  -6   5  14    2.28    3.07
   6  -6 -14   13.79    4.26
   6  -6 -14   11.80    4.19
  -6   6  14    6.87    5.44
  -6   6  14   11.33    4.69
   6  -7 -14    0.98    3.38
   6  -7 -14    0.78    3.72
  -6   7  14   -0.12    5.00
  -6   7  14   -0.73    3.79
   5  -7 -14   24.72    7.23
   7   5 -14   26.74    7.75
   5  -7 -14   35.60    6.95
  -5   7  14   25.48    8.41
  -5   7  14   30.21    7.43
   7   4 -14    2.46    2.94
   4  -7 -14    3.62    3.53
   4  -7 -14    5.02    2.75
  -7  -4  14    2.74    2.87
  -4   7  14    5.74    3.33
  -4   7  14    2.46    4.85
   7   3 -14   36.67    8.98
   3  -7 -14   31.74    7.52
   7   3 -14   31.33    9.22
   3  -7 -14   37.75    8.36
  -3   7  14   28.35   10.26
  -7  -3  14   27.01    8.93
   7   2 -14   18.65    5.01
   2  -7 -14   15.65    5.17
   2  -7 -14   14.95    4.16
   7   2 -14   19.53    5.33
  -7  -2  14   14.90    4.95
  -2   7  14   13.42    6.92
   1  -7 -14   45.69    9.87
   7   1 -14   40.78   11.43
   1  -7 -14   49.34   11.45
   7   1 -14   46.02   12.12
  -7  -1  14   59.57   11.64
   1  -7  14   31.15   12.18
  -1   7  14   40.40   14.33
   0   7 -14    2.33    4.78
   0  -7 -14   -0.68    4.16
   7   0 -14   -2.23    2.74
   7   0 -14   -2.48    3.18
   0  -7 -14    1.51    2.20
   0  -7 -14    0.95    3.48
  -7   0  14   -0.92    3.00
   0  -7  14   -1.31    4.27
   0  -7  14   -0.65    3.44
   0   7  14    3.43    5.92
   1   7 -14   41.50   13.57
   7  -1 -14   46.36   11.10
   7  -1 -14   63.12   11.96
  -1  -7  14   61.12   13.31
  -1  -7  14   35.88   10.79
  -7   1  14   32.23   11.52
   7  -2 -14    8.00    4.59
   7  -2 -14   17.91    5.16
   2   7 -14   13.17    5.65
  -7   2  14   22.60    5.13
  -2  -7  14   14.72    4.61
  -2  -7  14   19.32    7.23
   3   7 -14   38.03   10.94
   3   7 -14   28.45    9.38
   7  -3 -14   24.45    8.27
   7  -3 -14   49.53    8.86
  -7   3  14   37.45    8.76
  -3  -7  14   31.04    8.04
  -3  -7  14   38.55   11.07
   7  -4 -14    3.88    3.75
   4   7 -14    2.70    5.74
   7  -4 -14    1.54    3.28
   4   7 -14    4.46    4.54
  -4  -7  14   -1.25    5.98
  -4  -7  14    5.29    3.32
  -7   4  14    6.00    3.62
   7  -5 -14   19.14    7.01
   5   7 -14   21.32    8.65
   5   7 -14   22.56    8.80
   7  -5 -14   22.88    6.71
  -7   5  14   31.23    7.66
  -5  -7  14   22.00    6.92
  -5  -7  14   15.75    9.21
   7  -6 -14   -2.08    3.74
   7  -6 -14    1.54    3.78
  -6  -7  14   -3.42    6.72
  -7   6  14    1.50    3.80
  -6  -7  14    3.08    4.08
  -7   6  14    0.12    4.62
   7  -7 -14   14.71    5.35
   7  -7 -14   18.12    5.56
  -7   7  14    2.65    6.37
  -7   7  14   21.11    5.56
   7  -8 -14    2.25    4.32
  -7   8  14   -0.21    4.03
  -7   8  14    0.14    5.70
   6  -8 -14    8.87    3.71
   6  -8 -14    6.68    4.20
  -6   8  14    1.16    4.30
  -6   8  14    0.13    5.38
   5  -8 -14   -0.18    3.09
   5  -8 -14    0.16    3.76
  -5   8  14   -0.18    3.82
  -5   8  14   -0.78    5.33
   4  -8 -14   63.48   16.72
   8   4 -14   76.60   19.92
   4  -8 -14   71.71   17.46
  -4   8  14   79.32   20.44
   3  -8 -14    6.58    2.79
   8   3 -14    4.55    3.54
   3  -8 -14    5.53    3.85
  -3   8  14    3.22    5.81
   2  -8 -14   33.97    8.95
   2  -8 -14   45.55    7.83
   8   2 -14   32.45    9.31
  -2   8  14   34.52   11.43
  -8  -2  14   22.40    9.34
   8   1 -14   -0.14    3.19
   1  -8 -14    0.50    2.24
   1  -8 -14   -1.64    3.73
   8   1 -14   -0.48    3.28
   1  -8  14   -0.12    4.58
  -8  -1  14    1.57    3.29
  -1   8  14    2.10    6.20
   8   0 -14   35.59    9.56
   0  -8 -14   44.71    8.38
   8   0 -14   46.76   10.25
   0   8 -14   27.84   11.98
   0  -8 -14   45.02   10.12
   0  -8 -14   48.92   11.28
  -8   0  14   33.67    9.84
   0  -8  14   29.62    9.39
   0  -8  14   34.65   10.91
   0   8  14   22.74   13.03
   8  -1 -14    3.01    3.08
   1   8 -14    0.75    4.68
   8  -1 -14    1.73    3.87
  -1  -8  14   -4.10    5.52
  -1  -8  14    1.95    3.29
  -8   1  14    0.36    3.40
   8  -2 -14   33.91    9.35
   8  -2 -14   23.06    8.39
   2   8 -14   30.29    9.71
  -8   2  14   36.87    8.84
  -2  -8  14   47.72   11.46
  -2  -8  14   32.46    8.15
   3   8 -14    1.40    6.99
   8  -3 -14    4.49    3.59
   3   8 -14    4.35    4.45
   8  -3 -14    5.19    4.07
  -8   3  14    3.34    3.71
  -3  -8  14   10.62    3.62
  -3  -8  14    8.32    7.03
   4   8 -14   50.09   20.58
   8  -4 -14   98.71   17.10
   8  -4 -14   92.52   18.15
   4   8 -14   54.62   20.18
  -4  -8  14   55.33   17.10
  -4  -8  14   97.77   21.44
   5   8 -14    2.32    6.70
   8  -5 -14   -0.32    3.82
   5   8 -14    2.68    5.66
  -5  -8  14   -2.22    7.07
  -5  -8  14   -1.92    3.92
   6   8 -14    6.36    6.95
   8  -6 -14    0.17    3.90
   8  -6 -14    9.44    4.45
   6   8 -14    2.79    6.71
  -6  -8  14    7.71    7.90
  -8   6  14    4.51    4.30
  -6  -8  14    3.80    4.60
   8  -7 -14    1.75    4.23
   8  -9 -14   -2.75    4.71
  -8   9  14   -0.15    5.33
  -8   9  14  -13.30    5.49
   6  -9 -14   13.14    5.14
   6  -9 -14   11.48    4.79
  -6   9  14    0.29    6.56
  -6   9  14   15.07    5.26
   5  -9 -14   18.20    5.00
   5  -9 -14   11.49    4.70
  -5   9  14    2.72    5.25
  -5   9  14   22.97    6.87
   9   4 -14    5.52    3.61
   4  -9 -14    1.16    3.64
   4  -9 -14    0.69    3.02
  -4   9  14    3.03    5.85
  -4   9  14    1.63    3.99
   3  -9 -14   64.35   13.27
   3  -9 -14   49.75   12.26
   9   3 -14   39.69   14.40
  -3   9  14   64.17   16.22
   2  -9 -14   -1.69    2.49
   2  -9 -14   -4.01    3.92
   9   2 -14   -0.77    3.66
  -2   9  14   -6.88    6.55
   9   1 -14   19.60    6.64
   1  -9 -14   27.93    5.36
   1  -9 -14   26.68    6.75
  -1   9 -14   13.09    9.05
   1  -9  14    6.24    7.61
  -1   9  14   20.86    9.46
   9   0 -14   -1.59    3.87
   0  -9 -14    0.42    2.27
   0   9 -14   -1.39    5.94
   0   9  14   -0.21    7.15
   0  -9  14    0.15    6.01
  -9   0  14   -6.13    3.93
   0  -9  14   -1.05    4.33
   9  -1 -14   31.44    6.87
   9  -1 -14   26.93    7.11
   1   9 -14   22.10    8.02
  -1  -9  14   18.61    6.45
  -1  -9  14   24.85    9.41
  -9   1  14   21.72    7.02
   9  -2 -14   -1.32    3.66
   2   9 -14   -4.00    5.07
   9  -2 -14   -3.98    4.51
  -2  -9  14  -12.76    7.61
  -2  -9  14   -2.50    3.73
  -9   2  14   -3.51    3.90
   3   9 -14   46.48   14.39
   9  -3 -14   59.90   13.44
   9  -3 -14   62.08   12.51
   3   9 -14   47.99   16.79
  -9   3  14   41.68   13.04
  -3  -9  14   58.15   16.52
  -3  -9  14   44.55   12.09
   4   9 -14    1.67    5.83
   9  -4 -14   -0.29    4.47
   4   9 -14   -1.14    7.78
   9  -4 -14    5.31    3.97
  -9   4  14    0.43    4.21
  -4  -9  14    0.36    7.86
  -4  -9  14    3.83    4.08
   5   9 -14   15.17    7.54
   9  -5 -14    9.15    4.80
   5   9 -14    8.65    8.35
  -5  -9  14    1.53    8.23
  -5  -9  14   10.52    5.11
   6   9 -14   16.74    8.56
   6   9 -14    9.27    8.53
  -6  -9  14   15.51    5.93
  -6  -9  14   14.45    8.85
   9  -7 -14   -6.40    5.31
  -7  -9  14    1.39    8.01
  -7  -9  14    4.50    5.50
  -9   7  14    0.48    4.83
   9  -8 -14    2.74    4.41
   9  -8 -14   -9.98    5.32
  -9   8  14   -0.25    5.01
   9  -9 -14   -5.55    5.42
   9  -9 -14   -0.21    4.77
  -9   9  14    0.26    5.27
   9 -10 -14   -5.80    5.48
   9 -10 -14    0.43    5.20
  -9  10  14    0.28    5.69
  -9  10  14    2.86    7.05
   8 -10 -14   -2.25    5.25
   8 -10 -14    0.20    4.70
  -8  10  14    1.62    7.06
  -8  10  14   -8.03    5.34
   7 -10 -14   -0.28    4.63
  -7  10  14    0.23    5.52
   5 -10 -14    6.27    3.99
   5 -10 -14    3.95    4.39
  -5  10  14   -3.57    4.78
  -5  10  14    4.45    6.40
   4 -10 -14   14.60    5.93
   4 -10 -14   21.49    6.52
  -4  10  14   28.46    6.83
  -4  10  14   24.33    8.71
   3 -10 -14    8.38    4.35
   3 -10 -14    2.81    3.38
  -3  10  14    6.96    6.70
   2 -10 -14    1.56    4.94
   2 -10 -14   11.93    3.74
   2 -10  14   16.07    6.27
  -2  10  14   11.35    7.83
   1 -10 -14    1.31    2.61
   1 -10 -14   -1.65    4.14
  -1  10 -14    1.91    6.68
  -1  10  14   -1.02    7.79
   1 -10  14   -0.15    5.99
   1 -10  14   -0.65    4.61
   0  10 -14    1.01    6.18
   0 -10 -14   -2.77    2.92
   0 -10  14   -0.50    6.85
   0 -10  14    2.45    4.17
   0  10  14   -1.56    7.69
  -1 -10 -14   -0.31    2.96
   1  10 -14    4.78    5.71
  -1 -10  14   -0.17    3.84
  -1 -10  14    6.57    7.63
   2  10 -14    9.95    6.24
  -2 -10  14   11.22    8.94
  -2 -10  14   12.48    4.75
   3  10 -14    1.60    9.25
   3  10 -14    4.10    5.91
  10  -3 -14    5.25    4.26
  -3 -10  14    5.54    4.32
  -3 -10  14   -3.87    8.70
   4  10 -14   14.72   10.17
   4  10 -14   22.16    8.87
  -4 -10  14   17.45    6.34
  -4 -10  14   13.99   10.19
   5  10 -14    5.48    7.55
   5  10 -14    3.83    8.95
  -5 -10  14    2.34    5.12
  -5 -10  14   12.62    8.56
   6  10 -14    0.62    8.53
   6  10 -14    2.29    8.49
  10  -6 -14   13.70    4.58
 -10   6  14   -1.29    4.80
  -6 -10  14    2.04    8.58
  -6 -10  14    0.39    5.40
  10  -7 -14    0.21    4.74
  10  -7 -14    4.68    5.43
 -10   7  14    0.27    5.45
  -7 -10  14    2.48    5.99
  10  -8 -14    1.93    5.20
  10  -8 -14    1.12    5.89
 -10   8  14   -0.28    5.39
  10  -9 -14    0.22    4.90
 -10   9  14    0.58    5.33
  10 -10 -14    0.23    5.47
 -10  10  14   -0.31    5.64
  10 -11 -14   -7.36    6.01
 -10  11  14   -3.04    7.99
 -10  11  14    2.28    6.99
   9 -11 -14    0.77    6.23
   9 -11 -14    0.23    5.58
  -9  11  14    7.84    7.34
  -9  11  14    2.94    6.16
   8 -11 -14    8.93    5.55
   8 -11 -14   -3.10    5.34
  -8  11  14   -1.07    5.69
  -8  11  14   -7.44    7.56
   7 -11 -14    3.76    5.07
   7 -11 -14    3.03    5.19
  -7  11  14   -1.49    5.22
  -7  11  14   -4.68    7.13
  -6  11  14    5.86    5.43
   4 -11 -14    3.19    4.03
   4 -11 -14    0.93    4.43
  -4  11  14    2.56    6.80
  -4  11  14    9.73    4.67
   3 -11 -14    3.93    4.63
   3 -11 -14    9.27    3.57
  -3  11  14   -6.34    7.26
  -3  11  14    2.87    4.64
   2 -11 -14   -3.52    4.47
   2 -11 -14    0.65    2.94
  -2  11  14   -6.78    7.88
   1 -11 -14    1.88    3.11
  -1  11 -14   -0.26    7.30
   1 -11 -14   -0.22    4.49
   1 -11  14   -3.69    5.14
  -1  11  14    1.32    8.00
   0  11 -14   -3.28    6.59
   0 -11 -14   -0.46    2.92
   0 -11  14    2.16    4.45
   0 -11  14   -2.46    7.92
  -1 -11 -14    4.42    3.07
   1  11 -14   -4.36    6.68
  -1 -11 -14   -6.04    7.24
  -1 -11  14   -3.12    8.65
  -1 -11  14    0.37    4.55
   2  11 -14    8.11   10.98
   2  11 -14   -3.44    6.25
  -2 -11  14   -8.96    9.61
  -2 -11  14   -6.84    4.56
   3  11 -14    6.65   10.43
   3  11 -14    5.40    6.64
  -3 -11  14    8.97    9.59
  -3 -11  14  -14.32    4.95
   4  11 -14   -0.20    8.03
   4  11 -14   -3.31   10.34
  -4 -11  14   -7.65    9.38
  -4 -11  14   -2.28    5.07
   5  11 -14   -3.73   10.63
   5  11 -14   -2.15    9.20
  -5 -11  14  -21.78   10.27
  -5 -11  14  -11.11    6.41
   6  11 -14    5.14    9.98
   6  11 -14    8.56    9.94
  -6 -11  14   38.52   10.60
  -6 -11  14   -1.50    6.64
   7  11 -14   -5.19   10.21
  -7 -11  14    1.35    6.26
  11 -12 -14    0.55    6.67
 -11  12  14    7.28    9.27
  10 -12 -14  -12.01    6.31
 -10  12  14    4.20    8.52
 -10  12  14   11.69    6.76
   9 -12 -14   16.90    6.68
   9 -12 -14    4.80    6.86
  -9  12  14    0.31    6.93
  -9  12  14   33.59    9.34
   8 -12 -14   -0.23    5.56
   8 -12 -14    2.89    6.12
  -8  12  14    7.75    7.78
  -8  12  14   -0.57    6.09
   7 -12 -14    6.99    5.67
   7 -12 -14    3.19    5.96
  -7  12  14   -0.53    8.17
  -7  12  14   -3.93    5.78
   6 -12 -14    2.08    4.96
   6 -12 -14    1.38    4.98
  -6  12  14    4.45    5.46
  -6  12  14   -4.58    7.41
  -5  12  14    0.94    5.54
   3 -12 -14   12.52    4.59
   3 -12 -14    6.44    5.67
  -3  12  14   14.19    9.32
  -3  12  14   21.15    6.15
   2 -12 -14   -2.83    3.45
   2 -12 -14   -1.97    5.22
  -2  12 -14   19.85    7.83
   2 -12  14   -9.19    7.36
  -2  12  14   -0.64    8.44
   1 -12 -14   -8.23    4.99
   1 -12 -14   -0.51    3.41
  -1  12  14    1.41    8.92
   1 -12  14  -15.47    8.28
   0 -12 -14   -0.66    3.11
  -1 -12 -14   -3.91    3.28
   6  12 -14    0.36   11.25
  -6 -12  14   -4.42   10.16
   7  12 -14   62.71   11.97
   7  12 -14   -4.45   11.02
  -7 -12  14  -18.27   11.63
  -7 -12  14   51.59    7.96
  11 -13 -14   12.24    7.45
 -11  13  14    7.40    9.93
  10 -13 -14    9.86    6.60
 -10  13  14   -4.86    9.27
   9 -13 -14    0.42    6.41
   9 -13 -14   -0.25    6.05
  -9  13  14    8.53    7.04
  -9  13  14    0.20    8.45
   8 -13 -14   -3.12    6.11
   8 -13 -14   15.09    6.79
  -8  13  14    2.50    8.30
  -8  13  14    6.93    6.11
   7 -13 -14    0.34    5.65
   7 -13 -14    4.07    5.74
  -7  13  14  -22.54    6.85
  -7  13  14  -21.80    8.85
   6 -13 -14   12.10    5.22
   6 -13 -14   -3.95    5.50
  -6  13  14    0.26    5.74
  -6  13  14   15.11    8.28
   5 -13 -14    5.24    4.57
   5 -13 -14   -1.68    5.23
  -5  13  14    4.37    8.01
  -5  13  14    2.74    5.37
   4 -13 -14   -0.23    4.17
  -4  13  14   -2.91    5.29
  -2  13 -14   -0.32    9.05
   2 -13 -14    5.74    4.82
  -2  13  14    0.46    8.94
   2 -13  14  -17.50    8.45
  -1  13 -14   -9.07    8.67
   1 -13  14   -4.03    5.99
  -1  13  14    3.49    9.10
   1 -13  14   -5.84    9.23
   0  13 -14    0.51    8.17
   0 -13  14   -2.61    5.58
   0 -13  14   -6.86    9.87
   1  13 -14   -2.51    7.67
  -1 -13  14    8.64    5.73
  -1 -13  14    0.26   11.23
   2  13 -14    2.64   13.35
   2  13 -14   -5.17    8.45
  -2 -13  14    5.94    5.54
  -2 -13  14  -15.41   11.90
   3  13 -14   17.02   13.46
   3  13 -14   -5.69    8.74
  -3 -13  14   -4.61   11.94
  -3 -13  14   -0.68    5.89
   4  13 -14  -11.16   10.00
   4  13 -14   -5.44   12.93
  -4 -13  14   12.88    6.50
  -4 -13  14    5.82   11.72
   5  13 -14    2.81   12.43
   5  13 -14    5.17   11.04
  -5 -13  14    1.79   11.29
  -5 -13  14    3.03    6.46
   6  13 -14   -4.07   11.90
   6  13 -14    4.04   11.89
  -6 -13  14  -11.93    6.99
  -6 -13  14    0.61   11.47
   7  13 -14    2.99   12.55
   7  13 -14    4.13   11.78
  -7 -13  14   -6.03   11.85
  -7 -13  14   -4.85    7.64
  -8 -13  14    0.28    7.85
  11 -14 -14  -14.71    7.83
 -11  14  14  -14.33   10.67
  10 -14 -14    9.14    8.21
 -10  14  14   33.41   11.29
  -9  14  14   -6.53    9.03
  -9  14  14    1.38    6.79
  -8  14  14    1.90    6.33
  -2  14 -14   16.59    9.35
   2 -14  14    1.43    9.16
   2 -14  14    0.62    6.25
  -1  14 -14   12.82    9.69
   1 -14  14    0.84    6.06
   1 -14  14   -7.92   10.22
   0  14 -14    5.90    9.04
   0 -14  14   10.73    6.54
   0 -14  14   -5.79   11.55
   1  14 -14    9.49    8.92
   1  14 -14    6.02   14.23
  -1 -14  14   -7.85    5.97
  -1 -14  14    1.48   12.13
   2  14 -14    6.10    9.11
   2  14 -14    5.49   14.60
  -2 -14  14  -15.23   12.95
  -2 -14  14    3.44    5.96
   3  14 -14   -8.74    9.72
   3  14 -14   13.41   14.47
  -3 -14  14   -0.25    6.45
  -3 -14  14   44.56   13.37
   4  14 -14    7.89   13.96
   4  14 -14    2.84   10.89
  -4 -14  14    8.50    6.80
  -4 -14  14    9.71   12.89
   5  14 -14  -24.46   12.63
   5  14 -14    4.54   14.33
  -5 -14  14   13.63    7.85
  -5 -14  14  -38.82   13.40
   6  14 -14   18.10   13.09
   6  14 -14   -4.13   13.45
  -6 -14  14    3.73    7.42
  -6 -14  14  -20.05   13.14
   7  14 -14   18.94   13.36
   7  14 -14   38.58   13.59
  -7 -14  14  -17.45   12.95
  -7 -14  14   -4.37    7.93
   8  14 -14    0.33   13.93
  -8 -14  14  -17.07    8.07
  -2  15 -14   -9.72   10.87
   2 -15  14    6.72    7.52
   2 -15  14   -1.09   11.10
  -1  15 -14   27.66   13.14
   1 -15  14    2.59   12.99
   1 -15  14    2.15    8.27
   0  15 -14   21.34   16.38
   0 -15  14   67.80   18.46
   0 -15  14   49.03   12.52
   1  15 -14   47.20   18.51
   1  15 -14   54.59   13.48
  -1 -15  14   28.48    9.98
  -1 -15  14   22.39   16.14
   2  15 -14  -34.76   17.24
   2  15 -14  -19.51   11.00
   3  15 -14   -1.46   16.25
   3  15 -14    4.92   10.55
  -3 -15  14    1.41    6.97
  -3 -15  14    6.01   14.26
   4  15 -14   -0.50   16.20
   4  15 -14   11.21   12.15
  -4 -15  14   15.88    7.79
  -4 -15  14    0.36   14.67
   5  15 -14   -8.12   13.28
   5  15 -14  -14.48   16.38
  -5 -15  14   12.50    7.77
  -5 -15  14   -6.71   13.96
   6  15 -14    2.58   15.09
   6  15 -14   11.20   13.98
  -6 -15  14    7.61   13.89
  -6 -15  14  -16.78    8.47
   7  15 -14   -6.11   14.62
   7  15 -14    5.70   14.61
  -7 -15  14   12.32   13.53
  -7 -15  14   -4.43    8.31
   8  15 -14  -13.03   14.94
   8  15 -14  -19.40   14.13
   3 -16  14   -0.29   11.55
  -2  16 -14   14.81   12.28
   2 -16  14    7.72   12.94
   2 -16  14   16.92    8.38
  -1  16 -14    3.94   12.08
   1 -16  14   -3.73    7.35
   1 -16  14    3.56   12.88
   0  16 -14   24.66   12.26
   0  16 -14    8.80   16.99
   0 -16  14    6.77    7.98
   0 -16  14    8.62   14.25
   1  16 -14   12.49   11.68
   1  16 -14    6.92   17.25
  -1 -16  14   -0.31    7.30
  -1 -16  14   -1.45   14.87
   2  16 -14   33.01   12.03
   2  16 -14   12.42   18.18
  -2 -16  14   -0.31    8.27
  -2 -16  14   -8.36   16.13
   3  16 -14   -0.33   11.92
   3  16 -14  -23.19   17.93
  -3 -16  14    0.31    7.70
  -3 -16  14   25.00   15.59
   4  16 -14    3.46   13.08
   4  16 -14   -5.62   18.39
  -4 -16  14    0.40   15.96
  -4 -16  14  -21.64    8.12
   5  16 -14   13.96   18.06
   5  16 -14   -7.40   14.25
  -5 -16  14  -27.24   16.14
  -5 -16  14   11.01    8.09
   6  16 -14  -38.40   20.44
   7  16 -14  -22.14   16.91
   7  16 -14    5.84   15.77
  -7 -16  14    6.23    9.43
   8  16 -14   -4.10   15.37
   8  16 -14   -0.78   16.12
  -8 -16  14  -17.27    9.39
   3 -17  14  216.47   53.75
  -1  17 -14  -44.92   15.64
   1 -17  14  -20.26   16.64
   1 -17  14  -21.11    9.69
   0  17 -14    2.05   18.78
   0  17 -14   -1.19   13.70
   0 -17  14  -32.95    9.67
   0 -17  14  -43.68   16.69
   1  17 -14    9.15   14.60
   1  17 -14  -45.70   19.98
   2  17 -14  -28.08   14.52
   2  17 -14    0.57   21.00
   3  17 -14  222.78   64.55
  -3 -17  14   63.51   44.07
   4  17 -14  -65.58   22.03
   4  17 -14  -19.59   15.41
  -4 -17  14    5.69    9.39
   5  17 -14  -10.98   15.77
   5  17 -14   -7.18   19.74
  -5 -17  14    3.19   16.91
  -5 -17  14   10.22    9.01
   6  17 -14    2.62   19.02
   6  17 -14   -8.85   16.46
  -6 -17  14    6.09   17.13
  -6 -17  14    1.48    9.79
   7  17 -14    2.97   17.66
   7  17 -14  -27.55   18.64
  -7 -17  14    0.38    9.84
  -7 -17  14   21.18   17.02
   8  17 -14    2.56   17.46
   8  17 -14   -0.66   17.21
  -8 -17  14   23.10   10.51
  -2  18 -14   -7.12   14.67
   2 -18  14   -7.17    9.56
   2 -18  14    0.39   15.56
  -1  18 -14  -12.37   14.91
  -1  18 -14  -13.36   18.92
   1 -18  14    0.41   16.19
   1 -18  14   18.90    9.40
   0  18 -14    0.47   14.79
   0  18 -14    7.96   19.22
   0 -18  14    0.40    9.19
   0 -18  14   -8.03   17.13
   1  18 -14   -5.59   14.52
   1  18 -14   -6.60   20.96
  -1 -18  14   27.84   18.46
  -1 -18  14    1.60    8.98
   2  18 -14   11.79   14.64
   2  18 -14   12.70   21.36
  -2 -18  14  -20.15   18.83
  -2 -18  14   14.30    9.33
   3  18 -14    4.92   14.97
   3  18 -14  -11.96   21.52
  -3 -18  14  -39.69   19.08
  -3 -18  14    7.73    9.73
   4  18 -14   22.71   22.75
   4  18 -14   48.33   16.50
  -4 -18  14   -3.51   10.61
  -4 -18  14    7.40   20.02
   5  18 -14   32.23   22.98
   5  18 -14  -17.01   16.69
  -5 -18  14   -5.09   19.42
  -5 -18  14   31.04   10.80
   6  18 -14    5.00   18.02
   6  18 -14   -7.34   21.68
  -6 -18  14   36.26   19.64
  -6 -18  14   15.26   10.97
   7  18 -14   -3.25   18.23
   7  18 -14   36.15   21.26
  -7 -18  14    4.69   18.13
  -7 -18  14   10.99   10.79
   8  18 -14   -0.74   14.19
   8  18 -14  -11.99   19.86
  -8 -18  14   25.13   10.80
   0   0 -15   -0.12    1.98
   0  -1 -15   80.58   19.68
   1   0 -15   97.57   21.21
   0   1 -15   66.44   21.02
   1   0 -15  103.03   19.79
  -1   0  15   89.72   24.09
   1   1 -15   -1.19    2.88
   1   1 -15   -0.67    1.59
   1  -1 -15   -0.10    1.72
   1  -1 -15    1.18    2.93
  -1   1  15   -3.99    4.30
  -1  -1  15   -1.28    4.08
   1  -2 -15    1.20    2.94
   2   1 -15    0.09    1.55
   2   1 -15    2.51    2.62
   1  -2 -15   -0.10    1.63
  -1   2  15   -1.99    4.32
  -2  -1  15    1.07    1.98
  -2  -1  15   -2.42    3.74
   0  -2 -15   -1.48    2.05
   0   2 -15   -1.74    2.02
   2   0 -15    2.02    2.54
   2   0 -15   -0.73    1.54
   0   2  15    3.64    4.65
  -2   0  15   -1.80    3.75
   2  -1 -15   -0.89    2.62
   2  -1 -15    0.85    1.65
   1   2 -15    1.11    1.50
  -1  -2  15   -1.28    4.07
  -2   1  15    0.99    3.92
  -1  -2  15   -0.44    2.10
   2   2 -15    0.25    1.50
   2  -2 -15   -0.88    1.59
   2  -2 -15   -0.26    2.74
   2   2 -15   -2.28    2.64
  -2  -2  15   -0.19    2.45
  -2  -2  15    4.33    3.92
  -2   2  15   -1.90    3.83
   2  -3 -15   -0.95    2.70
   3   2 -15    1.05    2.45
   3   2 -15   -0.09    1.54
   2  -3 -15    1.33    1.72
  -2   3  15   -1.18    4.07
  -3  -2  15    0.96    3.41
   3   1 -15   13.42    5.45
   1  -3 -15   24.69    5.09
   3   1 -15   20.30    5.64
   1  -3 -15   19.24    6.06
  -1   3  15   20.43    7.74
  -3  -1  15   24.29    6.67
   0  -3 -15    1.26    1.99
   3   0 -15   -0.38    1.65
   3   0 -15    0.11    2.30
   0   3 -15   -0.48    1.99
  -3   0  15    0.91    3.45
   0   3  15   -2.04    4.75
   3  -1 -15   19.42    5.94
   1   3 -15   26.58    6.19
   3  -1 -15   25.77    5.63
  -3   1  15   28.93    7.00
   3  -2 -15    0.31    1.68
   3  -2 -15    0.35    2.41
   2   3 -15    0.56    1.52
   2   3 -15    0.90    2.81
  -2  -3  15    0.67    2.98
  -3   2  15   -0.99    3.56
  -2  -3  15    0.86    4.04
   3  -3 -15   -0.61    2.52
   3   3 -15   -0.34    1.59
   3  -3 -15   -1.39    1.84
   3   3 -15    0.84    2.53
  -3  -3  15    1.69    2.04
  -3  -3  15    2.86    3.38
  -3  -3  15    1.34    3.43
  -3   3  15    0.84    3.79
   4   3 -15    8.74    3.11
   4   3 -15   10.32    2.86
   3  -4 -15    4.51    3.25
  -4  -3  15    4.24    2.98
  -3   4  15   14.29    4.76
  -4  -3  15   11.88    3.94
   4   2 -15   27.91    7.41
   2  -4 -15   26.01    7.26
   4   2 -15   25.99    7.11
  -4  -2  15   16.83    7.30
  -4  -2  15   38.32    7.99
  -2   4  15   21.66    8.87
   1  -4 -15    3.99    3.31
   4   1 -15    6.48    2.66
   4   1 -15    5.01    2.22
  -4  -1  15    1.38    3.47
  -1   4  15    6.41    4.92
  -4  -1  15    4.17    2.61
   4   0 -15    0.11    1.93
   4   0 -15   -0.53    2.28
   0   4 -15   -0.35    1.98
   0  -4 -15   -0.72    3.42
  -4   0  15   -1.18    3.17
   0  -4  15    1.24    2.66
   0   4  15   -0.16    5.01
   4  -1 -15    4.57    2.35
   4  -1 -15   10.03    2.99
   1   4 -15    4.13    2.07
  -4   1  15    7.38    3.68
  -1  -4  15    9.49    3.51
   4  -2 -15   24.37    7.46
   2   4 -15   36.12    8.61
   2   4 -15   37.39    7.70
   4  -2 -15   30.58    7.31
  -2  -4  15   30.87    9.74
  -4   2  15   35.01    8.38
   4  -3 -15    4.13    3.27
   4  -3 -15   10.74    2.93
   3   4 -15   10.78    2.71
   3   4 -15    8.67    3.31
  -3  -4  15    9.47    4.27
  -4   3  15    6.37    4.19
   4  -4 -15   -1.15    2.80
   4   4 -15    0.82    2.37
   4   4 -15   -0.92    1.86
  -4  -4  15   -0.64    2.16
  -4   4  15   -0.85    3.95
  -4  -4  15    4.10    3.16
   5   4 -15   15.28    4.26
   4  -5 -15   16.82    3.81
   5   4 -15   13.52    4.07
   4  -5 -15    8.30    4.26
  -5  -4  15   14.62    4.67
  -5  -4  15   14.76    4.16
  -4   5  15   10.73    5.50
   5   3 -15    4.10    2.47
   5   3 -15    5.09    2.62
   3  -5 -15    0.96    2.15
   3  -5 -15    1.36    3.03
  -5  -3  15    4.85    3.27
  -5  -3  15    3.63    2.61
  -3   5  15    2.90    4.71
   2  -5 -15    8.10    3.96
   5   2 -15    9.18    3.34
   2  -5 -15   10.23    2.78
   5   2 -15   11.76    3.33
  -5  -2  15    7.81    4.06
  -5  -2  15    7.88    3.43
  -2   5  15    6.09    5.29
   5   1 -15    9.27    4.10
   1  -5 -15   14.51    4.66
   1  -5 -15   13.17    3.51
   5   1 -15   12.75    4.16
  -1   5  15   14.92    6.35
  -5  -1  15   20.41    4.81
  -5  -1  15   13.41    4.27
   5   0 -15    8.65    2.83
   0  -5 -15    3.34    2.45
   0   5 -15    4.84    2.69
   5   0 -15   10.17    2.95
   0  -5 -15   10.00    3.90
  -5   0  15    9.09    3.71
  -5   0  15    7.68    3.07
   0  -5  15    6.39    3.70
   0   5  15    3.61    5.58
   5  -1 -15   13.13    4.27
   1   5 -15   14.95    3.99
   5  -1 -15   12.48    4.14
  -5   1  15   18.76    4.90
  -5   1  15    9.59    4.20
  -1  -5  15   17.69    5.18
   2   5 -15   13.14    4.67
   5  -2 -15   12.07    3.24
   5  -2 -15    8.54    3.48
   2   5 -15    6.41    2.83
  -2  -5  15   12.01    3.68
  -2  -5  15   11.59    4.85
  -5   2  15    9.50    3.60
  -5   2  15   13.13    4.34
   3   5 -15   15.11    2.95
   3   5 -15    3.97    2.05
   5  -3 -15    3.05    2.86
   3   5 -15    6.51    3.32
   5  -3 -15    5.17    2.93
  -3  -5  15    4.10    4.71
  -5   3  15    4.89    4.00
  -3  -5  15    5.00    4.00
  -5   3  15    4.84    3.26
  -3  -5  15    3.80    2.63
   5  -4 -15   18.35    4.42
   4   5 -15   11.98    3.94
   4   5 -15   13.75    3.98
  -4  -5  15   16.23    3.78
  -4  -5  15   11.44    5.05
  -5   4  15   14.58    4.50
  -4  -5  15   10.18    6.05
  -4  -5  15   10.55    3.93
  -5   4  15   12.57    5.20
   5   5 -15    0.70    2.42
   5   5 -15   -0.91    2.28
   5  -5 -15    1.40    3.18
   5  -5 -15    3.01    2.99
  -5   5  15    2.77    3.36
  -5   5  15   -2.15    4.44
   6   5 -15   17.80    6.71
   5  -6 -15   24.42    6.01
   5  -6 -15   21.62    6.34
  -5   6  15   23.08    6.40
  -5   6  15   19.21    7.65
   4  -6 -15   27.13    6.56
   4  -6 -15   18.76    6.07
   6   4 -15   21.33    7.06
   6   4 -15   22.28    6.78
  -6  -4  15   16.19    6.76
  -6  -4  15   26.19    7.29
  -4   6  15   32.77    8.01
   6   3 -15   14.36    4.85
   3  -6 -15   15.03    3.99
   3  -6 -15    7.68    4.70
   6   3 -15   18.24    4.54
  -3   6  15   15.70    6.31
  -6  -3  15   17.39    5.13
  -6  -3  15   10.55    4.62
   2  -6 -15   31.94    8.12
   2  -6 -15   39.47    7.05
   6   2 -15   21.68    8.24
   6   2 -15   33.65    8.70
  -6  -2  15   28.89    8.49
  -2   6  15   21.83   10.25
  -6  -2  15   39.44    8.90
   1  -6 -15   13.50    4.89
   6   1 -15   16.27    4.18
   1  -6 -15   10.96    3.44
   6   1 -15   16.63    4.41
  -6  -1  15   13.00    4.85
  -1   6  15    7.99    6.56
  -6  -1  15   13.56    4.28
   0  -6 -15    1.30    2.33
   0  -6 -15   -0.96    3.76
   6   0 -15    2.00    2.61
   6   0 -15    1.32    2.99
  -6   0  15    1.40    2.82
   0   6  15    2.00    5.60
   0  -6  15    0.39    3.73
  -6   0  15   -1.75    3.47
   6  -1 -15   11.50    4.23
   6  -1 -15   11.80    4.09
   1   6 -15    5.84    5.62
  -1  -6  15   13.16    5.43
  -1  -6  15    9.91    4.38
  -6   1  15   12.64    4.27
  -6   1  15   14.17    4.69
   6  -2 -15   24.88    7.79
   6  -2 -15   23.05    8.02
   2   6 -15   28.59    9.47
  -6   2  15   32.42    8.67
  -2  -6  15   30.75    9.86
  -6   2  15   38.12    8.07
  -2  -6  15   31.33    7.57
   3   6 -15   15.32    5.14
   6  -3 -15   15.39    4.73
   6  -3 -15   11.20    4.46
  -3  -6  15   11.01    4.34
  -6   3  15   20.04    4.70
  -6   3  15   16.65    5.53
  -3  -6  15   16.63    6.67
   4   6 -15   30.22    7.42
   4   6 -15   32.43    8.30
   6  -4 -15   28.89    6.76
   6  -4 -15   27.04    6.77
  -4  -6  15   25.44    6.39
  -6   4  15   29.93    7.08
  -4  -6  15   20.58    8.73
  -6   4  15   22.47    7.64
   6  -5 -15   22.55    7.15
  -6   5  15   41.94    8.25
   6  -6 -15   -7.95    4.17
   6  -6 -15   -6.23    4.48
  -6   6  15   -4.87    4.57
  -6   6  15  -15.77    6.00
   6  -7 -15   10.52    4.16
   6  -7 -15    4.46    4.15
  -6   7  15    1.33    4.61
  -6   7  15    1.45    5.74
   5  -7 -15    0.17    3.50
   5  -7 -15   -1.74    4.22
  -5   7  15   -4.18    4.01
  -5   7  15  -13.58    6.01
   7   4 -15   10.88    4.55
   4  -7 -15   16.13    4.80
   4  -7 -15   14.18    4.23
   7   4 -15   13.79    4.51
  -7  -4  15   16.52    4.38
  -4   7  15    7.83    6.40
   7   3 -15   11.72    4.52
   3  -7 -15   13.96    4.52
   3  -7 -15   15.64    3.62
   7   3 -15    9.63    4.19
  -7  -3  15    8.30    4.24
  -3   7  15   11.16    6.07
   7   2 -15   51.77   10.52
   2  -7 -15   21.56   10.08
   2  -7 -15   37.30    8.83
   7   2 -15   40.00   11.11
  -2   7  15   42.38   12.84
  -7  -2  15   35.65   10.62
   7   1 -15    2.10    3.56
   7   1 -15    2.63    2.89
   1  -7 -15    2.78    2.38
   1  -7 -15    5.37    3.77
   1  -7  15    2.65    4.13
  -7  -1  15    2.47    3.08
  -1   7  15    4.01    6.17
   7   0 -15   20.64    6.23
   0  -7 -15   16.17    6.83
   0  -7 -15   31.73    5.46
   7   0 -15   23.57    6.88
   0  -7  15   22.27    7.37
   0   7  15   16.27    9.06
  -7   0  15   20.58    6.38
   7  -1 -15    8.29    3.66
   1   7 -15    3.40    4.76
   7  -1 -15    2.12    3.12
  -1  -7  15    1.07    5.14
  -1  -7  15    4.63    3.58
  -7   1  15    5.62    3.33
   7  -2 -15   39.05   11.10
   7  -2 -15   42.52   10.44
   2   7 -15   41.09   12.13
  -2  -7  15   34.87   10.03
  -7   2  15   54.00   10.83
  -2  -7  15   63.28   13.13
   3   7 -15    8.48    4.81
   3   7 -15   12.86    7.05
   7  -3 -15   16.86    4.68
   7  -3 -15    9.93    4.25
  -3  -7  15   10.01    6.83
  -3  -7  15   10.07    3.88
  -7   3  15   11.12    5.08
  -7   3  15   11.46    4.60
   7  -4 -15    9.01    4.86
   4   7 -15   10.92    5.19
   4   7 -15   17.72    6.73
   7  -4 -15    7.48    5.02
  -4  -7  15   17.64    6.98
  -4  -7  15   13.43    4.10
  -7   4  15   13.33    4.46
  -7   4  15    1.23    5.35
  -5  -7  15    3.49    6.30
  -5  -7  15   -0.69    3.46
   7  -6 -15    7.38    4.14
   7  -6 -15    7.94    4.40
  -7   6  15    0.12    5.24
  -7   6  15   15.57    4.50
   7  -7 -15   13.01    3.92
   7  -7 -15    0.17    3.93
  -7   7  15   -0.20    3.74
  -7   7  15   -0.81    5.29
   6  -8 -15   -6.15    4.10
   6  -8 -15    8.90    3.73
  -6   8  15    0.20    4.15
  -6   8  15    1.69    5.54
   5  -8 -15   22.96    6.25
   5  -8 -15   24.04    5.77
  -5   8  15    0.14    7.85
  -5   8  15   25.13    6.56
   4  -8 -15    3.62    3.91
   8   4 -15    6.67    3.52
   4  -8 -15    3.47    3.02
  -4   8  15    4.05    5.87
  -4   8  15   -0.18    4.04
   3  -8 -15   38.98    9.69
   8   3 -15   44.27   10.49
   3  -8 -15   40.10    8.77
  -3   8  15   38.84   12.29
  -8  -3  15   27.59   10.33
   2  -8 -15    6.99    4.12
   8   2 -15   10.90    4.10
   8   2 -15    7.93    3.71
   2  -8 -15    6.85    2.72
  -2   8  15    6.68    6.81
  -8  -2  15    5.07    3.66
   1  -8 -15   24.22    8.14
   8   1 -15   20.89    8.49
   8   1 -15   29.31    7.95
   1  -8 -15   38.34    6.71
  -1   8  15   23.93   11.00
   1  -8  15   30.52    8.75
  -8  -1  15   25.89    8.16
   8   0 -15   -2.59    3.61
   0  -8 -15   -1.13    2.37
   0   8 -15    2.60    5.52
   8   0 -15   -1.23    3.71
   0  -8  15    0.54    3.93
  -8   0  15   -0.18    3.43
   0   8  15   -3.72    6.78
   0  -8  15   -2.78    5.13
   1   8 -15   26.33    9.54
   8  -1 -15   31.05    7.80
   8  -1 -15   28.21    8.31
  -1  -8  15   26.75    7.50
  -8   1  15   32.93    8.06
  -1  -8  15   29.99    9.71
   8  -2 -15    6.27    4.20
   2   8 -15    3.93    4.88
   8  -2 -15    1.95    3.55
  -2  -8  15    2.65    3.45
  -2  -8  15   -5.89    7.19
  -8   2  15    6.82    4.43
   3   8 -15   50.11   12.85
   3   8 -15   37.82   10.63
   8  -3 -15   28.65    9.39
   8  -3 -15   44.38   10.13
  -3  -8  15   30.45    9.01
  -8   3  15   39.98    9.90
  -3  -8  15   42.90   12.86
   4   8 -15    5.97    6.84
   8  -4 -15    3.57    4.37
   8  -4 -15    5.36    3.87
   4   8 -15    6.94    4.98
  -8   4  15    9.06    4.35
  -4  -8  15   -2.90    7.11
  -4  -8  15    5.52    3.66
   8  -5 -15   24.60    6.25
   5   8 -15   15.38    8.96
   5   8 -15   22.95    8.32
  -5  -8  15   22.55    9.23
  -5  -8  15   21.80    6.40
   8  -6 -15   -1.39    4.20
  -8   6  15    0.93    5.41
   8  -8 -15    1.77    4.78
   8  -8 -15   -0.19    3.72
  -8   8  15    2.55    4.75
   8  -9 -15  -12.96    5.27
   8  -9 -15   -0.31    5.16
  -8   9  15   -0.64    7.00
  -8   9  15    0.25    5.52
   7  -9 -15    5.57    4.91
  -7   9  15   -0.92    4.94
   5  -9 -15    3.04    4.14
   5  -9 -15    1.82    3.66
  -5   9  15    1.64    4.43
  -5   9  15    3.34    6.20
   9   4 -15   41.30    8.87
   4  -9 -15   23.25    7.44
   4  -9 -15   23.10    8.00
  -4   9  15   30.63    8.46
  -4   9  15   37.69   10.36
   3  -9 -15    2.22    2.74
   3  -9 -15    4.58    4.13
   9   3 -15    0.93    3.77
  -3   9  15   -2.31    6.44
   9   2 -15   28.30   10.35
   2  -9 -15   40.02    8.81
   2  -9 -15   53.73   10.17
  -2   9  15   28.44   13.06
   1  -9 -15    0.21    4.11
   9   1 -15    2.23    3.53
   1  -9 -15   -0.43    2.64
  -9  -1  15   -1.03    3.60
   1  -9  15    6.44    5.39
  -1   9  15   -8.15    7.31
   9   0 -15    5.47    4.50
   0  -9 -15    3.10    2.93
   9   0 -15   10.63    4.18
   0   9 -15    4.65    6.32
   0  -9  15    6.32    6.09
  -9   0  15    6.18    4.12
   0  -9  15    7.05    4.44
   0   9  15   11.93    7.88
   9  -1 -15    0.33    3.58
   1   9 -15    1.86    5.34
   9  -1 -15   -5.20    4.53
  -1  -9  15    0.32    6.79
  -1  -9  15   -2.39    3.84
  -9   1  15   -3.32    4.10
   9  -2 -15   44.32    9.48
   2   9 -15   33.06   10.86
   9  -2 -15   24.41   10.28
  -2  -9  15   36.35   12.91
  -9   2  15   38.02    9.86
  -2  -9  15   38.45    8.95
   3   9 -15   -0.68    4.82
   9  -3 -15   -5.27    4.10
   3   9 -15    4.94    8.30
   9  -3 -15    7.41    5.00
  -3  -9  15   -0.69    3.54
  -9   3  15  -12.05    4.17
  -3  -9  15    4.54    8.06
   4   9 -15   28.85    9.48
   9  -4 -15   12.87    7.62
   4   9 -15   32.25   11.30
  -4  -9  15   38.57   11.14
  -4  -9  15   27.67    7.56
   5   9 -15    2.85    7.78
   5   9 -15    7.99    6.56
  -5  -9  15    6.42    7.72
  -5  -9  15    3.27    4.53
   9  -6 -15    0.63    4.68
  -9   6  15   -3.98    4.54
   9  -7 -15    0.19    4.66
   9  -7 -15    5.54    5.22
  -9   7  15    0.24    5.20
   9  -8 -15  -15.24    5.23
   9  -8 -15    3.68    4.68
  -9   8  15    1.28    5.65
  -9   8  15    0.16    6.52
   9  -9 -15    2.12    5.89
   9  -9 -15   -2.57    5.27
  -9   9  15   -0.66    6.81
  -9   9  15    1.08    5.94
   9 -10 -15   -4.52    5.37
   9 -10 -15    0.75    6.08
  -9  10  15   -0.57    5.89
  -9  10  15   -0.70    7.40
   8 -10 -15    0.33    5.34
   8 -10 -15    0.22    5.30
  -8  10  15   -7.35    7.35
  -8  10  15    0.26    5.33
   7 -10 -15   -0.29    5.33
   7 -10 -15   -8.70    5.01
  -7  10  15    3.67    5.23
  -7  10  15   10.76    7.00
  -6  10  15    3.92    5.42
   4 -10 -15    4.63    3.56
   4 -10 -15   -2.63    4.41
  -4  10  15    8.00    4.71
  -4  10  15   -5.94    6.85
   3 -10 -15   27.96    6.14
   3 -10 -15   25.25    7.25
  10   3 -15   16.77    6.93
  -3  10  15   29.70    9.72
  10   2 -15   -4.04    4.22
   2 -10 -15   -2.87    3.05
   2 -10 -15    5.45    4.28
  -2  10  15   -5.68    7.48
   1 -10 -15   -3.49    2.79
  -1  10 -15    0.50    6.44
   1 -10 -15    9.45    4.37
  10   1 -15   -4.81    3.99
   1 -10  15   -1.69    6.41
  -1  10  15    3.49    7.53
   0 -10 -15    2.79    2.90
  10   0 -15    0.72    4.01
   0  10 -15    2.88    6.62
   0 -10  15   -2.85    4.64
   0 -10  15   -1.50    6.75
  10  -1 -15    2.38    4.04
   1  10 -15    0.37    5.94
  -1 -10  15   -6.77    7.86
  -1 -10  15   -1.71    4.20
  10  -2 -15    1.49    4.24
   2  10 -15    0.32    5.56
  -2 -10  15   -3.19    4.06
  -2 -10  15  -16.25    8.80
   3  10 -15   14.63   10.71
   3  10 -15   15.03    7.29
  -3 -10  15   19.56    5.77
  -3 -10  15    1.86   10.39
   4  10 -15    1.86    6.36
  10  -4 -15   -0.34    4.98
   4  10 -15    2.12    8.98
  -4 -10  15    2.30    4.41
 -10   4  15    1.49    4.94
  -4 -10  15   -3.33    9.01
   5  10 -15    9.38    7.62
   5  10 -15   -0.27    8.47
  10  -5 -15    4.74    4.32
  -5 -10  15    7.85    8.88
  -5 -10  15    3.36    5.05
  10  -6 -15    1.22    4.79
  10  -6 -15    8.53    5.08
 -10   6  15    0.26    4.93
  -6 -10  15   -2.25    5.83
  -6 -10  15    0.45    9.01
  10  -7 -15   -1.83    5.79
  10  -7 -15   -0.21    4.97
 -10   7  15    0.27    5.51
  10  -8 -15   -1.52    6.00
  10  -8 -15    0.22    5.20
 -10   8  15    1.42    5.81
  10  -9 -15   -0.23    5.62
  10  -9 -15    0.39    5.88
 -10   9  15   -7.13    5.55
  10 -10 -15   -0.42    6.61
  10 -10 -15    3.87    6.35
 -10  10  15    0.19    7.78
 -10  10  15    1.25    6.14
  10 -11 -15    0.25    5.81
  10 -11 -15    0.44    6.98
 -10  11  15   16.04    9.01
 -10  11  15   -0.33    6.80
   9 -11 -15   -8.87    5.59
   9 -11 -15   -2.36    6.48
  -9  11  15    0.61    6.37
  -9  11  15    5.65    8.03
   8 -11 -15   -0.23    5.47
   8 -11 -15   10.87    5.97
  -8  11  15    4.33    7.65
  -8  11  15  -14.35    6.07
   7 -11 -15    1.97    5.32
   7 -11 -15   -0.92    5.63
  -7  11  15    1.55    5.94
  -7  11  15    4.25    7.41
   6 -11 -15    0.63    5.48
   6 -11 -15   -1.58    4.85
  -6  11  15    2.46    7.50
  -6  11  15    0.25    5.40
  -5  11  15    0.95    5.19
   3 -11 -15    5.50    5.16
   3 -11 -15   11.61    3.87
  -3  11  15   13.46    8.47
   2 -11 -15   -1.91    3.44
   2 -11 -15    7.14    4.98
  -2  11  15   -4.05    8.12
   1 -11 -15    3.27    3.38
  -1  11 -15   -7.18    7.47
   1 -11 -15    3.72    4.84
  -1  11  15    5.18    8.57
   1 -11  15    0.48    5.18
   0  11 -15   11.22    8.67
   1  11 -15   14.00    6.53
  -1 -11  15    2.08    4.57
  -1 -11  15    5.62    8.95
   2  11 -15    2.66    6.45
  -2 -11  15    0.71    4.73
  -2 -11  15   24.76    9.74
   3  11 -15   -0.92   10.71
   3  11 -15    1.40    6.70
  -3 -11  15    5.10   10.06
  -3 -11  15    1.41    4.50
   4  11 -15    3.97   10.48
   4  11 -15    1.33    7.42
  -4 -11  15  -12.69    5.63
   5  11 -15    2.33    8.94
   5  11 -15   -0.62   10.48
  -5 -11  15  -36.61   11.03
  -5 -11  15   -3.79    6.03
   6  11 -15    1.14    9.79
   6  11 -15    4.18    9.90
  11  -8 -15    0.24    5.35
  11  -9 -15   -0.25    5.60
  11 -10 -15   -6.96    6.14
  11 -11 -15   -0.27    6.53
 -11  11  15   15.90   10.81
  11 -12 -15   13.58    7.53
 -11  12  15   17.18   10.40
  10 -12 -15   -0.53    6.15
 -10  12  15    0.21    8.87
 -10  12  15   -0.35    6.74
   9 -12 -15    1.23    7.00
   9 -12 -15    0.25    6.08
  -9  12  15   31.06    8.98
  -9  12  15   -0.32    6.94
   8 -12 -15    0.24    6.03
   8 -12 -15    5.15    5.85
  -8  12  15   -6.95    8.33
  -8  12  15  -21.50    6.73
   7 -12 -15   -1.67    5.88
   7 -12 -15    1.60    5.43
  -7  12  15   -5.50    6.38
  -7  12  15   -1.13    8.06
   6 -12 -15   -2.04    4.96
   6 -12 -15   -1.98    5.22
  -6  12  15    1.31    5.46
  -6  12  15    3.54    7.81
   5 -12 -15    3.66    5.03
   5 -12 -15    4.44    4.50
  -5  12  15   -4.16    7.60
  -5  12  15   -0.50    5.51
   4 -12 -15   -2.01    3.95
  -4  12  15    4.21    5.27
   2 -12 -15   -4.22    5.23
   2 -12  15    1.32    7.18
  -2  12  15   -2.77    9.02
   1 -12 -15   -7.59    5.95
   1 -12 -15   10.92    3.99
  -1  12 -15   36.23    8.46
   1 -12  15   -0.20    8.47
  -1  12  15    6.49    9.84
   0 -12 -15   -2.78    3.50
   0 -12  15   -9.73    9.10
  -1 -12 -15    2.35    4.15
  -5 -12  15   25.85   11.63
   6  12 -15   -1.09   11.03
  -6 -12  15   -1.11   10.73
  11 -13 -15    7.08    7.30
 -11  13  15   -3.77   10.60
  10 -13 -15    0.28    6.89
 -10  13  15    0.37    6.71
 -10  13  15    4.45    9.56
   9 -13 -15    1.30    7.04
   9 -13 -15  -11.39    6.20
  -9  13  15    7.43    6.73
  -9  13  15    0.85    8.99
   8 -13 -15   -1.97    6.26
   8 -13 -15   -9.81    6.48
  -8  13  15  -12.02    9.12
  -8  13  15   -7.45    6.53
   7 -13 -15  -26.28    7.35
   7 -13 -15   -0.35    7.37
  -7  13  15  -12.70    7.25
   6 -13 -15    5.52    5.51
   6 -13 -15   -0.61    5.36
  -6  13  15   -5.49    5.95
  -6  13  15    0.99    8.52
   5 -13 -15    2.06    5.46
   5 -13 -15    5.65    4.69
  -5  13  15   -6.55    6.04
  -5  13  15    6.67    8.45
   4 -13 -15    5.33    4.65
   4 -13 -15    3.49    5.57
  -4  13  15    8.90    6.05
  -4  13  15    8.49    8.80
   3 -13 -15    2.22    4.27
  -3  13  15   -1.93    5.57
  -2  13 -15    0.65    8.82
   2 -13  15    8.69    8.48
  -1  13 -15    2.15    8.99
   1 -13  15    1.79    8.94
   1 -13  15    0.55    5.85
   0  13 -15   19.81    9.19
   0 -13  15    5.24    5.76
   0 -13  15   -5.62   10.30
   1  13 -15    1.20    8.11
  -1 -13  15    4.48   10.86
  -1 -13  15   -0.23    5.53
   2  13 -15   -1.53   13.66
   2  13 -15   -3.61    7.99
  -2 -13  15   -6.49    5.67
  -2 -13  15    7.02   11.51
   3  13 -15   10.70    8.73
   3  13 -15   -4.69   13.27
  -3 -13  15    0.89    5.63
  -3 -13  15    6.10   11.86
   4  13 -15   13.81   13.05
   4  13 -15   11.71    9.40
  -4 -13  15   -2.64   12.02
  -4 -13  15   12.66    6.40
   5  13 -15  -11.33   13.07
   5  13 -15    0.54   10.66
  -5 -13  15   19.83   11.78
  -5 -13  15   -1.49    6.66
   6  13 -15   -0.41   12.18
   6  13 -15  -10.88   11.61
  -6 -13  15   -5.71    7.01
  -6 -13  15  -15.68   11.70
  -7 -13  15  -35.78   12.58
  11 -14 -15    4.62    7.33
 -11  14  15   -9.88   10.90
  10 -14 -15    0.29    6.81
 -10  14  15    0.39    7.56
 -10  14  15   -9.36   10.58
   9 -14 -15    0.27    6.54
   9 -14 -15    2.26    6.49
  -9  14  15   -6.03    7.08
  -9  14  15   -8.89   10.02
   8 -14 -15    4.42    6.06
   8 -14 -15    1.64    6.63
  -8  14  15   -0.21    9.12
  -8  14  15   -0.33    6.79
  -7  14  15    1.83    6.41
  -7  14  15    5.06    9.17
  -6  14  15    6.63    6.51
  -2  14 -15    1.06    9.61
   2 -14  15    2.38    9.47
  -1  14 -15   13.42   10.07
   1 -14  15   -2.09    6.64
   1 -14  15   18.11   10.18
   0  14 -15    6.91    9.45
   0 -14  15   -6.56    5.93
   0 -14  15    4.66   11.28
   1  14 -15    1.21   13.98
   1  14 -15    5.12    9.07
  -1 -14  15    7.50    6.18
  -1 -14  15   12.11   12.26
   2  14 -15   -7.65    9.17
   2  14 -15   16.64   15.01
  -2 -14  15   -3.00    6.28
  -2 -14  15   10.88   12.75
   3  14 -15   -0.52    9.35
   3  14 -15    8.76   15.05
  -3 -14  15    3.54   13.59
  -3 -14  15  -16.48    6.48
   4  14 -15  -11.10   15.78
   4  14 -15    0.28   11.70
  -4 -14  15   15.64   15.07
  -4 -14  15   41.86    8.66
   5  14 -15    0.46   14.70
   5  14 -15  -20.38   12.08
  -5 -14  15   -0.67   13.54
  -5 -14  15    3.57    7.19
   6  14 -15    4.44   12.60
   6  14 -15    6.93   13.74
  -6 -14  15   -2.02    7.46
  -6 -14  15   -8.53   12.90
  -7 -14  15    0.70   12.41
  -7 -14  15   -3.79    7.87
  -2  15 -15    8.45   11.05
   2 -15  15   15.08   11.18
  -1  15 -15  -17.72   11.08
   1 -15  15   13.80   11.78
   1 -15  15   10.13    7.14
   0  15 -15    3.68   10.55
   0 -15  15  -17.79   12.74
   0 -15  15    0.29    6.53
   1  15 -15   -0.89   15.19
   1  15 -15    3.03    9.72
  -1 -15  15   -8.87   13.53
  -1 -15  15   -1.44    6.72
   2  15 -15   20.99   10.55
   2  15 -15    7.58   15.89
  -2 -15  15   -7.83    7.00
  -2 -15  15   -2.75   13.97
   3  15 -15   -4.87   16.26
   3  15 -15   -6.40   10.15
  -3 -15  15   28.46   14.44
  -3 -15  15  -12.73    6.97
   4  15 -15   -3.49   15.86
   4  15 -15   -6.96   11.59
  -4 -15  15   10.17    7.32
  -4 -15  15   -9.74   14.36
   5  15 -15   21.00   12.86
   5  15 -15   -5.70   16.62
  -5 -15  15   -5.15    8.02
  -5 -15  15   10.00   14.37
   6  15 -15   15.90   13.92
   6  15 -15  -19.81   15.53
  -6 -15  15    1.89    8.31
  -6 -15  15    7.95   13.70
   7  15 -15   11.53   14.70
   7  15 -15    4.68   14.70
  -7 -15  15   -3.85   14.06
  -7 -15  15   14.72    8.57
  -2  16 -15    7.17   12.06
   2 -16  15   -0.91   12.18
  -1  16 -15  -10.84   12.53
   1 -16  15    1.80    7.97
   1 -16  15    5.15   13.68
   0  16 -15   -8.84   16.40
   0  16 -15    4.87   11.68
   0 -16  15   -7.20   13.95
   0 -16  15    1.61    7.24
   1  16 -15   13.67   11.37
   1  16 -15    4.94   16.70
  -1 -16  15   18.56    7.90
  -1 -16  15   15.91   15.17
   2  16 -15  -17.20   17.28
   2  16 -15   17.69   11.96
  -2 -16  15  -10.28    7.24
  -2 -16  15  -16.31   15.22
   3  16 -15   -1.31   11.96
   3  16 -15   22.31   18.89
  -3 -16  15   -4.71    8.03
  -3 -16  15  -22.66   15.47
   4  16 -15   -1.69   12.54
   4  16 -15   15.88   18.10
  -4 -16  15  -11.91    7.95
  -4 -16  15   26.11   15.93
   5  16 -15   -7.05   19.39
   5  16 -15  -33.97   15.93
   6  16 -15  -46.45   18.44
   6  16 -15  -12.92   20.74
   7  16 -15   33.39   16.71
   7  16 -15  -18.13   16.12
  -7 -16  15    6.30    9.24
  -7 -16  15   18.34   15.67
  -1  17 -15   59.98   17.06
   1 -17  15    6.38   10.69
   1 -17  15   -3.96   16.31
   0  17 -15   78.76   28.43
   0  17 -15   80.11   30.65
   0 -17  15  121.92   29.16
   0 -17  15   63.68   21.39
   1  17 -15   43.10   21.38
   1  17 -15   40.62   16.58
  -1 -17  15    3.19   18.99
   2  17 -15  -52.39   23.17
   3  17 -15   -1.13   13.74
   3  17 -15   12.71   20.37
  -3 -17  15   -6.96    8.93
  -3 -17  15  -19.32   17.68
   4  17 -15   25.99   20.49
   4  17 -15   10.93   14.09
  -4 -17  15  -10.64   17.26
  -4 -17  15   -4.60    9.07
   5  17 -15  -17.92   15.12
   5  17 -15   20.44   20.42
  -5 -17  15   -5.49   17.58
  -5 -17  15   -4.35    9.28
   6  17 -15    1.68   16.52
   6  17 -15  -41.60   20.19
  -6 -17  15   -9.86   17.28
  -6 -17  15   -2.97    9.48
   7  17 -15  -19.46   17.28
   7  17 -15   24.41   18.46
  -7 -17  15   21.23   16.90
  -7 -17  15  -18.12    9.89
  -2  18 -15   15.08   15.30
   2 -18  15  -23.28   16.51
  -1  18 -15  -11.80   15.67
  -1  18 -15   10.20   20.04
   1 -18  15   -0.44    9.92
   1 -18  15   16.94   16.57
   0  18 -15   24.90   19.34
   0  18 -15  -28.01   15.23
   0 -18  15  -20.16   17.65
   0 -18  15   20.06    9.49
   1  18 -15  -28.86   21.06
   1  18 -15  -23.62   15.16
  -1 -18  15   -9.49    9.54
  -1 -18  15   10.55   17.62
   2  18 -15   33.75   22.17
   2  18 -15   21.67   15.69
  -2 -18  15   27.39   10.36
  -2 -18  15   -0.46   18.92
   3  18 -15  -26.01   22.44
   3  18 -15   -0.42   14.89
  -3 -18  15   -6.13   19.22
  -3 -18  15  -20.91    9.85
   4  18 -15    5.92   15.70
   4  18 -15    0.71   23.40
  -4 -18  15    0.49   18.70
  -4 -18  15    8.55    9.77
   5  18 -15  -12.45   16.50
   5  18 -15   -1.48   22.61
  -5 -18  15   21.01   10.60
  -5 -18  15   33.12   19.63
   6  18 -15   -6.40   17.85
   6  18 -15  -20.00   22.06
  -6 -18  15   64.39   19.96
  -6 -18  15   20.97   11.09
   7  18 -15   17.08   20.49
   7  18 -15  -11.22   18.50
  -7 -18  15   -4.47   10.34
   1   0 -16    0.43    1.81
   1   0 -16   -3.24    3.21
  -1   0  16   -1.82    4.44
   1   1 -16   64.62   15.90
   1   1 -16   63.13   14.78
   1  -1 -16   59.32   15.23
  -1   1  16   65.61   17.56
  -1  -1  16   62.37   17.95
   2   1 -16    3.23    3.13
   1  -2 -16    2.25    2.06
   1  -2 -16    3.94    3.25
   2   1 -16    5.38    1.98
  -2  -1  16    5.46    4.27
  -1   2  16    3.61    4.91
   0  -2 -16    5.33    2.40
   2   0 -16    5.34    3.24
   2   0 -16    5.24    2.15
  -2   0  16    7.01    4.48
   1   2 -16    3.24    1.96
   2  -1 -16    7.27    3.13
   2  -1 -16    3.80    2.10
  -1  -2  16    6.35    4.72
  -2   1  16    4.40    4.49
  -1  -2  16    3.65    2.42
   2   2 -16    9.37    2.78
   2  -2 -16    4.89    2.72
   2  -2 -16   12.28    3.68
   2   2 -16    8.95    3.83
  -2   2  16   10.26    4.94
  -2  -2  16   12.26    4.97
   3   2 -16   35.29   10.20
   2  -3 -16   48.22    8.83
   2  -3 -16   18.44    9.86
   3   2 -16   37.22   10.05
  -3  -2  16   44.45   11.74
  -2   3  16   27.22   12.02
   3   1 -16    3.25    1.79
   1  -3 -16    1.97    2.20
   3   1 -16    0.84    2.62
   1  -3 -16    3.87    3.39
  -3  -1  16    4.47    3.86
  -1   3  16    1.05    4.91
   3   0 -16   -0.82    1.81
   0  -3 -16    0.14    2.06
   3   0 -16   -0.73    2.60
   0   3  16    2.20    5.23
  -3   0  16    0.10    3.80
   1   3 -16    0.68    1.76
   3  -1 -16    2.63    2.67
   3  -1 -16    2.33    1.88
  -3   1  16   -0.73    3.93
   3  -2 -16   33.44   10.04
   2   3 -16   53.87   11.08
   2   3 -16   46.78   12.01
   3  -2 -16   44.26   10.58
  -2  -3  16   51.19   13.48
  -2  -3  16   55.13   12.39
  -3   2  16   46.75   12.14
   3   3 -16    8.36    2.67
   3   3 -16    9.86    3.45
   3  -3 -16    9.72    2.73
   3  -3 -16    4.07    3.45
  -3   3  16    5.32    4.57
  -3  -3  16   10.33    4.60
   4   3 -16   -1.10    2.15
   3  -4 -16    1.85    3.22
   4   3 -16    1.16    2.65
  -3   4  16   -3.43    4.65
  -4  -3  16   -0.17    3.40
  -4  -3  16    1.51    2.24
   2  -4 -16   -0.79    3.10
   4   2 -16   -0.32    2.48
   4   2 -16    0.45    1.93
  -4  -2  16    1.47    3.49
  -2   4  16   -1.24    4.88
  -4  -2  16    1.73    2.25
   4   1 -16   20.47    5.22
   1  -4 -16   18.43    5.83
   4   1 -16   17.00    5.23
  -1   4  16   16.32    7.61
  -4  -1  16   21.29    6.20
   4   0 -16    3.41    2.25
   4   0 -16    1.14    2.51
   0   4 -16    1.10    2.17
  -4   0  16    6.66    3.77
   0   4  16    4.40    5.42
   4  -1 -16   20.05    5.21
   4  -1 -16   21.90    5.44
   1   4 -16   20.56    5.61
  -4   1  16   20.27    6.38
  -1  -4  16   22.74    6.31
   2   4 -16    0.25    1.55
   4  -2 -16   -1.49    2.64
   2   4 -16    0.75    3.06
   4  -2 -16    0.12    2.22
  -4   2  16    2.15    3.89
  -2  -4  16    2.86    3.67
  -2  -4  16    5.24    4.56
   4  -3 -16    0.13    2.87
   3   4 -16   -0.09    1.68
   3   4 -16   -1.36    2.88
   4  -3 -16   -0.38    2.21
  -3  -4  16    2.80    4.03
  -4   3  16   -0.97    4.11
   4   4 -16    3.07    2.68
   4   4 -16    3.93    2.18
   4  -4 -16    3.70    3.10
   4  -4 -16    5.06    2.39
  -4  -4  16    1.91    3.61
  -4  -4  16    0.85    2.34
  -4   4  16    7.65    4.56
   5   4 -16    5.31    2.43
   5   4 -16    1.42    2.61
   4  -5 -16    3.48    3.26
   4  -5 -16    2.09    2.46
  -5  -4  16    4.85    3.44
  -5  -4  16    1.10    2.51
  -4   5  16    3.95    4.72
   3  -5 -16    1.02    2.46
   5   3 -16    1.83    2.31
   3  -5 -16   -0.91    3.48
   5   3 -16    0.42    2.60
  -5  -3  16   -0.58    2.49
  -5  -3  16   -0.16    3.54
  -3   5  16    2.87    4.87
   5   2 -16   48.27   10.10
   2  -5 -16   37.31   10.06
   5   2 -16   35.54   10.62
   2  -5 -16   52.14    8.82
  -5  -2  16   36.29   10.37
  -5  -2  16   39.92   10.90
  -2   5  16   31.89   12.18
   5   1 -16   -0.34    2.73
   1  -5 -16   -0.54    3.67
   1  -5 -16    0.49    1.93
   5   1 -16    0.69    2.50
  -5  -1  16   -1.13    2.63
  -5  -1  16    2.20    3.68
  -1   5  16   -3.47    5.48
   5   0 -16    2.09    2.42
   0   5 -16    0.69    2.13
   5   0 -16   -2.13    2.71
   0  -5 -16    1.21    2.30
  -5   0  16   -0.51    2.73
   0  -5  16    0.09    3.36
   0   5  16   -2.21    5.93
  -5   0  16   -1.84    3.70
   5  -1 -16   -0.74    2.85
   1   5 -16    1.02    1.62
   5  -1 -16   -1.29    2.59
  -5   1  16   -0.39    3.81
  -1  -5  16    0.88    3.69
  -5   1  16    0.27    2.89
   2   5 -16   22.18   12.39
   5  -2 -16   32.49    9.58
   5  -2 -16   39.58    9.71
   2   5 -16   45.98   10.18
  -5   2  16   38.80    9.74
  -2  -5  16   43.48   11.58
  -5   2  16   43.19   10.65
   3   5 -16    9.42    3.18
   5  -3 -16    0.75    2.71
   3   5 -16    1.01    1.72
   5  -3 -16   -0.54    3.00
  -3  -5  16    4.66    4.78
  -3  -5  16   -0.67    2.58
  -5   3  16    6.28    3.22
  -5   3  16   -0.21    4.23
   4   5 -16   -0.42    2.82
   5  -4 -16    1.56    2.78
   4   5 -16    3.14    2.13
   5  -4 -16    1.27    3.31
  -5   4  16    7.38    3.54
  -5   4  16    6.46    4.52
   5  -5 -16    0.89    3.27
  -5   5  16    1.34    4.58
   5  -6 -16    7.49    4.43
   5  -6 -16    1.58    5.25
  -5   6  16    5.51    5.16
  -5   6  16    3.89    7.19
   6   4 -16   -0.67    2.93
   6   4 -16    4.38    3.00
   4  -6 -16    0.91    2.79
   4  -6 -16    3.25    3.53
  -6  -4  16    4.53    2.78
  -6  -4  16    6.00    3.62
  -4   6  16    4.10    5.27
   3  -6 -16   16.72    4.41
   3  -6 -16   15.21    5.23
   6   3 -16   15.42    5.34
   6   3 -16   15.22    5.17
  -6  -3  16   18.42    5.73
  -6  -3  16    9.58    5.10
  -3   6  16   30.37    7.17
   6   2 -16    5.97    3.60
   6   2 -16    8.36    3.37
   2  -6 -16    6.49    4.14
   2  -6 -16    6.94    2.79
  -6  -2  16    8.71    3.39
  -6  -2  16    7.27    4.26
  -2   6  16    4.21    6.12
   1  -6 -16   11.57    5.64
   6   1 -16   19.35    5.38
   1  -6 -16   17.24    4.27
   6   1 -16   16.55    5.11
  -1   6  16   13.15    7.53
  -6  -1  16   15.43    5.81
  -6  -1  16   17.46    5.20
   0  -6 -16    7.47    2.97
   6   0 -16    6.16    3.66
   6   0 -16    8.24    3.57
   0  -6  16    7.42    4.64
  -6   0  16   13.37    4.48
  -6   0  16   10.42    3.88
   0   6  16   11.09    6.72
   6  -1 -16   18.52    5.34
   6  -1 -16   15.34    5.15
  -6   1  16   19.09    5.44
  -1  -6  16   17.95    6.38
  -6   1  16   19.95    5.98
   6  -2 -16    5.80    3.63
   6  -2 -16    9.10    3.58
   2   6 -16    8.82    4.82
  -6   2  16   11.26    4.69
  -6   2  16    7.53    3.91
  -2  -6  16    6.40    3.58
  -2  -6  16   12.45    5.57
   3   6 -16   29.09    6.02
   6  -3 -16   10.98    5.11
   6  -3 -16   16.30    5.33
  -6   3  16   18.91    5.61
  -3  -6  16   14.85    7.34
  -3  -6  16   16.68    4.80
  -6   3  16   22.85    6.34
   6  -4 -16    5.18    3.52
   6  -4 -16    2.38    3.32
  -6   4  16    4.14    3.84
  -6   4  16    4.26    4.55
   6  -6 -16   10.14    4.16
   6  -6 -16    8.40    4.32
  -6   6  16    9.35    4.78
  -6   6  16    1.44    5.69
   6  -7 -16   12.09    3.99
   6  -7 -16    0.17    4.56
  -6   7  16    8.05    4.66
  -6   7  16   -0.42    5.73
   5  -7 -16   11.73    4.41
   5  -7 -16    7.18    3.58
  -5   7  16    1.54    5.75
  -5   7  16    1.29    4.38
   4  -7 -16   25.59    4.68
   4  -7 -16   18.54    5.20
   7   4 -16   16.33    5.18
   7   4 -16   13.27    5.27
  -7  -4  16   19.42    5.71
  -7  -4  16   10.29    4.99
  -4   7  16   15.38    7.15
   7   3 -16   22.26    5.74
   3  -7 -16   21.76    5.95
   7   3 -16   10.90    5.94
   3  -7 -16   18.73    4.66
  -3   7  16   15.38    8.07
  -7  -3  16   13.37    5.59
  -7  -3  16   17.74    6.26
   2  -7 -16   21.77    5.28
   7   2 -16   21.63    6.68
   7   2 -16   20.69    6.29
   2  -7 -16   23.44    6.51
  -2   7  16   16.07    8.88
  -7  -2  16   24.73    6.34
  -7  -2  16   20.83    6.91
   1  -7 -16   12.23    3.50
   7   1 -16   12.78    4.25
   7   1 -16   12.94    4.62
   1  -7 -16   10.57    4.99
  -7  -1  16    9.53    4.83
  -1   7  16   11.59    7.27
  -7  -1  16   10.60    4.22
   7   0 -16   -1.35    3.10
   7   0 -16   -0.21    3.49
   0  -7 -16    2.58    2.51
  -7   0  16    0.65    3.21
   0  -7  16    0.77    4.41
  -7   0  16    1.60    3.96
   0   7  16    0.41    6.27
   7  -1 -16   11.16    4.42
   1   7 -16    6.95    5.74
   7  -1 -16   12.21    4.09
  -7   1  16   10.66    4.22
  -1  -7  16   14.52    5.85
  -1  -7  16    6.90    4.26
  -7   1  16    8.89    4.82
   7  -2 -16   20.77    6.46
   7  -2 -16   17.48    5.93
   2   7 -16   21.68    7.52
  -7   2  16   27.53    6.34
  -2  -7  16   13.97    5.71
  -2  -7  16   16.04    8.20
  -7   2  16   28.01    7.05
   7  -3 -16   16.10    6.31
   7  -3 -16   15.30    5.94
   3   7 -16   16.87    6.59
  -7   3  16   28.71    7.23
  -3  -7  16   17.67    5.35
  -3  -7  16   18.77    8.47
  -7   3  16   34.12    6.63
   7  -4 -16   14.77    4.90
   7  -4 -16   15.14    4.88
  -7   4  16    0.18    5.12
  -4  -7  16   12.59    4.28
  -4  -7  16   10.58    7.24
  -7   4  16   14.89    5.80
   7  -5 -16    0.16    3.90
  -7   5  16    2.40    5.25
   7  -6 -16   -0.17    4.26
   7  -6 -16   17.48    4.09
  -7   6  16   -0.20    4.14
  -7   6  16   -0.80    5.57
   7  -8 -16   -1.05    4.71
  -7   8  16    7.72    4.94
   5  -8 -16   -0.97    3.32
   5  -8 -16    1.61    4.48
  -5   8  16    3.14    4.19
  -5   8  16    1.65    5.99
   4  -8 -16    0.89    4.76
   8   4 -16   13.32    4.34
   4  -8 -16   13.26    3.89
  -8  -4  16    8.26    4.15
  -4   8  16   -1.08    6.70
   3  -8 -16    9.11    3.25
   8   3 -16    6.69    3.74
   3  -8 -16    7.00    4.48
   8   3 -16    5.08    4.00
  -3   8  16   -0.17    6.61
  -8  -3  16    6.97    3.71
   8   2 -16   28.47    7.29
   2  -8 -16   23.06    5.62
   8   2 -16   17.92    6.77
   2  -8 -16   30.48    7.05
  -8  -2  16   17.23    6.90
  -2   8  16   13.07    9.53
   8   1 -16    1.16    3.45
   8   1 -16    1.75    4.01
   1  -8 -16    1.89    4.40
   1  -8 -16    3.41    2.66
  -1   8  16   -0.61    7.26
   1  -8  16   -3.71    4.83
  -8  -1  16    1.98    3.63
   8   0 -16    0.15    3.46
   0  -8 -16    4.49    2.69
   8   0 -16    3.59    4.17
   0   8  16    9.44    7.11
  -8   0  16    0.37    3.68
   0  -8  16    8.29    5.33
   1   8 -16    4.91    5.39
   8  -1 -16    0.51    4.04
   8  -1 -16    4.82    3.64
  -8   1  16   -0.93    3.71
  -1  -8  16   -2.64    5.95
  -1  -8  16    3.34    4.04
   2   8 -16   21.54    8.08
   8  -2 -16   31.00    6.78
   8  -2 -16   29.11    7.44
  -2  -8  16   17.08    6.24
  -8   2  16   27.47    6.97
  -2  -8  16   29.79    9.49
   8  -3 -16    6.73    4.46
   3   8 -16    7.42    4.67
   3   8 -16    3.32    7.68
   8  -3 -16    9.91    4.12
  -3  -8  16    6.30    3.71
  -3  -8  16    4.66    7.46
  -8   3  16    0.39    4.02
   4   8 -16    8.69    5.40
   8  -4 -16   15.43    4.81
   8  -4 -16   17.53    5.21
  -8   4  16   10.33    5.69
  -4  -8  16   17.84    7.81
  -8   4  16    8.51    5.15
  -4  -8  16    7.74    4.26
   8  -5 -16    0.17    3.81
  -8   5  16    0.13    5.22
   8  -7 -16   -0.19    3.68
   8  -7 -16    2.06    5.08
  -8   7  16    7.61    5.04
   8  -8 -16    0.40    4.55
   8  -8 -16    0.31    5.12
  -8   8  16   -0.24    5.45
  -8   8  16   -0.16    6.40
   8  -9 -16    8.30    5.34
   8  -9 -16    2.89    5.84
  -8   9  16    4.05    7.27
  -8   9  16    4.60    5.82
   7  -9 -16   -0.20    5.13
   7  -9 -16    0.83    4.62
  -7   9  16    8.89    6.10
  -7   9  16   -2.78    6.95
   6  -9 -16   -0.24    4.02
  -6   9  16    1.81    4.91
   4  -9 -16    7.24    3.26
   9   4 -16    0.31    3.97
   4  -9 -16    1.13    4.35
  -4   9  16    8.43    4.48
  -4   9  16    1.18    6.84
   9   3 -16   27.82    8.99
   3  -9 -16   43.76    8.78
   3  -9 -16   35.52    7.60
  -3   9  16    4.68   11.33
   9   2 -16    5.29    3.99
   2  -9 -16    9.32    4.71
   2  -9 -16    3.24    3.08
  -2   9  16    8.77    7.55
  -9  -2  16    2.06    3.87
   1  -9 -16   -0.44    4.49
   9   1 -16    2.91    4.25
   1  -9 -16    0.90    2.74
   9   1 -16    1.63    3.76
   1  -9  16    6.38    5.53
  -9  -1  16    3.72    4.12
  -1   9  16   -4.13    7.77
   9   0 -16   -1.48    3.89
   0   9 -16   -0.44    6.03
   9   0 -16    0.88    4.38
   0  -9 -16   -1.72    2.87
  -9   0  16    4.18    4.16
   0  -9  16    3.76    5.94
   0   9  16    1.64    7.81
   9  -1 -16    4.35    3.94
   1   9 -16    2.78    5.66
   9  -1 -16    7.39    4.95
  -9   1  16   11.02    4.53
  -1  -9  16    4.62    4.10
  -1  -9  16   -3.19    7.01
   2   9 -16    2.17    5.12
   9  -2 -16    7.83    4.13
   9  -2 -16    2.41    4.62
  -2  -9  16   -3.85    7.86
  -9   2  16    0.22    4.19
  -2  -9  16   -0.15    3.91
   9  -3 -16   34.64    8.30
   3   9 -16   34.04    9.59
   3   9 -16   23.06   12.52
  -3  -9  16   34.02   12.13
  -3  -9  16   30.24    7.82
   4   9 -16   -4.68    8.01
   4   9 -16    3.17    5.17
  -4  -9  16    3.38    3.91
  -4  -9  16   -3.89    7.86
   9  -6 -16    4.90    5.46
   9  -6 -16    0.19    4.49
  -9   6  16   -1.69    5.13
   9  -7 -16    1.01    5.51
   9  -7 -16    0.20    4.77
  -9   7  16   -0.47    5.97
  -9   7  16    0.25    4.98
   9  -8 -16    6.33    5.74
   9  -8 -16    0.85    5.16
  -9   8  16    2.63    5.74
  -9   8  16   -1.48    6.92
   9  -9 -16    0.22    5.60
   9  -9 -16   -3.67    6.20
  -9   9  16   -0.28    5.67
  -9   9  16    1.91    7.09
   9 -10 -16    0.38    6.52
   9 -10 -16   -1.66    5.72
  -9  10  16   -3.72    7.62
  -9  10  16    2.64    5.85
   8 -10 -16   -4.73    6.06
   8 -10 -16    0.23    5.32
  -8  10  16    0.18    7.32
  -8  10  16   -0.81    5.66
   7 -10 -16    2.60    5.26
   7 -10 -16    0.29    5.21
  -7  10  16   -4.33    5.41
  -7  10  16   -5.78    7.33
   6 -10 -16  -20.82    5.89
   6 -10 -16   -7.36    5.02
  -6  10  16   -0.24    5.65
  -5  10  16    3.00    5.29
  10   4 -16   15.37    6.01
   3 -10 -16    2.13    4.86
  10   3 -16    1.58    4.19
   3 -10 -16   -0.18    2.72
  -3  10  16   -2.57    7.55
   2 -10 -16    6.74    5.11
  10   2 -16    4.46    4.48
   2 -10 -16   10.79    3.62
  -2  10  16    1.06    8.03
   1 -10 -16    7.53    5.17
  10   1 -16   -0.90    4.20
   1 -10 -16    2.09    2.88
  -1  10  16   -6.97    8.42
   1 -10  16    0.78    6.05
  10   0 -16    6.77    4.39
   0 -10 -16   -0.82    2.90
   0  10 -16   -2.58    6.83
   0 -10  16    3.46    6.87
   0 -10  16    2.94    4.70
   1  10 -16   -1.80    6.44
  10  -1 -16    8.36    4.43
  -1 -10  16   -3.72    4.24
  -1 -10  16    1.10    7.78
   2  10 -16    5.32    6.01
  -2 -10  16   11.71    4.32
  -2 -10  16   -7.58    8.91
   3  10 -16    4.40    9.73
  10  -3 -16   -0.34    4.87
   3  10 -16    4.90    5.74
  -3 -10  16   -1.88    4.07
  -3 -10  16   13.31    9.12
 -10   3  16   -0.25    4.78
  10  -4 -16   28.46    5.57
   4  10 -16   15.53    7.21
   4  10 -16   13.47   10.23
  10  -4 -16   14.33    6.28
  -4 -10  16    7.06    5.41
  -4 -10  16   23.75    9.80
 -10   4  16    1.26    6.25
  10  -5 -16   -0.36    5.58
  10  -5 -16    0.20    4.58
 -10   5  16    4.92    5.06
  -5 -10  16   -0.68    5.26
  -5 -10  16    5.53    9.19
  10  -6 -16   -1.44    4.88
  10  -6 -16    2.57    5.87
 -10   6  16   -0.27    5.67
  10  -7 -16   11.18    5.08
  10  -7 -16    7.58    5.54
 -10   7  16    1.67    5.76
  10  -8 -16    0.45    5.15
  10  -8 -16   -1.96    6.01
 -10   8  16    9.60    5.79
  10  -9 -16  -20.01    6.63
  10  -9 -16    0.24    5.69
 -10   9  16   -0.18    7.53
 -10   9  16    1.83    6.02
  10 -10 -16   -7.99    6.37
  10 -10 -16  -13.63    7.11
 -10  10  16  -14.66    8.65
 -10  10  16   -0.64    6.57
  10 -11 -16    1.05    6.19
  10 -11 -16   -0.45    6.81
 -10  11  16    0.34    7.05
 -10  11  16    7.10    8.95
   9 -11 -16    0.40    6.37
   9 -11 -16    4.00    6.52
  -9  11  16   10.13    8.97
  -9  11  16   15.24    7.54
   8 -11 -16    4.80    6.04
   8 -11 -16    4.61    6.13
  -8  11  16   13.41    8.12
  -8  11  16   -0.58    6.38
   7 -11 -16    0.32    5.62
   7 -11 -16    1.37    5.58
  -7  11  16   -3.38    7.79
  -7  11  16   -7.61    6.32
   6 -11 -16    4.85    5.54
   6 -11 -16   -1.66    5.37
  -6  11  16    1.55    5.98
  -6  11  16   27.87    8.25
   5 -11 -16   -3.91    5.34
   5 -11 -16   -0.72    4.63
  -5  11  16    3.77    5.37
  -5  11  16    0.19    7.64
   4 -11 -16    1.95    4.19
  -4  11  16    4.18    5.36
   2 -11 -16   -0.24    5.18
  -2  11  16    1.39    8.54
   1 -11 -16   -0.17    2.85
   1 -11 -16    7.45    5.43
  -1  11  16    2.00    9.55
   0 -11 -16    7.98    3.37
   0  11 -16   -0.99    7.44
   0 -11  16    1.58    5.31
   2  11 -16    2.40    6.39
  -2 -11  16   -1.84    4.69
  -2 -11  16   -7.85    9.86
   3  11 -16    5.57    7.86
   3  11 -16    3.45   11.91
  -3 -11  16   19.83    5.95
  -3 -11  16   10.29   11.48
  11  -4 -16   -1.09    4.83
   4  11 -16    1.09    7.20
   4  11 -16   -2.79   10.21
  -4 -11  16   -7.47    5.57
   5  11 -16    6.54    8.28
  11  -5 -16    0.22    5.15
  -5 -11  16    0.78    5.47
 -11   5  16    0.29    5.85
  11  -6 -16   -0.23    5.48
  11  -7 -16    0.24    5.31
 -11   7  16    0.62    5.63
  11  -8 -16    2.91    5.73
 -11   8  16   -3.88    6.40
  11  -9 -16    3.31    6.18
 -11   9  16    8.79    7.27
  11 -10 -16    1.88    5.96
 -11  10  16   -5.23    8.85
 -11  10  16  -13.13    7.15
  11 -11 -16   -0.28    6.58
 -11  11  16    1.99    9.38
 -11  11  16    0.37    7.05
  11 -12 -16    0.88    7.13
 -11  12  16    9.68   10.06
  10 -12 -16    8.38    7.21
  10 -12 -16    0.28    6.77
 -10  12  16    9.69    7.24
 -10  12  16   -1.33    9.67
   9 -12 -16    6.36    6.55
   9 -12 -16    0.86    6.82
  -9  12  16   15.90    9.36
  -9  12  16    5.95    6.90
   8 -12 -16   -1.26    6.43
   8 -12 -16   -8.45    6.40
  -8  12  16  -17.73    9.27
  -8  12  16  -11.59    6.57
   7 -12 -16   -9.50    6.06
   7 -12 -16    0.24    5.82
  -7  12  16    6.89    6.14
  -7  12  16    0.20    8.07
   6 -12 -16   -5.84    5.34
   6 -12 -16    0.23    5.69
  -6  12  16   -5.18    8.44
  -6  12  16    0.27    5.90
   5 -12 -16    0.52    4.98
   5 -12 -16   12.52    5.42
  -5  12  16    2.45    8.22
  -5  12  16   -2.92    5.90
   4 -12 -16    2.12    4.51
   4 -12 -16  -14.93    5.63
  -4  12  16    4.46    5.64
  -4  12  16    3.43    8.62
   3 -12 -16   -3.46    4.09
   3 -12 -16   -0.24    4.32
  -3  12  16    2.97    5.46
   2 -12  16   -4.20    7.56
  -1  12 -16   -2.64    7.93
   1 -12  16    4.59    7.92
   0  12 -16   48.15   13.91
   0 -12  16    9.94   14.11
   0 -12  16   54.57   10.69
  -1 -12  16   -5.64   10.21
  -2 -12  16   23.99   11.59
  -3 -12  16   33.74   12.29
  -4 -12  16   -3.44   11.04
   5  12 -16    4.26   11.21
  -5 -12  16   11.24   10.80
  11 -13 -16    2.47    7.57
 -11  13  16    4.88   10.65
  10 -13 -16  -16.12    7.50
  10 -13 -16  -15.76    8.18
 -10  13  16   -2.55   10.24
 -10  13  16  -16.31    8.48
   9 -13 -16    2.24    7.55
   9 -13 -16  -11.37    6.92
  -9  13  16    6.29    7.40
  -9  13  16  -16.78    9.98
   8 -13 -16    2.89    6.38
   8 -13 -16   -4.83    6.75
  -8  13  16    0.32    6.68
  -8  13  16  -13.41    9.13
   7 -13 -16    0.25    5.95
   7 -13 -16    3.21    6.29
  -7  13  16    2.12    9.13
  -7  13  16   -0.30    6.42
   6 -13 -16  105.92   18.39
   6 -13 -16   34.15   17.81
   5 -13 -16   -1.42    5.17
   5 -13 -16  -10.03    5.94
  -5  13  16   12.26    9.60
  -5  13  16    0.28    6.03
   4 -13 -16   -9.22    5.90
   4 -13 -16    4.37    4.91
  -4  13  16   -1.85    9.62
  -4  13  16   -4.57    6.07
   3 -13 -16   -1.15    4.46
   3 -13 -16   -6.42    5.81
  -3  13  16   -5.44    6.35
  -3  13  16    4.16    9.68
   2 -13 -16   -2.35    5.77
   2 -13 -16   -3.38    3.98
  -2  13  16   33.17    9.51
   2 -13  16    8.54    8.53
  -1  13 -16   -3.49    9.55
   1 -13 -16    1.62    3.97
   1 -13  16  -14.17    9.11
   1 -13  16  -10.12    6.13
   0 -13 -16    4.14    3.77
   0  13 -16   -6.44    9.08
   0 -13  16    4.64   10.24
   0 -13  16   -4.32    5.72
   1  13 -16    8.17    8.30
  -1 -13  16  -11.62    5.61
  -1 -13  16  -10.53   11.10
   2  13 -16   -1.93   13.60
   2  13 -16    0.70    8.25
  -2 -13  16    0.23    5.44
  -2 -13  16  -14.35   12.01
   3  13 -16   -4.76   13.20
   3  13 -16  -13.66    8.79
  -3 -13  16  -12.26   12.26
  -3 -13  16    1.79    5.86
   4  13 -16    3.30    8.84
   4  13 -16    9.96   13.21
  -4 -13  16    9.71    6.39
  -4 -13  16    2.07   11.84
   5  13 -16   11.04   10.14
   5  13 -16    1.64   13.15
  -5 -13  16    1.22    6.43
  -5 -13  16   -9.68   11.70
  -6 -13  16   81.19   23.99
  11 -14 -16   13.25    8.05
 -11  14  16   -2.83   11.47
  10 -14 -16  -14.91    7.69
 -10  14  16   -0.40    7.46
 -10  14  16    6.35   10.94
   9 -14 -16   29.89   10.36
   9 -14 -16   24.49   10.95
  -9  14  16   11.03   10.97
  -9  14  16   58.83   13.51
   8 -14 -16    0.27    6.71
   8 -14 -16   -3.01    7.17
  -8  14  16   13.24    7.20
  -8  14  16    2.97    9.73
   7 -14 -16   -8.66    6.28
   7 -14 -16    6.13    6.80
  -7  14  16    1.91    6.50
  -7  14  16    1.34    9.36
   6 -14 -16    1.02    5.82
   6 -14 -16    2.02    6.00
  -6  14  16    3.34    6.77
  -6  14  16   -5.65    9.30
  -5  14  16   -0.23    9.76
  -5  14  16   10.50    6.38
   2 -14  16    4.31    9.55
  -1  14 -16    6.83   10.18
   1 -14  16   -7.61    6.89
   1 -14  16   -7.91   10.38
   0  14 -16    1.93   10.33
   0 -14  16   15.59   11.30
   0 -14  16    4.73    6.40
   1  14 -16   -4.57    9.86
  -1 -14  16  -36.28   13.30
  -1 -14  16  -11.27    6.44
   2  14 -16    0.86   15.33
   2  14 -16  -13.42    9.51
   3  14 -16   43.03   17.95
   3  14 -16   43.04   22.80
  -3 -14  16   40.60   13.98
  -3 -14  16  110.89   21.66
   4  14 -16  -20.26   15.67
   4  14 -16    8.53   10.56
  -4 -14  16  -21.74    7.36
  -4 -14  16  -17.37   13.46
   5  14 -16    2.32   15.08
   5  14 -16   -8.68   11.07
  -5 -14  16    9.51    7.21
  -5 -14  16  -17.16   13.14
  -6 -14  16    4.11   13.37
  -6 -14  16    5.11    7.45
   2 -15  16    0.54   10.94
  -1  15 -16    5.64   10.78
   1 -15  16   -8.64    7.17
   1 -15  16   15.23   11.98
   0  15 -16   -2.15   11.02
   0 -15  16  -14.44    7.28
   0 -15  16   12.24   12.52
   1  15 -16   11.86   10.53
   1  15 -16   20.58   15.82
  -1 -15  16    9.47   13.50
  -1 -15  16   -4.39    7.13
   2  15 -16   13.68   10.22
   2  15 -16   -8.55   16.53
  -2 -15  16  -19.55   14.07
  -2 -15  16   -4.86    6.72
   3  15 -16   -8.37   17.23
   3  15 -16    3.86   10.36
  -3 -15  16  -12.47   14.46
  -3 -15  16    3.92    6.85
   4  15 -16   -4.53   17.13
   4  15 -16   15.62   11.42
  -4 -15  16   13.77   14.53
  -4 -15  16    8.34    7.66
   5  15 -16    2.09   16.45
   5  15 -16   -6.46   12.26
  -5 -15  16    5.09    7.64
  -5 -15  16   11.56   14.49
   6  15 -16   22.97   13.80
  -6 -15  16    5.71   14.60
  -6 -15  16    4.04    8.47
  -2  16 -16   17.97   11.35
   2 -16  16  -10.40   12.18
  -1  16 -16    7.07   12.48
   1 -16  16   -4.18   12.94
   1 -16  16    4.01    7.93
   0  16 -16   13.62   12.87
   0 -16  16    6.47    8.35
   0 -16  16   24.62   14.41
   1  16 -16   -9.92   17.03
   1  16 -16   11.19   11.73
  -1 -16  16   -2.52   14.95
  -1 -16  16   13.38    7.47
   2  16 -16  -19.43   18.46
   2  16 -16    7.65   11.86
  -2 -16  16   -6.70    7.59
  -2 -16  16   18.53   15.69
   3  16 -16   32.41   18.46
   3  16 -16    9.73   11.84
  -3 -16  16    2.56    7.96
  -3 -16  16  -30.87   16.40
   4  16 -16  -72.63   27.57
   5  16 -16   18.40   22.52
   6  16 -16   -0.77   15.03
   6  16 -16   17.77   18.00
  -6 -16  16  -12.93    8.96
  -6 -16  16  -26.14   15.80
  -2  17 -16   -4.25   12.63
   2 -17  16    7.56   14.22
  -1  17 -16    0.46   13.66
   1 -17  16   -2.02    8.78
   1 -17  16  -11.51   14.86
   0  17 -16   13.32   18.32
   0  17 -16    8.55   14.52
   0 -17  16   13.25   15.85
   0 -17  16    7.57    8.66
   1  17 -16   -0.41   13.28
   1  17 -16  -25.74   19.45
  -1 -17  16   -3.96   16.27
  -1 -17  16   17.07    8.79
   2  17 -16   12.58   13.58
   2  17 -16  -27.22   19.82
  -2 -17  16  -18.23   17.25
  -2 -17  16   -0.71    8.56
   3  17 -16    0.76   13.28
   3  17 -16    3.03   20.21
  -3 -17  16  -16.32    8.79
  -3 -17  16    5.58   16.94
   4  17 -16    5.33   14.05
   4  17 -16    5.11   20.47
  -4 -17  16   23.94    9.09
  -4 -17  16  -15.08   17.88
   5  17 -16   30.83   14.99
   5  17 -16   -0.67   20.42
  -5 -17  16   -7.24    9.46
  -5 -17  16  -13.32   17.86
   6  17 -16   -5.33   20.31
   6  17 -16   23.46   15.63
  -6 -17  16    8.95   17.83
  -6 -17  16    0.74    9.68
  -2  18 -16   15.24   14.95
   2 -18  16    6.18   16.03
  -1  18 -16   31.33   19.54
  -1  18 -16  -36.32   15.93
   1 -18  16   -3.59   10.04
   1 -18  16    0.40   16.31
   0  18 -16    6.25   20.93
   0  18 -16  -38.52   17.01
   0 -18  16  -17.16   18.52
   0 -18  16  -22.84   10.43
   1  18 -16   19.91   21.04
   1  18 -16  -11.51   14.98
  -1 -18  16   -3.93   17.53
  -1 -18  16   -7.28    9.30
   2  18 -16   26.68   15.69
   2  18 -16   17.15   21.91
  -2 -18  16    0.41    9.67
  -2 -18  16    4.56   18.50
   3  18 -16   16.13   14.97
   3  18 -16  -18.78   22.36
  -3 -18  16   -9.83    9.64
  -3 -18  16    3.76   18.72
   4  18 -16  -28.76   23.43
   4  18 -16   -1.74   15.48
  -4 -18  16   10.21    9.90
  -4 -18  16  -30.58   19.12
   5  18 -16   31.18   23.24
   5  18 -16    8.19   16.45
  -5 -18  16   27.32   10.81
  -5 -18  16  -15.15   19.33
   6  18 -16    2.25   16.82
   6  18 -16   -0.75   21.04
  -6 -18  16  -24.97   19.48
  -6 -18  16    8.04   10.33
   1   0 -17  143.89   31.40
   1   0 -17  133.31   29.15
  -1   0  17   99.72   35.43
   1  -1 -17   -0.24    1.99
   1   1 -17   -0.11    1.84
   1  -1 -17   -1.24    3.34
  -1  -1  17   -0.62    4.84
  -1   1  17   -0.31    5.05
   2   1 -17    1.26    1.84
   1  -2 -17    3.93    3.55
   1  -2 -17    0.12    2.00
   2   1 -17   -0.16    3.30
  -2  -1  17    0.92    4.65
  -1   2  17    0.16    5.08
   2   0 -17   -0.32    1.82
   2   0 -17    2.02    3.17
  -2   0  17    3.72    4.61
   2  -1 -17    1.33    1.91
   2  -1 -17    2.21    3.14
   1   2 -17    0.33    1.92
  -2   1  17    5.09    4.96
   2  -2 -17    0.32    3.37
   2   2 -17    0.95    3.31
   2   2 -17   -0.50    1.84
   2  -2 -17    0.46    2.02
  -2   2  17    0.14    4.64
  -2  -2  17    2.12    4.58
   3   2 -17   31.13    7.06
   3   2 -17   25.66    7.46
   2  -3 -17   28.94    6.37
   2  -3 -17   23.47    7.36
  -3  -2  17   27.08    8.84
  -2   3  17   19.02    9.12
   3   1 -17   17.06    3.70
   3   1 -17   10.28    4.39
   1  -3 -17   10.84    3.59
   1  -3 -17   13.28    4.76
  -1   3  17    8.41    6.34
  -3  -1  17   13.53    5.49
   3   0 -17    7.84    3.14
   3   0 -17   12.86    3.80
  -3   0  17   10.46    4.96
   1   3 -17   16.01    3.98
   3  -1 -17   11.19    3.56
   3  -1 -17   11.39    4.56
  -3   1  17   13.52    5.53
   3  -2 -17   20.97    7.45
   2   3 -17   24.62    8.27
   3  -2 -17   37.06    6.83
   2   3 -17   29.99    7.48
  -3   2  17   32.60    8.79
  -2  -3  17   32.44    9.78
   3  -3 -17    0.15    3.23
   3   3 -17    0.10    1.86
   3   3 -17   -1.37    2.89
   3  -3 -17   -0.49    2.03
  -3   3  17    1.28    4.59
  -3  -3  17   -1.80    4.45
   4   3 -17    9.27    3.92
   3  -4 -17   13.15    4.24
   3  -4 -17   11.46    3.26
   4   3 -17   10.90    3.64
  -4  -3  17   10.08    3.60
  -3   4  17    9.84    5.77
  -4  -3  17   12.32    4.95
   4   2 -17   60.78   12.04
   4   2 -17   52.00   12.49
   2  -4 -17   47.62   12.05
  -2   4  17   59.79   14.28
  -4  -2  17   53.54   13.41
   4   1 -17    7.11    3.60
   1  -4 -17   12.19    4.54
   4   1 -17    9.48    3.32
  -4  -1  17    9.68    4.76
  -1   4  17   10.33    6.57
   4   0 -17    1.72    2.19
   4   0 -17    0.50    2.74
   0   4  17   -0.19    5.74
  -4   0  17   -1.66    4.06
   4  -1 -17   12.40    4.00
   4  -1 -17   10.35    3.50
   1   4 -17   11.65    3.53
  -4   1  17   12.07    4.97
  -1  -4  17   14.44    4.52
   4  -2 -17   43.29   11.31
   4  -2 -17   52.54   11.09
   2   4 -17   50.83   12.17
   2   4 -17   45.25   13.35
  -2  -4  17   59.21   14.90
  -4   2  17   49.85   12.80
   3   4 -17   12.70    4.51
   3   4 -17   13.20    3.60
   4  -3 -17   13.51    3.66
   4  -3 -17   12.79    4.34
  -4   3  17   13.09    5.58
  -3  -4  17    9.68    5.63
   4  -4 -17    0.42    2.58
   4  -4 -17    1.92    3.50
   4   4 -17   -2.25    3.03
   4   4 -17   -0.67    2.19
  -4  -4  17   -1.03    3.91
  -4  -4  17   -0.70    2.26
  -4   4  17    0.89    4.79
   5   4 -17    3.30    2.83
   5   4 -17    0.14    2.49
   4  -5 -17    0.16    3.68
  -5  -4  17    7.98    3.76
  -4   5  17    2.55    5.19
  -5  -4  17    2.86    2.50
   3  -5 -17   19.45    8.03
   5   3 -17   33.81    8.14
   5   3 -17   26.25    8.56
  -3   5  17   37.60    9.90
  -5  -3  17   45.06    9.06
  -5  -3  17   24.05    8.22
   2  -5 -17   -1.62    3.79
   5   2 -17    3.79    3.06
   2  -5 -17    6.67    2.42
   5   2 -17    5.37    2.67
  -2   5  17    7.04    5.96
  -5  -2  17    6.41    3.99
  -5  -2  17    4.54    2.90
   5   1 -17   18.32    6.23
   1  -5 -17   27.84    6.81
   5   1 -17   27.83    6.28
   1  -5 -17   32.67    5.43
  -1   5  17   21.68    8.89
  -5  -1  17   15.34    7.04
  -5  -1  17   20.85    6.22
   0   5 -17    0.49    2.21
   5   0 -17    2.01    2.69
   5   0 -17   -0.13    2.88
   0  -5 -17   -2.29    2.43
   0   5  17    0.39    6.10
   0  -5  17   -0.36    3.51
  -5   0  17   -0.30    3.91
  -5   0  17    2.16    2.91
   1   5 -17   21.80    6.37
   5  -1 -17   19.87    6.07
   5  -1 -17   20.49    6.11
  -1  -5  17   22.57    7.07
  -5   1  17   35.72    6.99
  -5   1  17   14.07    6.10
   5  -2 -17    6.83    3.35
   5  -2 -17    5.97    2.97
   2   5 -17    3.63    2.13
  -5   2  17    2.42    4.39
  -5   2  17    6.20    3.52
  -2  -5  17    7.15    4.61
   5  -3 -17   28.97    8.04
   5  -3 -17   34.46    8.15
  -5   3  17   35.69    8.28
  -5   3  17   36.78    9.27
   5  -4 -17   -1.35    3.63
   5  -4 -17   -0.16    3.15
  -5   4  17   -5.39    3.55
  -5   4  17   -2.20    4.88
   5  -5 -17    6.33    4.91
   5  -6 -17   -1.51    3.97
   5  -6 -17   -2.51    3.29
  -5   6  17   -4.37    4.28
  -5   6  17   -1.81    5.69
   4  -6 -17    4.01    4.93
   6   4 -17    6.76    3.47
   6   4 -17    9.56    3.67
   4  -6 -17   13.64    3.41
  -6  -4  17   14.69    4.39
  -6  -4  17    7.12    3.35
   6   3 -17    0.17    3.25
   6   3 -17   -1.95    3.26
   3  -6 -17   -5.58    4.51
   3  -6 -17   -0.86    2.64
  -6  -3  17   -0.81    2.99
  -6  -3  17    2.16    4.07
  -3   6  17   -5.77    6.30
   6   2 -17   20.82    8.02
   6   2 -17   41.68    8.46
   2  -6 -17   32.59    8.23
   2  -6 -17   22.81    6.75
  -6  -2  17   28.68    8.71
  -6  -2  17   40.23    8.16
  -2   6  17   31.28   10.41
   1  -6 -17    0.96    2.36
   6   1 -17    0.17    2.82
   6   1 -17   -0.52    3.03
   1  -6 -17    1.63    4.19
  -6  -1  17   -0.15    3.19
  -6  -1  17   -0.99    3.96
  -1   6  17    3.06    6.45
   0  -6 -17    0.88    2.52
   6   0 -17    1.02    2.86
   6   0 -17   -1.62    3.35
   0   6  17    0.83    6.33
   0  -6  17    0.20    4.08
  -6   0  17    2.12    3.25
  -6   0  17   -2.26    4.12
   6  -1 -17    1.53    3.13
   6  -1 -17   -1.93    2.95
  -6   1  17    2.04    4.24
  -6   1  17    1.91    3.33
  -1  -6  17    2.70    4.45
   2   6 -17   10.87    9.64
   6  -2 -17   29.96    7.62
   6  -2 -17   32.34    7.70
  -2  -6  17   26.71    7.57
  -2  -6  17   38.20    9.63
  -6   2  17   32.26    8.64
  -6   2  17   25.77    7.88
   6  -3 -17  -14.83    4.71
   6  -3 -17   -7.64    4.40
   6  -4 -17   -1.72    5.05
   6  -4 -17   -3.74    4.31
  -6   4  17   -6.08    5.17
   6  -5 -17    0.16    3.98
  -6   5  17   -2.89    5.36
   6  -6 -17   -0.17    4.35
   6  -6 -17    9.32    3.80
  -6   6  17    1.21    4.08
  -6   6  17    3.06    5.79
   5  -7 -17   -0.18    4.17
   5  -7 -17    7.53    3.44
  -5   7  17    6.38    4.43
  -5   7  17    1.34    6.10
   7   4 -17   -2.43    3.33
   4  -7 -17   -0.35    4.26
   7   4 -17   -0.21    3.39
   4  -7 -17   -1.18    2.96
  -7  -4  17   -1.19    3.09
  -7  -4  17    5.25    4.16
  -4   7  17   -0.94    6.27
   3  -7 -17   40.77    7.14
   7   3 -17   21.28    8.50
   7   3 -17   41.45    8.84
   3  -7 -17   27.61    8.37
  -3   7  17    4.84   10.46
  -7  -3  17   36.94    9.16
  -7  -3  17   27.90    8.29
   7   2 -17   -0.86    3.56
   7   2 -17    2.17    3.44
   2  -7 -17    2.29    2.71
   2  -7 -17    7.65    4.44
  -7  -2  17    0.30    4.39
  -7  -2  17    0.79    3.36
  -2   7  17    0.91    6.79
   1  -7 -17   16.01    5.54
   7   1 -17   15.18    4.48
   7   1 -17   10.75    4.79
   1  -7 -17   10.86    3.72
  -7  -1  17   12.06    4.53
  -7  -1  17   15.18    5.24
  -1   7  17   11.37    7.99
   7   0 -17    8.00    4.12
   7   0 -17    8.01    4.26
   0  -7 -17    1.98    3.09
   0  -7  17    8.77    5.20
  -7   0  17    3.02    4.09
  -7   0  17   13.95    5.01
   0   7  17    1.53    7.39
   7  -1 -17    6.49    4.58
   7  -1 -17   12.91    4.34
  -7   1  17    5.47    5.78
  -7   1  17    8.85    4.55
  -1  -7  17    5.62    5.86
   7  -2 -17    0.21    3.83
   7  -2 -17   -0.91    3.88
   2   7 -17    1.11    5.05
  -2  -7  17    4.64    3.65
  -7   2  17   -6.25    4.28
  -2  -7  17    3.06    5.84
  -7   2  17  -14.48    5.18
   7  -3 -17   31.16    8.03
   7  -3 -17   39.75    8.38
  -7   3  17   28.38    8.24
  -7   3  17   23.42    9.00
   7  -4 -17   10.75    4.21
   7  -4 -17    1.31    4.20
  -7   4  17    8.70    5.52
  -7   4  17   11.99    4.60
   7  -5 -17    0.34    4.17
  -7   5  17   -0.81    5.48
   7  -7 -17    0.25    4.40
  -7   7  17    0.67    5.18
   7  -8 -17    0.20    5.10
   7  -8 -17   -1.05    4.46
  -7   8  17   -4.68    6.52
  -7   8  17    0.24    5.39
   6  -8 -17   -0.23    3.97
  -6   8  17    0.23    5.01
   4  -8 -17   14.84    3.38
   8   4 -17    3.15    3.73
   8   4 -17    5.39    3.78
   4  -8 -17    0.19    4.47
  -4   8  17    0.84    6.83
   8   3 -17   16.48    4.71
   8   3 -17    7.35    4.15
   3  -8 -17    4.07    3.34
   3  -8 -17    6.24    4.64
  -8  -3  17    5.48    3.90
  -8  -3  17    5.91    4.78
  -3   8  17    3.04    7.11
   2  -8 -17   13.79    3.57
   2  -8 -17   14.95    5.48
   8   2 -17    7.05    4.70
   8   2 -17    8.86    4.48
  -2   8  17    0.79    7.94
  -8  -2  17    7.74    5.37
  -8  -2  17   14.04    4.54
   1  -8 -17   -4.06    4.68
   8   1 -17    3.82    3.66
   8   1 -17   -1.82    4.08
   1  -8 -17   -0.45    2.89
  -8  -1  17    1.29    3.76
   1  -8  17    0.63    4.76
  -1   8  17    1.08    7.48
   0  -8 -17    1.59    2.94
   8   0 -17    1.56    4.52
   8   0 -17    1.09    3.66
  -8   0  17   -5.06    3.91
  -8   0  17    4.81    4.89
   0  -8  17    3.87    5.46
   1   8 -17   -1.16    5.66
   8  -1 -17    2.86    3.77
   8  -1 -17   -0.77    4.49
  -1  -8  17   -3.22    6.02
  -1  -8  17    3.13    4.16
  -8   1  17    2.67    3.92
  -8   1  17    3.90    4.95
   2   8 -17    7.95    5.77
   8  -2 -17   12.12    4.87
   8  -2 -17   10.68    4.49
  -8   2  17    5.37    5.52
  -2  -8  17    8.97    7.60
  -8   2  17    9.86    4.76
  -2  -8  17   10.14    4.27
   8  -3 -17    7.34    4.01
   8  -3 -17    8.37    4.56
  -8   3  17    3.16    5.27
  -3  -8  17    9.52    3.75
  -3  -8  17    9.76    7.63
  -8   3  17    0.61    4.71
   8  -4 -17   -3.80    4.20
  -8   4  17    0.80    5.31
   8  -6 -17   -0.19    3.78
   8  -6 -17    0.29    4.80
  -8   6  17    0.23    5.00
   8  -7 -17   11.01    5.04
   8  -7 -17    0.20    5.09
  -8   7  17   -1.19    5.10
  -8   7  17    0.62    6.30
   8  -8 -17   -1.55    5.73
   8  -8 -17   -1.26    5.21
  -8   8  17    0.33    6.92
  -8   8  17   -0.25    5.53
   8  -9 -17   -5.16    5.54
   8  -9 -17   19.85    5.84
  -8   9  17    1.86    5.44
  -8   9  17   -1.07    7.14
   7  -9 -17    5.81    4.95
   7  -9 -17    5.37    5.70
  -7   9  17    9.01    6.00
  -7   9  17   -0.17    7.36
   6  -9 -17   -4.37    4.51
   6  -9 -17  -17.55    5.60
  -6   9  17   -0.72    6.13
  -6   9  17   -1.55    7.81
   5  -9 -17   -0.22    3.96
  -5   9  17    2.21    5.21
   9   4 -17   21.43    6.70
   3  -9 -17    7.50    4.99
   9   3 -17   11.39    4.45
  -9  -3  17    0.41    3.96
  -3   9  17   -0.79    7.73
   9   2 -17    7.30    4.48
   2  -9 -17    4.30    4.99
   2  -9 -17    1.96    3.25
   9   2 -17    6.28    4.09
  -9  -2  17    2.07    4.13
  -2   9  17    1.90    8.01
   1  -9 -17    9.52    4.99
   1  -9 -17   -1.42    3.08
   9   1 -17    3.26    4.15
   9   1 -17   -2.68    3.97
  -1   9  17    0.23    8.08
  -9  -1  17   -3.14    4.08
   1  -9  17    3.38    5.52
   0  -9 -17    2.32    3.13
   9   0 -17    5.10    4.88
   9   0 -17    6.56    4.27
  -9   0  17   -1.49    4.22
   0  -9  17    5.25    6.19
   9  -1 -17    3.37    4.66
   9  -1 -17    1.02    3.99
   1   9 -17   -5.19    6.36
  -1  -9  17   -1.61    7.17
  -9   1  17    6.06    4.39
  -1  -9  17   -6.84    4.42
   2   9 -17    1.17    5.60
   9  -2 -17    4.01    4.28
  -2  -9  17    0.18    7.88
  -2  -9  17    7.04    4.12
   3   9 -17   10.04    5.16
   3   9 -17    0.49    8.80
  -3  -9  17    1.32    4.02
  -3  -9  17    0.37    8.41
   9  -4 -17   33.80    7.32
  -9   4  17   10.78    6.68
   9  -5 -17    0.19    4.65
   9  -5 -17   -6.43    4.96
  -9   5  17  -14.78    6.00
  -9   5  17    0.24    5.09
   9  -6 -17   -6.96    5.52
   9  -6 -17    0.20    4.76
  -9   6  17   -1.08    6.45
   9  -7 -17   -0.21    5.14
   9  -7 -17    0.34    5.56
  -9   7  17    1.14    6.72
  -9   7  17    1.81    5.40
   9  -8 -17    0.22    5.42
   9  -8 -17   -0.36    5.63
  -9   8  17    1.89    6.03
  -9   8  17    0.35    7.13
   9  -9 -17   -4.84    6.03
   9  -9 -17    0.23    5.53
  -9   9  17    0.57    6.05
  -9   9  17    2.38    7.54
   9 -10 -17    0.99    5.99
   9 -10 -17    0.80    6.02
  -9  10  17    1.96    8.03
  -9  10  17    0.61    6.56
   8 -10 -17   -0.24    5.54
   8 -10 -17   -7.05    5.97
  -8  10  17   -1.13    6.21
  -8  10  17    0.19    7.67
   7 -10 -17    4.89    5.47
   7 -10 -17   -0.23    5.58
  -7  10  17    0.19    7.71
  -7  10  17    0.27    5.62
   6 -10 -17    1.10    5.35
   6 -10 -17   -1.33    4.77
  -6  10  17    2.54    5.82
  -6  10  17    4.97    7.50
   5 -10 -17   -5.52    4.14
   5 -10 -17  -16.72    5.80
  -5  10  17  -15.77    8.55
  -5  10  17   -0.24    5.70
   4 -10 -17   -4.37    4.10
  -4  10  17   -7.45    5.72
  10   3 -17    9.88    5.08
  10   2 -17    5.84    4.41
   1 -10 -17    2.51    5.16
  10   1 -17    0.55    4.30
  -1  10  17  -10.45    9.23
   1 -10  17   -3.14    5.94
   0 -10 -17   -0.17    2.76
   0  10 -17   -1.71    6.81
  10   0 -17   -1.31    4.11
   0 -10  17   -4.31    7.06
   1  10 -17   -1.09    6.81
  -1 -10  17   -2.10    4.45
  -1 -10  17    5.34    7.98
   2  10 -17   -2.94    6.13
  10  -2 -17    3.83    5.34
  -2 -10  17    4.99    8.96
 -10   2  17    1.24    4.99
  -2 -10  17   -0.67    4.15
  10  -3 -17   17.72    6.27
   3  10 -17    8.84    6.48
  10  -3 -17   19.80    5.15
   3  10 -17   11.76   10.57
  -3 -10  17   13.66    9.82
 -10   3  17    0.25    5.69
  -3 -10  17   10.05    4.82
  10  -4 -17   -9.30    5.65
  10  -4 -17    0.20    4.59
 -10   4  17   -1.03    5.56
  -4 -10  17  -27.39   10.29
  10  -5 -17   -3.29    4.91
  10  -5 -17   -1.10    5.92
 -10   5  17    1.06    5.27
  10  -6 -17    1.07    5.15
  10  -7 -17    1.12    5.27
  10  -7 -17    0.39    6.15
 -10   7  17    0.29    5.60
 -10   7  17   -1.04    6.88
  10  -8 -17    4.03    6.33
  10  -8 -17    0.23    5.68
 -10   8  17   -0.60    6.11
 -10   8  17    1.64    7.41
  10  -9 -17    0.25    5.83
  10  -9 -17    0.42    6.46
 -10   9  17   -9.42    6.42
 -10   9  17    0.19    7.85
  10 -10 -17   -1.30    6.40
  10 -10 -17   -0.44    6.63
 -10  10  17    2.47    8.70
 -10  10  17    0.33    6.76
  10 -11 -17    0.83    6.52
  10 -11 -17   -1.85    7.37
 -10  11  17    5.05    9.40
 -10  11  17  -10.85    7.22
   9 -11 -17    0.42    7.21
   9 -11 -17    0.26    6.19
  -9  11  17   -2.25    6.83
  -9  11  17   -9.67    8.95
   8 -11 -17    0.25    5.91
   8 -11 -17   -2.60    6.55
  -8  11  17   12.74    8.58
  -8  11  17    0.30    6.35
   7 -11 -17    0.24    5.84
   7 -11 -17    6.13    5.85
  -7  11  17    1.20    8.07
  -7  11  17   -0.28    6.23
   6 -11 -17    4.51    5.41
   6 -11 -17    7.73    5.52
  -6  11  17    1.62    5.96
  -6  11  17   13.89    8.50
   5 -11 -17    1.01    4.70
   5 -11 -17   -7.56    5.33
  -5  11  17    2.85    8.41
  -5  11  17   -1.04    5.77
   4 -11 -17    1.14    4.50
   4 -11 -17    4.95    5.76
  -4  11  17   14.58    8.95
  -4  11  17    1.23    5.81
   3 -11 -17   49.75    9.38
   2 -11 -17   -0.19    3.62
   0 -11  17   -0.23    6.36
   1  11 -17    0.23    8.53
  11  -1 -17   20.28    6.27
  -1 -11  17   22.47    6.49
  11  -2 -17   -3.17    4.90
   2  11 -17   -3.13    6.78
  -2 -11  17   -5.07    5.23
   3  11 -17   -6.38   12.31
  11  -3 -17    0.22    5.41
   3  11 -17    2.40    7.39
  -3 -11  17    0.18    5.41
 -11   3  17    2.00    6.05
  11  -5 -17    0.23    5.13
 -11   5  17    5.05    5.74
  11  -6 -17   -0.23    5.31
  11  -7 -17    7.19    5.64
  11  -7 -17   10.85    6.28
 -11   7  17    0.63    6.34
  11  -8 -17    1.76    5.90
  11  -8 -17    2.69    6.85
 -11   8  17    0.33    6.37
  11  -9 -17    1.86    6.88
  11  -9 -17    0.26    6.27
 -11   9  17    2.07    6.89
 -11   9  17    0.62    8.22
  11 -10 -17   -0.28    6.24
 -11  10  17    8.36    6.86
 -11  10  17    0.65    9.20
  11 -11 -17    0.29    6.67
 -11  11  17   -0.38    7.35
 -11  11  17   -1.60    9.57
  11 -12 -17    4.29    9.90
 -11  12  17   33.24   11.50
 -11  12  17   53.44   13.37
  10 -12 -17    1.45    7.28
  10 -12 -17    1.75    7.00
 -10  12  17    0.74    7.05
 -10  12  17   -6.92    9.49
   9 -12 -17    0.28    6.57
   9 -12 -17    0.44    7.37
  -9  12  17    0.34    6.96
  -9  12  17   -2.01    9.41
   8 -12 -17   -5.07    6.81
   8 -12 -17   -7.91    6.23
  -8  12  17    4.43    6.52
  -8  12  17    2.81    9.07
   7 -12 -17   37.61   11.83
   7 -12 -17   36.03   12.02
  -7  12  17   85.09   15.07
  -7  12  17   16.04   12.63
   6 -12 -17   -4.31    5.39
   6 -12 -17    2.46    6.05
  -6  12  17    2.14    8.86
  -6  12  17   -6.65    6.73
   5 -12 -17   -6.22    5.89
   5 -12 -17   14.55    5.47
  -5  12  17    2.43    9.27
  -5  12  17    4.52    6.08
   4 -12 -17    1.52    5.64
   4 -12 -17    1.45    4.48
  -4  12  17   -6.31    5.75
  -4  12  17   -4.20    9.39
   3 -12 -17    5.25    5.87
   3 -12 -17   -1.11    4.25
  -3  12  17   10.38    9.74
   2 -12 -17    3.21    5.79
   2 -12 -17    1.65    3.95
  -2  12  17    5.58   10.24
   1 -12 -17    5.32    7.97
  -1  12  17   58.52   14.05
   1 -12  17   27.67   11.31
   0 -12 -17    0.19    3.73
   0  12 -17   -0.28    8.24
   0 -12  17   -5.47    5.51
   0 -12  17   -5.84    9.13
   1  12 -17   60.80   14.29
  -1 -12  17   67.06   11.90
   2  12 -17    0.70   12.15
  -2 -12  17    6.34   10.94
   3  12 -17    1.79   12.57
  -3 -12  17   -8.43   10.89
   4  12 -17    8.59   11.78
  -4 -12  17    1.07   11.08
  11 -13 -17    0.32    8.06
 -11  13  17    0.43    7.87
 -11  13  17    3.09   10.85
  10 -13 -17   -0.51    8.30
  10 -13 -17    9.80    7.87
 -10  13  17  -30.05    8.67
 -10  13  17   -7.84   10.69
   9 -13 -17    1.87    7.57
   9 -13 -17   -4.06    6.99
  -9  13  17    1.81    6.93
  -9  13  17  -13.83   10.31
   8 -13 -17    0.84    6.94
   8 -13 -17    0.28    6.33
  -8  13  17    1.84    9.73
  -8  13  17    6.06    7.15
   7 -13 -17  -20.35    6.87
   7 -13 -17   -4.12    6.58
  -7  13  17    5.42    7.20
  -7  13  17    7.01    9.77
   6 -13 -17    1.62    5.41
   6 -13 -17   12.21    6.34
  -6  13  17    0.23    9.64
  -6  13  17    2.44    6.46
   5 -13 -17   25.21   13.27
   5 -13 -17   75.28   14.04
   4 -13 -17   -6.25    6.48
   4 -13 -17    3.16    5.14
  -4  13  17   -3.07    6.56
  -4  13  17  -20.21   10.77
   3 -13 -17   -4.61    4.74
   3 -13 -17   -3.86    6.29
  -3  13  17   -2.61   10.28
  -3  13  17    0.83    6.68
   2 -13 -17   -2.90    4.40
   2 -13 -17    6.16    5.95
  -2  13  17   18.74   10.90
   1 -13 -17   -2.78    4.17
  -1  13 -17   -0.65    8.85
  -1  13  17   12.70   10.61
   1 -13  17    9.03    9.29
   0  13 -17    3.37    9.39
   0 -13 -17    8.54    4.39
   0 -13  17    9.05   10.49
   0 -13  17   -0.27    6.20
   1  13 -17   -3.00    8.69
  -1 -13  17   -0.53   10.99
  -1 -13  17    4.98    5.53
   2  13 -17    0.73    8.36
   2  13 -17   10.15   13.78
  -2 -13  17   16.65   11.66
  -2 -13  17    4.44    5.82
   3  13 -17   12.95    8.27
   3  13 -17   -2.01   14.48
  -3 -13  17   14.96    5.95
  -3 -13  17   -7.33   12.22
   4  13 -17    9.29   14.27
   4  13 -17  -10.09    9.09
  -4 -13  17  -33.00   12.86
  -4 -13  17   -7.94    6.20
  11 -14 -17    2.02    8.11
 -11  14  17   -1.36   11.28
  10 -14 -17  -15.49    8.60
  10 -14 -17   -2.54    7.45
 -10  14  17   19.82   11.48
 -10  14  17    0.41    8.27
   9 -14 -17    1.51    7.21
   9 -14 -17    2.93    8.00
  -9  14  17    6.11    8.02
  -9  14  17    4.95   10.71
   8 -14 -17  -11.45    8.73
   8 -14 -17  -21.30    8.21
  -8  14  17  -24.66    9.25
  -8  14  17  -31.11   12.01
   7 -14 -17    0.28    6.54
   7 -14 -17    0.81    7.13
  -7  14  17   -1.35    7.06
  -7  14  17    1.20   10.00
   6 -14 -17    9.43    6.50
   6 -14 -17    1.07    6.53
  -6  14  17    3.86    7.30
  -6  14  17   -9.29   10.82
   5 -14 -17    1.96    6.44
   5 -14 -17   -3.79    5.59
  -5  14  17  -17.24   10.24
  -5  14  17    1.24    6.97
  -4  14  17   -4.98   10.67
  -4  14  17    0.30    6.77
  -3  14  17    6.91    6.95
   2 -14  17   -5.56    9.70
  -1  14 -17   -1.40   10.08
   1 -14  17   -7.93   10.48
   0  14 -17    2.30   10.05
   0 -14  17  -18.03    7.27
   1  14 -17   -8.21   10.28
  -1 -14  17  -18.11   12.96
  -1 -14  17  -15.23    6.87
   2  14 -17   -9.35    9.34
   2  14 -17   12.97   15.98
  -2 -14  17  -10.58   13.23
  -2 -14  17   -6.00    6.23
   3  14 -17  -14.84   15.75
   3  14 -17   -9.96    9.63
  -3 -14  17   19.15   13.24
  -3 -14  17    9.40    6.48
   4  14 -17    5.93   15.55
   4  14 -17   -1.33    9.80
  -4 -14  17    2.97   13.36
  -4 -14  17    7.76    6.74
  -5 -14  17   -1.69   13.42
   2 -15  17  -14.93   11.06
  -1  15 -17  -10.78   11.08
   1 -15  17   -6.91   12.16
   0  15 -17   -0.36   10.86
   0 -15  17   -8.49   12.67
   0 -15  17   10.41    7.10
   1  15 -17   -2.70   15.34
   1  15 -17    5.79   10.82
  -1 -15  17    6.52   13.51
  -1 -15  17    5.25    7.09
   2  15 -17    3.11   10.16
   2  15 -17    8.63   16.65
  -2 -15  17   -9.25   13.94
  -2 -15  17    0.29    6.78
   3  15 -17   -9.95   17.35
   3  15 -17   -8.85   10.71
  -3 -15  17    2.86   14.61
  -3 -15  17    5.12    7.22
   4  15 -17   14.79   17.27
   4  15 -17   -6.33   10.82
  -4 -15  17    4.62    7.06
  -4 -15  17  -30.95   14.79
  -5 -15  17   15.71    9.09
  -5 -15  17   35.27   15.93
  -1  16 -17   -1.28   12.94
   1 -16  17   -5.79   13.32
   0  16 -17  -19.93   13.58
   0 -16  17  -15.58   15.37
   0 -16  17  -27.37    9.09
   1  16 -17    1.49   17.31
   1  16 -17   10.71   12.45
  -1 -16  17  -20.78    8.22
  -1 -16  17  -41.71   15.96
   2  16 -17   -6.88   18.36
   3  16 -17    6.64  106.61
   4  16 -17  -70.44   27.32
   5  16 -17    7.71   13.56
   5  16 -17    1.19   18.49
  -5 -16  17   38.50   16.67
  -5 -16  17    3.61    8.57
   2 -17  17   11.39   14.21
  -1  17 -17   16.56   14.08
   1 -17  17   10.07   14.96
   0  17 -17  -41.21   18.40
   0  17 -17  -17.33   14.12
   0 -17  17   13.20    9.21
   0 -17  17   -4.53   15.68
   1  17 -17  -35.75   18.90
   1  17 -17    2.59   13.92
  -1 -17  17    0.36    8.26
  -1 -17  17   -0.40   16.25
   2  17 -17   16.31   20.34
   2  17 -17   -8.29   14.05
  -2 -17  17    9.02    8.73
  -2 -17  17   -6.20   16.96
   3  17 -17   34.82   20.77
   3  17 -17    7.41   13.76
  -3 -17  17   15.86   17.21
  -3 -17  17  -17.81    8.88
   4  17 -17   16.77   14.32
   4  17 -17  -16.74   21.38
  -4 -17  17  -13.45    8.89
  -4 -17  17   17.75   18.15
   5  17 -17   12.21   14.75
   5  17 -17    8.06   21.48
  -5 -17  17    7.37   18.04
  -5 -17  17    2.52    9.19
  -1  18 -17    6.88   15.37
   0  18 -17   13.35   15.56
   0  18 -17   -3.99   20.20
   0 -18  17  -25.89   17.80
   0 -18  17  -16.04   10.44
   1  18 -17    2.42   21.33
   1  18 -17    4.39   15.75
  -1 -18  17    4.65   10.06
  -1 -18  17    0.44   17.48
   2  18 -17   -0.64   21.92
   2  18 -17   -2.81   15.87
  -2 -18  17    3.21    9.60
  -2 -18  17    5.90   18.41
   3  18 -17   -2.70   22.82
   3  18 -17   -7.03   15.01
  -3 -18  17   -3.23    9.74
  -3 -18  17   -5.16   19.04
   4  18 -17  -23.87   23.66
   4  18 -17  -14.41   16.17
  -4 -18  17  -12.81   19.19
  -4 -18  17  -12.83   10.42
   5  18 -17   42.39   17.06
   5  18 -17   -7.48   22.92
  -5 -18  17   16.84   11.29
  -5 -18  17   11.13   20.04
   1   0 -18    2.13    3.57
   1   0 -18   -0.63    2.20
  -1   0  18    0.67    5.36
   1  -1 -18   37.35   12.09
   1  -1 -18   50.10   10.85
   1   1 -18   49.54   11.53
  -1  -1  18   43.79   14.36
  -1   1  18   50.75   14.15
   2   1 -18   -1.38    3.60
   2   1 -18    0.91    2.03
   1  -2 -18    0.26    2.19
   1  -2 -18    0.39    3.92
  -1   2  18   -0.87    5.56
  -2  -1  18   -1.90    5.26
   2   0 -18    6.69    4.06
   2   0 -18    3.96    2.49
  -2   0  18    7.27    5.31
   2  -1 -18    0.12    2.07
   1   2 -18    1.21    1.99
   2  -1 -18   -0.69    3.46
  -2   1  18    9.20    5.35
   2  -2 -18    5.31    2.87
   2  -2 -18    3.86    4.21
   2   2 -18    9.80    2.84
   2   2 -18   12.32    4.01
  -2   2  18    6.42    5.68
  -2  -2  18    9.17    5.67
   3   2 -18    3.78    2.05
   2  -3 -18    3.07    3.79
   3   2 -18    0.30    3.27
   2  -3 -18    1.90    2.30
  -3  -2  18    1.00    4.96
  -2   3  18   -0.64    5.49
   1  -3 -18   37.30    8.18
   3   1 -18   37.64    7.54
   1  -3 -18   27.71    6.98
   3   1 -18   12.72    7.87
  -3  -1  18   33.94    9.56
  -1   3  18   34.70   10.23
   3   0 -18    1.52    3.42
   3   0 -18   -0.12    2.27
  -3   0  18    1.39    4.64
   3  -1 -18   34.33    8.11
   1   3 -18   30.22    8.31
   3  -1 -18   26.66    7.35
  -3   1  18   37.70    9.37
   2   3 -18    0.53    1.92
   2   3 -18    7.64    3.80
   3  -2 -18    2.97    3.44
   3  -2 -18    2.91    2.51
  -2  -3  18   -2.85    5.45
  -3   2  18    0.40    4.95
   3  -3 -18   33.22    8.71
   3   3 -18   36.99   10.39
   3   3 -18   33.65    9.84
   3  -3 -18   45.20    9.63
  -3   3  18   38.43   11.26
  -3  -3  18   54.10   11.83
   4   3 -18   48.36   13.28
   3  -4 -18   49.89   11.35
   3  -4 -18   54.03   12.38
   4   3 -18   46.57   12.86
  -3   4  18   60.63   14.43
  -4  -3  18   64.71   14.37
   2  -4 -18   68.99   14.49
   2  -4 -18   69.79   16.40
   4   2 -18   62.67   17.32
  -4  -2  18   64.41   18.60
  -2   4  18   57.90   19.42
   1  -4 -18   36.86    7.65
   4   1 -18   12.56    7.02
   4   1 -18   35.25    6.99
  -1   4  18   32.36    9.80
  -4  -1  18   25.44    8.17
   4   0 -18   39.92    8.85
   4   0 -18   35.18    8.85
  -4   0  18   28.89   10.11
   4  -1 -18   41.23    7.67
   4  -1 -18   28.21    7.41
   1   4 -18   26.13    8.03
  -4   1  18   42.74    8.76
   4  -2 -18   68.81   16.20
   2   4 -18   82.18   18.15
   4  -2 -18   78.69   16.41
  -4   2  18   60.96   18.63
  -2  -4  18   73.57   21.68
   4  -3 -18   54.05   11.66
   3   4 -18   53.00   12.69
   3   4 -18   45.03   13.39
   4  -3 -18   41.65   11.26
  -3  -4  18   48.39   15.08
  -4   3  18   49.07   13.46
   4   4 -18   31.44    7.57
   4   4 -18   39.46    7.48
   4  -4 -18   25.27    6.59
   4  -4 -18   20.28    7.57
  -4  -4  18   22.94    7.12
  -4   4  18    3.40    9.49
  -4  -4  18   36.00    8.63
   4  -5 -18   -7.89    5.25
   5   4 -18    7.31    3.30
   5   4 -18    5.84    2.82
  -5  -4  18    6.38    4.32
  -5  -4  18    7.14    2.97
   5   3 -18   13.31    3.25
   3  -5 -18    3.98    4.59
   5   3 -18   12.83    3.41
  -3   5  18   -8.65    6.78
  -5  -3  18    2.93    4.49
  -5  -3  18   11.27    3.41
   2  -5 -18   38.83    9.38
   5   2 -18   30.22    9.14
   5   2 -18   41.60    9.56
  -2   5  18   54.29   11.74
  -5  -2  18   30.66   10.19
  -5  -2  18   16.60    9.17
   1  -5 -18    4.61    4.32
   5   1 -18    7.14    3.27
   1  -5 -18   -0.85    2.78
   5   1 -18    7.13    3.05
  -5  -1  18    5.03    3.25
  -1   5  18   12.40    6.52
  -5  -1  18    5.55    4.33
   5   0 -18   -1.22    2.75
   5   0 -18    0.82    3.23
  -5   0  18   -1.42    3.03
   0  -5  18   -2.56    3.54
  -5   0  18    5.34    4.40
   5  -1 -18    5.10    3.35
   5  -1 -18    5.35    3.07
   1   5 -18    3.42    2.40
  -1  -5  18    5.59    4.13
  -5   1  18   10.47    4.69
  -5   1  18    3.74    3.41
   5  -2 -18   51.76    9.43
   5  -2 -18   43.64    9.42
  -5   2  18   37.87    9.63
  -5   2  18   31.32   10.63
   5  -3 -18   -3.42    4.45
   5  -3 -18    8.58    4.15
  -5   3  18   -9.94    4.69
   5  -4 -18  -11.96    4.48
   5  -4 -18   -2.40    4.69
  -5   4  18  -12.19    4.59
   5  -5 -18    2.86    4.01
  -5   5  18    0.14    5.82
   5  -6 -18    9.24    3.56
   5  -6 -18    0.18    4.08
  -5   6  18    2.10    6.28
  -5   6  18   13.91    4.52
   6   4 -18    3.58    3.19
   6   4 -18    3.74    3.41
   4  -6 -18    0.18    4.15
   4  -6 -18    3.59    3.19
  -4   6  18    2.80    6.32
  -6  -4  18    1.87    3.05
   3  -6 -18   56.98   12.68
   6   3 -18   43.06   13.28
   3  -6 -18   61.45   11.31
   6   3 -18   62.23   13.96
  -6  -3  18   45.57   13.27
  -6  -3  18   66.47   14.16
  -3   6  18   11.21   15.31
   2  -6 -18    3.14    2.58
   6   2 -18    1.22    3.10
   6   2 -18    2.43    3.32
   2  -6 -18   -1.43    4.49
  -6  -2  18    8.92    4.39
  -2   6  18   -7.23    7.09
  -6  -2  18    1.75    3.12
   1  -6 -18   25.09    6.85
   6   1 -18   23.36    8.59
   6   1 -18   25.15    8.32
   1  -6 -18   27.97    8.64
  -6  -1  18   36.36    9.19
  -1   6  18   22.69   11.44
  -6  -1  18   23.84    8.30
   6   0 -18   11.18    4.63
   6   0 -18   11.87    4.56
   0  -6  18    2.57    4.97
  -6   0  18   19.71    5.66
  -6   0  18    9.79    4.62
   6  -2 -18   -9.94    5.06
   6  -2 -18   -3.14    4.19
   6  -3 -18   53.49   12.57
   6  -3 -18   66.29   12.68
  -6   3  18   54.79   13.83
  -6   3  18   28.18   12.88
   6  -4 -18    5.47    4.64
   6  -4 -18    7.48    3.95
  -6   4  18   10.80    5.78
  -6   4  18    9.57    4.49
   6  -5 -18    2.08    4.40
  -6   5  18   -8.97    5.75
   6  -7 -18    0.45    3.96
  -6   7  18    0.22    4.84
   7   4 -18   10.87    3.74
   4  -7 -18    3.48    4.55
   4  -7 -18   -0.17    3.21
   7   4 -18    5.47    3.65
  -4   7  18    1.33    6.77
   7   3 -18    2.79    3.85
   3  -7 -18   -1.75    3.02
   7   3 -18    1.13    3.46
   3  -7 -18    1.42    4.41
  -3   7  18   -0.18    6.85
  -7  -3  18    2.19    3.25
  -7  -3  18    0.31    4.56
   7   2 -18   27.79    8.78
   7   2 -18   30.16    9.25
   2  -7 -18   25.90    7.13
   2  -7 -18   25.93    8.87
  -7  -2  18   38.89    8.69
  -7  -2  18   36.91    9.58
  -2   7  18    6.91   11.60
   7   1 -18    5.58    3.93
   1  -7 -18    3.43    4.45
   7   1 -18    1.04    3.65
   1  -7 -18    0.15    2.99
  -1   7  18    0.87    7.42
  -7  -1  18   -0.51    3.61
  -7  -1  18   -1.44    4.78
   7   0 -18   -1.10    3.83
   0  -7 -18   -0.97    3.11
   7   0 -18    2.13    3.68
  -7   0  18   -0.23    4.76
  -7   0  18   -0.17    3.78
   0  -7  18   -0.23    4.76
   7  -1 -18    0.16    3.71
   7  -1 -18   -1.08    3.81
  -1  -7  18    1.46    5.32
  -7   1  18    0.36    4.89
  -7   1  18   -1.80    3.75
   7  -2 -18   39.89    9.45
   7  -2 -18   46.67    9.38
  -7   2  18   29.38    9.56
  -7   2  18   43.27   10.38
   7  -3 -18   -0.17    3.90
   7  -3 -18   -1.14    4.27
  -7   3  18   -8.24    5.30
  -7   3  18    2.72    4.29
   7  -4 -18   15.50    4.68
  -7   4  18    5.52    6.06
   7  -6 -18    4.63    4.27
  -7   6  18    0.22    4.60
   7  -7 -18    3.05    4.11
   7  -7 -18    0.80    5.38
  -7   7  18    0.16    6.47
  -7   7  18   -5.39    5.48
   7  -8 -18   -9.57    5.74
   7  -8 -18   -5.23    5.19
  -7   8  18   -3.76    7.92
  -7   8  18    2.98    6.08
   6  -8 -18    1.02    5.26
   6  -8 -18    1.64    4.69
  -6   8  18   -0.17    6.88
  -6   8  18    0.48    5.41
   5  -8 -18   -0.21    3.61
  -5   8  18   -0.22    4.61
   8   3 -18   17.17    4.85
   8   3 -18   13.53    4.89
   3  -8 -18    5.61    5.41
  -8  -3  18   17.51    5.67
  -8  -3  18    7.89    4.55
  -3   8  18    2.93    8.24
   8   2 -18    1.88    3.76
   2  -8 -18   -4.59    4.68
   8   2 -18    0.26    4.11
   2  -8 -18    5.29    2.85
  -8  -2  18    4.04    3.75
  -8  -2  18   -4.75    4.77
  -2   8  18   -0.42    7.79
   1  -8 -18    5.26    3.17
   8   1 -18    0.79    4.42
   8   1 -18    5.60    3.88
   1  -8 -18    8.43    5.10
  -1   8  18    0.93    8.45
  -8  -1  18    0.23    5.14
  -8  -1  18    3.20    4.00
   8   0 -18    2.45    3.92
   0  -8 -18    2.86    3.15
   8   0 -18   -7.09    4.80
  -8   0  18    2.11    3.88
   0  -8  18    4.31    5.55
  -8   0  18    0.12    4.92
   8  -1 -18   11.15    4.16
   1   8 -18   -3.24    5.54
   8  -1 -18    6.71    4.88
  -8   1  18   -1.25    5.34
  -1  -8  18    8.78    6.19
  -8   1  18    7.75    4.17
   8  -2 -18   -0.85    4.05
   8  -2 -18    6.13    4.75
  -2  -8  18    0.49    3.80
  -2  -8  18   -2.35    6.95
  -8   2  18    1.63    4.05
  -8   2  18   -3.09    5.17
   8  -3 -18   10.70    4.80
  -8   3  18    0.93    5.95
   8  -5 -18    0.87    4.82
   8  -5 -18   -0.19    4.11
  -8   5  18    6.92    5.97
  -8   5  18   -0.46    4.75
   8  -6 -18    0.20    4.53
  -8   6  18   -0.78    6.34
   8  -7 -18   -0.31    5.46
   8  -7 -18    0.21    5.27
  -8   7  18   -6.10    6.95
  -8   7  18   -3.00    5.52
   8  -8 -18   17.49    6.90
   8  -8 -18   14.20    6.50
  -8   8  18    3.18    8.37
  -8   8  18   21.34    7.23
   8  -9 -18   -9.86    6.13
   8  -9 -18    4.75    6.24
  -8   9  18    2.81    7.64
  -8   9  18  -10.02    6.02
   7  -9 -18    0.22    5.40
   7  -9 -18    0.29    5.09
  -7   9  18    0.26    5.60
  -7   9  18    0.18    7.57
   6  -9 -18   -1.78    4.83
   6  -9 -18   -1.96    5.62
  -6   9  18  -11.91    6.04
  -6   9  18    4.41    8.10
   5  -9 -18   -0.22    5.39
   5  -9 -18   -0.23    4.36
  -5   9  18   -2.05    8.29
  -5   9  18   -2.33    5.68
   4  -9 -18   -3.00    3.50
   9   3 -18    5.41    4.20
  -9  -3  18    3.49    3.92
   9   2 -18    3.27    4.66
   9   2 -18    9.28    4.50
  -9  -2  18    5.64    4.37
   1  -9 -18   14.23    5.65
   9   1 -18    6.28    4.30
   9   1 -18    4.24    4.94
  -1   9  18    1.24    8.82
  -9  -1  18    4.91    4.32
   1  -9  18   -0.84    5.73
   9   0 -18    4.35    5.02
   9   0 -18    6.54    4.49
   0  -9  18    3.54    6.31
  -9   0  18    6.52    4.58
   9  -1 -18    6.30    4.16
   1   9 -18   -1.08    6.40
  -1  -9  18   -3.07    7.23
   2   9 -18    4.43    6.10
  -2  -9  18    3.01    4.31
  -2  -9  18   21.79    8.32
   9  -3 -18    1.27    4.70
  -9   3  18    3.69    5.05
   9  -4 -18    5.02    4.53
   9  -4 -18   -0.33    5.61
  -9   4  18   -0.24    4.94
  -9   4  18    0.44    5.95
   9  -5 -18    1.00    4.79
   9  -5 -18    0.33    5.52
  -9   5  18    3.21    5.12
  -9   5  18    0.16    6.26
   9  -6 -18   -0.21    5.09
  -9   6  18    0.16    6.84
   9  -7 -18    5.25    5.31
   9  -7 -18    4.64    6.12
  -9   7  18    0.27    5.91
  -9   7  18    0.17    6.87
   9  -8 -18    0.23    5.59
   9  -8 -18    0.37    6.38
  -9   8  18    0.28    5.62
  -9   8  18    0.18    7.53
   9  -9 -18    3.10    6.81
   9  -9 -18   -0.25    5.88
  -9   9  18    1.49    6.78
  -9   9  18  -10.08    7.95
   9 -10 -18   19.09    7.13
   9 -10 -18    0.26    6.48
  -9  10  18    0.31    7.10
  -9  10  18    6.23    9.66
   8 -10 -18    0.50    6.07
   8 -10 -18   -8.93    6.35
  -8  10  18   -3.80    8.28
  -8  10  18   -0.59    6.58
   7 -10 -18   -8.13    5.87
   7 -10 -18   -0.31    5.11
  -7  10  18    1.68    6.21
  -7  10  18    0.20    7.89
   6 -10 -18    0.54    4.70
   6 -10 -18   -7.69    5.65
  -6  10  18   -0.39    7.98
  -6  10  18    0.27    5.78
   5 -10 -18   -0.72    4.39
   5 -10 -18    0.92    5.43
  -5  10  18    1.25    5.79
  -5  10  18    1.42    8.35
   4 -10 -18    3.79    5.81
   4 -10 -18    0.87    4.16
  -4  10  18    0.64    8.48
  -4  10  18   -7.89    5.97
   3 -10 -18   57.86   10.78
  10   2 -18   -5.07    4.54
   2 -10 -18    1.47    3.28
  10   1 -18    4.94    4.79
   1 -10  18   13.67    6.38
   0 -10  18   -0.17    7.15
  10  -1 -18    4.25    5.18
   1  10 -18   -3.46    6.91
 -10   1  18   -0.25    4.74
  -1 -10  18   -3.68    5.07
  -1 -10  18   -5.00    8.07
  10  -2 -18    8.84    4.64
  10  -2 -18    2.16    5.88
   2  10 -18   -6.16    6.76
  -2 -10  18  -13.27    9.28
  -2 -10  18   -4.18    4.65
 -10   2  18    3.55    4.82
  10  -3 -18    6.23    5.79
  10  -3 -18    5.09    6.40
 -10   3  18    0.26    6.20
  10  -4 -18   -0.21    4.85
  10  -4 -18    8.54    6.13
 -10   4  18    0.27    5.40
  10  -5 -18    0.64    5.12
  10  -5 -18    0.38    5.98
 -10   5  18    0.50    6.70
 -10   5  18    1.09    5.33
  10  -6 -18    0.22    5.44
 -10   6  18   -0.69    6.78
  10  -7 -18   -3.01    5.43
  10  -7 -18    0.40    6.42
 -10   7  18    2.55    7.40
 -10   7  18    0.29    5.89
  10  -8 -18  -24.27    7.04
  10  -8 -18    1.22    5.98
 -10   8  18    8.63    5.95
 -10   8  18    0.19    7.86
  10  -9 -18   20.04    7.47
  10  -9 -18   16.92    6.82
 -10   9  18    1.30    7.25
 -10   9  18    4.07    9.07
  10 -10 -18   -0.46    7.54
  10 -10 -18    0.27    6.39
 -10  10  18   -3.04    9.04
 -10  10  18   -8.56    7.06
  10 -11 -18  -10.96    7.95
  10 -11 -18   -0.29    6.73
 -10  11  18   -2.51    9.65
 -10  11  18    0.36    6.90
   9 -11 -18    8.25    6.91
   9 -11 -18    3.84    7.45
  -9  11  18    1.33    7.33
  -9  11  18    5.97    9.31
   8 -11 -18   -4.65    7.25
  -8  11  18  -26.56    9.78
  -8  11  18   -3.77    6.99
   7 -11 -18   -0.34    6.18
   7 -11 -18   -5.07    6.18
  -7  11  18   23.81    9.06
  -7  11  18    5.38    6.92
   6 -11 -18   -0.30    5.45
   6 -11 -18    1.72    5.79
  -6  11  18    1.07    9.04
  -6  11  18    0.85    6.18
   5 -11 -18   -9.74    6.02
   5 -11 -18   -0.79    4.65
  -5  11  18   -1.10    8.90
  -5  11  18    0.27    6.44
   4 -11 -18   -0.77    6.41
   4 -11 -18    1.86    4.16
  -4  11  18   14.62    8.89
  -4  11  18    0.52    5.94
   3 -11 -18   -6.11    6.02
   3 -11 -18   -0.64    3.94
  11   3 -18   -1.41    4.92
  -3  11  18   15.83    9.57
   2 -11 -18   -0.80    4.02
   2 -11 -18   -2.99    5.83
  -2  11  18   27.38   10.23
   1 -11 -18   33.27    9.47
  -1  11  18   71.44   12.73
   0 -11 -18    0.39    3.80
  11   0 -18   -7.14    5.28
  11  -1 -18   14.49    6.58
   2  11 -18    3.13    6.64
  11  -2 -18  -12.52    5.30
 -11   2  18    7.73    5.73
  -2 -11  18   -3.65    4.98
  11  -3 -18   -0.22    5.13
  -3 -11  18    4.22    4.67
 -11   3  18    1.74    5.63
  11  -4 -18    1.67    5.92
  11  -4 -18    0.23    5.08
 -11   4  18   -8.86    5.57
  11  -5 -18    0.85    6.56
  11  -5 -18   -0.46    5.27
 -11   5  18    0.30    5.42
  11  -6 -18    0.71    5.64
  11  -7 -18    0.44    6.67
  11  -7 -18    6.98    6.10
 -11   7  18    1.17    7.85
 -11   7  18    0.65    6.45
  11  -8 -18   -3.21    7.23
  11  -8 -18   -1.29    6.07
 -11   8  18   -0.20    8.24
 -11   8  18    0.34    6.66
  11  -9 -18   18.57    7.25
  11  -9 -18    0.54    6.50
 -11   9  18   -0.22    8.81
 -11   9  18   -0.35    7.19
  11 -10 -18  -10.57    7.49
  11 -10 -18   -0.29    6.87
 -11  10  18    0.37    7.19
 -11  10  18    3.90    9.44
  11 -11 -18    7.88    8.28
  11 -11 -18    0.61    7.40
 -11  11  18   20.20   10.51
 -11  11  18    0.39    8.00
  11 -12 -18    0.32    7.45
 -11  12  18  -23.54   11.15
 -11  12  18    5.00    8.43
  10 -12 -18    0.50    8.12
  10 -12 -18  -24.70    7.50
 -10  12  18   -0.38    7.59
 -10  12  18    3.66    9.98
   9 -12 -18    2.29    7.31
   9 -12 -18    0.87    6.73
  -9  12  18    6.54    9.96
  -9  12  18    4.61    7.54
   8 -12 -18    0.56    6.60
   8 -12 -18    0.41    6.78
  -8  12  18    0.66    7.14
  -8  12  18   -5.05    9.70
   7 -12 -18    0.27    6.20
   7 -12 -18   -7.14    6.35
  -7  12  18    8.82    9.59
  -7  12  18    2.22    7.11
   6 -12 -18    1.25    5.91
   6 -12 -18  -24.95    7.15
  -6  12  18   28.49    7.63
  -6  12  18    7.36    9.86
   5 -12 -18    7.01    5.32
  -5  12  18    5.39    9.60
  -5  12  18   -0.29    6.33
   4 -12 -18   -1.02    4.56
   4 -12 -18    0.28    6.25
  -4  12  18  -12.42   10.00
  -4  12  18   -6.67    6.21
   3 -12 -18   -0.94    5.58
   3 -12 -18    0.28    7.14
  -3  12  18  -11.83   11.55
   2 -12 -18   -1.30    5.17
   2 -12 -18    4.29    6.85
  -2  12  18   19.17   11.63
   1 -12 -18    1.25    4.08
  -1  12  18    7.44   10.42
   1 -12  18    5.57    8.21
   0 -12 -18    9.45    4.70
   0  12 -18   17.66    8.91
   0 -12  18    9.83    9.60
   1  12 -18   -8.26    8.16
  -1 -12  18   -3.77   10.30
  -1 -12  18   14.89    5.66
   2  12 -18    7.46   14.21
   2  12 -18   49.05    9.88
  -2 -12  18   17.55   12.59
  -2 -12  18   36.62    7.63
   3  12 -18    9.11   14.16
  -3 -12  18   -8.75   12.03
  12  -9 -18   -0.29    6.89
 -12   9  18    8.35    9.15
  12 -10 -18   -5.51    7.33
 -12  10  18   14.67   10.29
  12 -11 -18    4.18    7.64
 -12  11  18  -15.56   10.91
  12 -12 -18    0.34    7.96
 -12  12  18  -10.58   11.74
  12 -13 -18    0.36    8.49
 -12  13  18    0.57   12.39
  11 -13 -18    6.07    8.14
 -11  13  18   -9.26    8.47
 -11  13  18    8.42   11.92
  10 -13 -18   -5.80    8.66
  10 -13 -18   -0.32    7.69
 -10  13  18    5.41   11.19
 -10  13  18    0.41    8.41
   9 -13 -18  -13.00    8.89
   8 -13 -18   -2.58    7.31
   8 -13 -18    2.33    6.97
  -8  13  18  -15.26   10.87
  -8  13  18    3.85    7.53
   7 -13 -18    4.72    7.18
   7 -13 -18   -0.28    6.57
  -7  13  18    6.06    7.69
  -7  13  18   -1.70   10.04
   6 -13 -18   -0.28    6.88
   6 -13 -18   -0.34    6.18
  -6  13  18    6.80    7.31
  -6  13  18   -7.79    9.99
   5 -13 -18    2.14    5.66
   5 -13 -18    1.69    6.67
  -5  13  18    8.62   10.09
  -5  13  18    2.85    6.87
   4 -13 -18  -18.92    7.73
   4 -13 -18    0.84    5.72
  -4  13  18  -12.72    7.27
   3 -13 -18   -0.29    6.46
   3 -13 -18    0.26    4.89
  -3  13  18   -1.48    7.24
  -3  13  18  -32.22   11.65
   2 -13 -18   -3.06    4.55
   2 -13 -18    0.89    6.36
  -2  13  18    0.60   10.88
   1 -13 -18    1.58    4.53
   1 -13  18   -7.03    9.26
   0  13 -18   -9.98    9.34
   0 -13 -18    0.22    4.23
   0 -13  18    5.52    6.21
   0 -13  18   -9.92   10.31
   1  13 -18   25.54    9.17
  -1 -13  18    5.03    6.11
  -1 -13  18    3.67   11.08
   2  13 -18  -11.12    8.61
   2  13 -18    5.52   14.22
  -2 -13  18  -24.90   12.51
   3  13 -18  -18.56    9.15
   3  13 -18   -7.35   14.88
  11 -14 -18    0.35    8.39
 -11  14  18   -2.00   12.21
 -11  14  18    0.46    8.91
  10 -14 -18    2.20    8.58
  10 -14 -18    0.33    7.66
 -10  14  18   -5.12    8.83
 -10  14  18  -14.70   11.67
   9 -14 -18   -9.17    7.67
   9 -14 -18   -7.67    8.64
  -9  14  18   -1.05   11.01
  -9  14  18    0.40    7.80
   8 -14 -18  -27.32   10.33
   7 -14 -18   -2.48    7.09
   7 -14 -18   -4.14    7.30
  -7  14  18   -3.10   10.89
  -7  14  18    0.35    7.59
   6 -14 -18   13.14    7.22
   6 -14 -18   -6.10    6.34
  -6  14  18    0.52   10.84
  -6  14  18   -1.02    7.32
   5 -14 -18    2.09    6.86
   5 -14 -18    0.32    6.10
  -5  14  18    5.92    7.35
  -5  14  18   23.64   11.47
   4 -14 -18    2.12    5.35
   4 -14 -18    3.04    6.87
  -4  14  18   -5.43    7.20
  -4  14  18  -13.91   11.50
   3 -14 -18   -6.11    6.57
   3 -14 -18   -2.23    5.44
  -3  14  18   -8.00    6.96
  -3  14  18  -14.47   11.44
  -2  14  18   -3.43   11.30
   1 -14  18  -16.69   10.89
   0  14 -18    8.20   10.28
   0 -14  18  -10.05   11.85
   0 -14  18    0.30    6.80
   1  14 -18    0.98   10.65
  -1 -14  18  -22.79   12.93
  -1 -14  18  -13.59    6.93
   2  14 -18   -1.31   15.03
   2  14 -18   -4.64    9.50
  -2 -14  18    2.64    6.21
  -2 -14  18  -11.23   12.89
   3  14 -18  -12.23   15.88
   3  14 -18   17.52    9.43
  -3 -14  18    7.17   13.60
  -3 -14  18   -6.99    6.22
  -4 -14  18   14.28   14.17
 -11  15  18   14.92   13.89
 -10  15  18    3.59    8.78
  -1  15 -18    9.75   10.69
   1 -15  18   10.97   11.94
   0  15 -18    9.83   11.32
   0 -15  18   -4.25   12.58
   0 -15  18   -9.23    7.53
   1  15 -18   -8.17   15.86
   1  15 -18    8.73   11.46
  -1 -15  18  -10.77    7.18
  -1 -15  18   15.94   13.45
   2  15 -18    2.90   16.73
   2  15 -18  -11.12   11.11
  -2 -15  18   -5.61    6.99
  -2 -15  18   -9.60   14.08
   3  15 -18   -6.54   16.96
   3  15 -18    9.18   11.22
  -3 -15  18   16.52    7.41
  -3 -15  18    3.57   14.97
  -4 -15  18   29.27   14.76
  -4 -15  18  -12.82    7.71
  -1  16 -18   49.00   14.70
   1 -16  18  -36.10   14.83
   0  16 -18   91.31   21.11
   0 -16  18   29.87   14.17
   0 -16  18   35.19   20.09
   1  16 -18   49.78   16.71
   1  16 -18   59.61   19.75
  -1 -16  18  -26.94   16.93
   2  16 -18   -8.53   18.99
   3  16 -18   -3.91   19.00
   3  16 -18    1.79   12.88
  -3 -16  18   -5.83    8.09
  -3 -16  18  -44.22   16.86
   4  16 -18   20.79   12.45
  -4 -16  18    4.82   16.14
  -4 -16  18   -0.32    8.19
  -1  17 -18    6.68   13.42
   1 -17  18   -3.96   14.69
   0  17 -18   24.37   18.64
   0  17 -18   16.48   14.77
   0 -17  18    3.64    9.19
   0 -17  18  -20.38   15.94
   1  17 -18   -3.32   19.34
   1  17 -18   15.61   14.66
  -1 -17  18   -6.48    9.09
  -1 -17  18   -3.55   16.44
   2  17 -18    2.09   13.89
   2  17 -18   -5.83   20.07
  -2 -17  18    1.66   17.15
  -2 -17  18   14.70    8.70
   3  17 -18   25.23   20.92
   3  17 -18    6.49   14.09
  -3 -17  18   -2.14   17.13
  -3 -17  18    4.33    8.64
   4  17 -18   -7.62   14.63
   4  17 -18   15.56   21.17
  -4 -17  18  -25.75   17.70
  -4 -17  18   11.18    9.01
  -1  18 -18   17.59   15.14
   0  18 -18  -12.16   16.63
   0  18 -18   14.33   20.18
   0 -18  18   12.60   10.28
   1  18 -18   23.73   21.54
   1  18 -18   -6.75   16.25
  -1 -18  18    0.43    9.60
   2  18 -18    0.47   15.83
   2  18 -18   37.82   22.59
  -2 -18  18   20.46   10.61
  -2 -18  18   24.86   18.50
   3  18 -18    0.92   15.74
   3  18 -18   28.49   22.98
  -3 -18  18    6.55   18.70
  -3 -18  18   -1.64    9.76
   4  18 -18   38.78   23.75
   4  18 -18    6.31   15.84
  -4 -18  18  -20.96   10.32
   1   0 -19   53.50   11.48
  -1   0  19   37.05   14.72
   1   1 -19    1.21    2.32
   1  -1 -19   -1.39    2.40
   1  -1 -19   -3.98    3.95
  -1   1  19    3.14    5.78
   1  -2 -19    0.14    2.43
   2   1 -19   -2.82    3.85
   1  -2 -19    0.63    4.08
   2   1 -19    0.37    2.23
  -2  -1  19   -0.16    5.52
  -1   2  19   -2.63    6.36
   2   0 -19   -4.89    4.01
   2   0 -19   -0.88    2.27
  -2   0  19   -0.97    5.54
   1   2 -19   -0.53    2.32
   2  -1 -19    0.75    3.97
   2  -1 -19    0.77    2.19
  -2   1  19    2.46    5.55
   2   2 -19    1.53    4.04
   2  -2 -19    1.20    2.29
   2  -2 -19   -0.19    4.02
   2   2 -19   -0.12    2.19
  -2   2  19    3.98    5.64
  -2  -2  19   -0.49    5.78
   3   2 -19   63.81   14.62
   3   2 -19   54.80   15.24
   2  -3 -19   44.78   14.42
   2  -3 -19   73.26   12.90
  -2   3  19   53.76   17.12
  -3  -2  19   54.28   17.20
   3   1 -19    2.25    2.24
   1  -3 -19    1.07    4.20
   3   1 -19    3.87    3.59
   1  -3 -19    3.01    2.65
  -1   3  19   -3.87    6.39
  -3  -1  19    3.77    5.24
   3   0 -19   30.90    7.61
   3   0 -19   28.40    6.87
  -3   0  19   20.52    9.07
   3  -1 -19    1.43    2.36
   1   3 -19    1.02    2.35
   3  -1 -19    3.89    3.47
  -3   1  19    5.20    5.29
   3  -2 -19   64.32   13.64
   2   3 -19   61.28   15.39
   2   3 -19   45.30   16.48
   3  -2 -19   71.40   14.55
  -3   2  19   55.39   16.84
  -2  -3  19   72.77   18.55
   3  -3 -19   -1.79    3.92
   3  -3 -19   -0.70    2.43
   3   3 -19    0.35    2.18
   3   3 -19   -0.34    3.64
  -3   3  19   -1.56    5.68
  -3  -3  19   -1.11    5.50
   4   3 -19   54.51   16.51
   3  -4 -19   75.65   14.29
   3  -4 -19   68.84   15.77
   4   3 -19   58.51   16.94
  -4  -3  19   66.02   18.37
   4   2 -19   20.36    5.35
   4   2 -19   19.11    4.87
   2  -4 -19   17.06    5.92
   2  -4 -19   18.01    4.28
  -4  -2  19   18.09    6.56
  -2   4  19   -1.25    8.05
   4   1 -19   48.94   11.41
   1  -4 -19   43.61   10.15
   4   1 -19   43.11   11.34
   1  -4 -19   52.16   11.72
  -1   4  19   61.12   14.18
  -4  -1  19   53.71   12.82
   4   0 -19   -0.15    3.39
   4   0 -19    0.70    2.57
  -4   0  19    0.63    4.84
   4  -1 -19   49.34   10.06
   4  -1 -19   41.55   10.27
   1   4 -19   35.55   11.60
  -4   1  19   29.71   12.00
   4  -2 -19   19.69    4.56
   4  -2 -19   17.98    5.39
   2   4 -19   13.86    4.70
  -4   2  19    9.82    7.22
   4  -3 -19   58.64   14.44
   3   4 -19   57.58   17.34
   3   4 -19   55.76   16.45
  -3  -4  19   70.09   19.45
   4   4 -19    1.06    3.63
   4   4 -19    0.25    2.32
   4  -4 -19    0.88    3.80
   4  -4 -19   -0.31    2.80
  -4  -4  19    5.64    5.01
  -4   4  19    1.19    5.66
  -4  -4  19   -3.34    2.69
   5   4 -19   17.75    5.35
   4  -5 -19    2.96    5.84
   5   4 -19   14.88    5.19
  -4   5  19   13.08    7.73
   3  -5 -19   50.72   11.05
   5   3 -19   50.31   11.17
   5   3 -19   44.62   11.73
  -5  -3  19   44.77   12.33
  -3   5  19   41.96   13.44
  -5  -3  19   26.06   11.12
   2  -5 -19   40.98   10.10
   5   2 -19   50.10   10.27
   5   2 -19   39.11    9.77
  -5  -2  19   50.91   11.09
  -5  -2  19   28.44    9.77
  -2   5  19   15.99   12.52
   5   1 -19    9.73    5.78
   5   1 -19   17.59    5.81
   1  -5 -19   11.49    6.53
  -5  -1  19   17.85    6.97
  -5  -1  19   25.90    5.94
  -1   5  19   31.00    9.32
   5   0 -19   45.51   11.25
   5   0 -19   49.99   11.55
  -5   0  19   32.62   11.36
  -5   0  19   52.10   12.61
   5  -1 -19   10.38    5.73
   5  -1 -19   16.40    5.33
   5  -2 -19   39.86    9.18
   5  -2 -19   52.77    9.14
  -5   2  19   18.79    9.47
  -5   2  19   21.42   10.78
   5  -3 -19   52.61   11.39
   5  -3 -19   36.48   11.18
  -5   3  19   59.60   12.87
  -5   3  19   51.74   11.48
   5  -4 -19   28.85    6.05
   5  -4 -19   23.68    6.39
  -5   4  19   19.97    6.51
  -5   4  19   27.76    7.98
   5  -5 -19   -3.23    4.18
  -5   5  19   -2.11    6.00
  -5   5  19   -0.19    3.84
   4  -6 -19   13.65    5.33
   6   4 -19   14.12    4.59
   6   4 -19   17.07    4.54
  -4   6  19    2.03    7.56
   3  -6 -19    2.67    5.61
   3  -6 -19   24.46    4.13
   6   3 -19   13.99    4.85
   6   3 -19   13.92    4.84
  -6  -3  19   16.11    5.82
  -6  -3  19    7.90    4.71
  -3   6  19    2.56    8.09
   6   2 -19   36.55    9.76
   2  -6 -19   36.04   10.04
   2  -6 -19   41.64    8.08
   6   2 -19   36.92   10.22
  -6  -2  19   31.34   10.65
  -2   6  19    8.74   12.75
  -6  -2  19   33.32    9.72
   1  -6 -19    6.05    3.19
   6   1 -19    2.21    3.42
   1  -6 -19    0.70    4.67
   6   1 -19    3.27    3.76
  -6  -1  19    6.62    3.83
  -1   6  19    0.44    7.41
  -6  -1  19    3.08    4.90
   6   0 -19   -2.43    3.84
   6   0 -19    0.37    3.24
  -6   0  19   -1.83    3.48
  -6   0  19   -0.12    4.78
   0  -6  19    1.68    4.34
   6  -1 -19    8.94    3.91
   6  -1 -19    8.92    3.85
  -6   1  19    7.64    3.89
  -6   1  19   -3.09    5.23
   6  -2 -19   41.81   10.37
   6  -2 -19   49.73   10.47
  -6   2  19   55.09   11.72
  -6   2  19   33.32   10.54
   6  -3 -19   11.44    5.04
   6  -3 -19   13.36    5.08
  -6   3  19   13.73    6.56
  -6   3  19   12.77    5.48
   6  -4 -19   15.32    4.63
  -6   4  19   -0.20    4.51
  -6   4  19   11.31    6.39
   6  -6 -19   -0.22    3.91
   6  -7 -19    0.20    5.07
   6  -7 -19    2.10    4.27
  -6   7  19    1.35    6.91
  -6   7  19   -0.46    5.40
   5  -7 -19   -2.08    4.07
  -5   7  19   -5.20    5.25
   7   3 -19   29.15    8.11
   7   3 -19   37.08    8.37
   3  -7 -19   25.72    8.15
  -3   7  19    1.17   10.79
  -7  -3  19   41.14    8.80
  -7  -3  19   23.16    7.66
   2  -7 -19   -0.16    2.55
   7   2 -19    4.33    3.88
   7   2 -19    7.41    4.09
   2  -7 -19    0.23    4.80
  -7  -2  19    3.87    4.98
  -7  -2  19    3.87    3.63
  -2   7  19   -0.63    7.92
   1  -7 -19    6.86    6.23
   7   1 -19   22.95    5.15
   1  -7 -19   21.56    4.23
   7   1 -19   13.25    5.33
  -7  -1  19   22.15    6.23
  -1   7  19   -0.23    8.84
  -7  -1  19   11.23    5.16
   7   0 -19    4.71    3.85
   7   0 -19    2.43    3.90
  -7   0  19   -0.54    3.95
  -7   0  19    2.95    5.15
   0  -7  19    8.24    4.85
   7  -1 -19   10.88    4.74
   7  -1 -19   13.15    4.70
  -7   1  19    0.19    4.89
  -7   1  19    0.38    5.97
   7  -2 -19   10.82    4.40
   7  -2 -19    8.78    4.15
  -7   2  19    1.32    5.38
  -7   2  19    3.69    4.33
   7  -3 -19   32.62    7.66
  -7   3  19   18.46    8.80
   7  -5 -19    2.71    4.07
  -7   5  19    3.96    4.83
   7  -6 -19    0.80    5.04
  -7   6  19   -3.37    6.39
   7  -7 -19    2.66    7.05
  -7   7  19    7.19    9.55
  -7   7  19    0.24   10.77
   7  -8 -19    0.45    6.00
   7  -8 -19    8.92    5.21
  -7   8  19    0.91    7.81
  -7   8  19    3.10    6.26
   6  -8 -19    5.15    4.50
   6  -8 -19   -8.66    5.72
  -6   8  19   -0.73    8.06
  -6   8  19    2.47    5.40
   5  -8 -19    6.36    4.03
   5  -8 -19   -3.65    4.82
  -5   8  19   -5.29    5.68
  -5   8  19    0.19    7.41
   4  -8 -19    2.56    4.15
   8   3 -19    3.09    4.07
   8   3 -19    1.04    4.40
  -8  -3  19    0.69    5.16
  -8  -3  19    1.99    3.69
   8   2 -19    9.65    4.37
   8   2 -19    8.47    4.77
  -8  -2  19    3.74    4.11
  -8  -2  19    8.54    5.56
   8   1 -19   -5.09    4.10
   8   1 -19   -0.80    4.51
  -8  -1  19    1.54    3.85
  -8  -1  19    0.75    5.26
   8   0 -19    1.64    4.70
   8   0 -19    2.77    4.13
  -8   0  19    0.77    5.36
  -8   0  19   -3.39    4.22
   0  -8  19   -1.44    5.38
   8  -1 -19    0.35    4.32
   8  -1 -19    9.79    4.62
  -8   1  19    6.15    4.29
  -8   1  19    9.03    5.88
  -1  -8  19   -0.85    6.40
   8  -2 -19   -0.18    4.63
   8  -4 -19   -0.28    5.54
   8  -4 -19   20.58    5.20
  -8   4  19   -2.04    5.92
  -8   4  19   33.86    6.79
   8  -5 -19   -5.18    5.16
   8  -5 -19    0.20    4.69
  -8   5  19    1.66    5.09
  -8   5  19    0.63    6.57
   8  -6 -19    0.21    5.05
  -8   6  19   -0.17    7.19
   8  -7 -19   11.94    5.99
   8  -7 -19   12.06    5.54
  -8   7  19   -0.18    7.48
  -8   7  19   11.18    6.24
   8  -8 -19    1.61    5.91
   8  -8 -19   -1.16    5.86
  -8   8  19    0.75    7.76
  -8   8  19    8.78    6.02
   8  -9 -19    1.35    6.33
   8  -9 -19    0.25    5.71
  -8   9  19   -0.59    8.21
  -8   9  19    0.58    6.50
   7  -9 -19   -1.42    5.75
   7  -9 -19    5.76    5.56
  -7   9  19   -7.73    6.73
  -7   9  19   -0.39    7.86
   6  -9 -19    2.31    5.69
   6  -9 -19    4.14    4.75
  -6   9  19    5.35    6.13
  -6   9  19    2.34    7.82
   5  -9 -19    0.70    5.65
   5  -9 -19    1.86    4.16
  -5   9  19    0.20    8.26
  -5   9  19    0.74    5.64
   4  -9 -19   13.21    4.71
   4  -9 -19   15.42    6.39
  -4   9  19    1.06    9.16
   9   3 -19    0.18    4.44
   9   3 -19   -1.47    4.46
   3  -9 -19    9.78    5.25
   3  -9 -19    2.88    3.27
  -9  -3  19   -2.48    4.29
  -9  -3  19   -8.41    5.79
  -3   9  19   15.40    8.62
   9   2 -19   -0.91    4.67
   2  -9 -19    0.18    3.33
   9   2 -19    1.97    4.34
  -9  -2  19    1.49    4.27
  -9  -2  19   -1.82    5.54
   9   1 -19    8.20    4.69
   9   1 -19    2.51    5.38
  -9  -1  19   -0.13    5.73
  -9  -1  19    0.87    4.37
   9   0 -19   13.68    4.96
  -9   0  19    0.55    6.15
   0  -9  19    1.04    6.64
  -1  -9  19    3.86    7.24
   9  -2 -19   -0.65    5.31
  -9   2  19   -5.34    5.05
   9  -3 -19    4.63    5.54
   9  -3 -19    0.20    4.57
  -9   3  19    0.15    6.30
  -9   3  19    0.24    4.94
   9  -4 -19    4.27    5.26
   9  -4 -19    0.40    5.12
  -9   4  19    0.49    5.75
  -9   4  19    6.22    6.81
   9  -5 -19    4.73    6.03
   9  -5 -19    0.21    4.65
  -9   5  19    1.31    6.61
  -9   5  19    0.25    5.29
   9  -6 -19    0.22    5.23
  -9   6  19  -14.91    7.14
   9  -7 -19    0.36    6.26
   9  -7 -19    1.15    5.61
  -9   7  19   -1.27    7.55
  -9   7  19    2.78    5.58
   9  -8 -19   13.51    6.62
   9  -8 -19    1.71    6.06
  -9   8  19   14.58    6.26
  -9   8  19    0.19    8.13
   9  -9 -19   -2.06    6.03
   9  -9 -19  -14.12    7.40
  -9   9  19   -4.10    8.66
  -9   9  19   -0.31    7.19
   9 -10 -19    2.72    6.74
   9 -10 -19   21.60    7.80
  -9  10  19    0.33    6.94
  -9  10  19    5.24    9.27
   8 -10 -19  -20.14    7.32
   8 -10 -19  -22.60    6.65
  -8  10  19   -1.27    9.15
  -8  10  19   -0.31    7.07
   7 -10 -19    2.52    6.06
   7 -10 -19    0.32    5.88
  -7  10  19    6.47    6.80
  -7  10  19   -1.46    8.44
   6 -10 -19   -0.24    5.75
   6 -10 -19    0.28    4.92
  -6  10  19   -4.22    8.51
  -6  10  19    5.12    6.57
   5 -10 -19   -0.25    4.50
   5 -10 -19    0.25    5.56
  -5  10  19   -0.44    8.98
  -5  10  19    9.21    6.21
   4 -10 -19    1.38    3.99
   4 -10 -19    0.26    5.98
  -4  10  19   -0.52    5.82
  -4  10  19   -5.45    8.87
  10   3 -19    4.99    4.98
   3 -10 -19   -4.55    6.62
   3 -10 -19    0.82    3.92
  -3  10  19    6.30    9.19
   2 -10 -19   -1.37    6.08
  10   2 -19   -0.39    4.85
   2 -10 -19    2.12    3.60
  -2  10  19  -10.68    9.53
   1 -10 -19    5.28    3.79
   1 -10 -19    3.43    6.55
  -1  10  19  -13.45   10.19
  10   0 -19   -0.72    5.37
   0 -10  19   -8.25    7.38
 -10   0  19   -5.73    5.51
   1  10 -19    1.20    7.83
  10  -1 -19   12.16    5.23
  10  -1 -19    7.69    6.15
 -10   1  19   15.03    5.72
  -1 -10  19   14.72    8.70
  10  -2 -19    4.54    4.60
  10  -2 -19    3.33    6.03
 -10   2  19    4.68    5.60
  10  -3 -19   -3.80    4.96
  10  -3 -19   -1.51    6.11
 -10   3  19   -4.25    5.56
 -10   3  19   -1.78    6.63
  10  -4 -19    2.65    6.24
  10  -4 -19    1.94    5.18
 -10   4  19    2.50    6.83
 -10   4  19    1.36    5.22
  10  -5 -19   -1.55    6.47
  10  -5 -19   -2.23    5.11
 -10   5  19    0.17    6.87
 -10   5  19   -7.00    6.23
  10  -6 -19   -1.85    5.57
 -10   6  19   -0.36    7.28
  10  -7 -19   19.37    7.38
  10  -7 -19    0.24    5.83
 -10   7  19   -0.77    7.78
 -10   7  19    4.84    6.37
  10  -8 -19   -7.27    6.70
  10  -8 -19    0.25    5.71
 -10   8  19    0.32    7.05
 -10   8  19    2.41    8.32
  10  -9 -19    0.54    6.66
  10  -9 -19    3.57    6.83
 -10   9  19    2.34    6.85
 -10   9  19   -2.36    9.04
  10 -10 -19    9.78    7.74
  10 -10 -19   -0.29    6.91
 -10  10  19   -4.59    7.44
 -10  10  19    2.26    9.43
  10 -11 -19   -0.50    8.43
  10 -11 -19    0.30    7.35
 -10  11  19  -17.14   10.35
 -10  11  19    0.38    7.83
   9 -11 -19    5.79    7.28
   9 -11 -19    3.16    6.67
  -9  11  19   -0.70    7.25
  -9  11  19   13.19    9.83
   8 -11 -19    0.39    6.96
   8 -11 -19    0.28    6.25
  -8  11  19  -17.03    7.18
  -8  11  19  -13.66    9.51
   7 -11 -19   14.19   10.86
   7 -11 -19   74.60   11.62
  -7  11  19   86.90   13.76
   6 -11 -19   -0.30    5.63
   6 -11 -19    8.94    6.38
  -6  11  19   -1.83    9.38
  -6  11  19   -2.40    6.75
   5 -11 -19    1.62    5.19
   5 -11 -19    4.30    6.20
  -5  11  19  -21.98    9.81
  -5  11  19    1.69    6.37
   4 -11 -19    0.82    6.19
   4 -11 -19    0.24    4.46
  -4  11  19    0.28    6.26
  -4  11  19    3.22    9.97
   3 -11 -19   -5.67    6.24
   3 -11 -19    2.00    4.04
  -3  11  19  -25.49   10.58
   2 -11 -19    0.63    4.15
   2 -11 -19    3.47    6.14
  -2  11  19    9.31   10.50
   1 -11 -19    3.05    3.86
  11   1 -19    6.40    5.16
   1 -11  19    2.87    7.16
  -1  11  19  -15.46   10.58
   0 -11 -19    8.35    5.67
  11   0 -19   37.82    7.41
  11  -1 -19    0.43    4.79
 -11   1  19   -7.18    5.52
  11  -2 -19    5.95    5.23
 -11   2  19   -0.29    5.31
  11  -3 -19    0.42    6.27
  11  -3 -19    1.13    5.27
 -11   3  19   -0.59    5.46
  11  -4 -19   -2.98    6.53
  11  -4 -19   -5.58    5.32
 -11   4  19    0.30    5.97
  11  -5 -19   -2.64    5.75
  11  -5 -19    7.40    6.72
 -11   5  19    7.13    6.42
  11  -6 -19   -0.50    5.82
 -11   6  19   -1.56    7.72
  11  -7 -19   -0.46    7.59
  11  -7 -19    6.95    7.15
 -11   7  19    0.33    7.97
 -11   7  19   -0.61    9.34
  11  -8 -19   -2.16    6.56
  11  -8 -19    4.28    7.31
 -11   8  19    0.35    6.99
 -11   8  19    0.21    8.89
  11  -9 -19  -10.39    8.22
  11  -9 -19   -0.28    6.32
 -11   9  19   -2.91    7.19
 -11   9  19    2.27    9.20
  11 -10 -19   -7.19    6.95
  11 -10 -19   -7.22    8.08
 -11  10  19   -6.52    8.42
 -11  10  19   -1.90    9.69
  11 -11 -19   14.63   11.46
  11 -11 -19   39.34   12.52
 -11  11  19    6.49   12.28
  11 -12 -19    0.57    8.76
  11 -12 -19   -0.33    7.88
 -11  12  19   -0.27   11.35
 -11  12  19    3.01    8.71
  10 -12 -19   30.20   11.36
  10 -12 -19   30.82   10.65
 -10  12  19   -0.80   10.82
 -10  12  19   71.02   14.08
   9 -12 -19    1.51    7.17
   9 -12 -19    3.75    7.65
  -9  12  19    0.73    7.87
  -9  12  19   -0.74   10.33
   8 -12 -19   -6.42    6.96
   8 -12 -19    0.41    7.22
  -8  12  19  -30.22   10.71
  -8  12  19    0.35    7.63
   7 -12 -19   15.54    6.84
   7 -12 -19  -11.61    6.67
  -7  12  19    4.01    7.24
  -7  12  19    9.44   10.03
   6 -12 -19    0.33    5.73
   6 -12 -19   10.83    6.69
  -6  12  19  -24.86   10.39
  -6  12  19   -1.92    7.29
   5 -12 -19   41.29    9.96
   5 -12 -19    5.91    8.62
  -5  12  19   25.74   10.35
  -5  12  19   77.40   13.07
   4 -12 -19    1.34    4.92
   4 -12 -19    3.25    6.77
  -4  12  19   -0.29    6.74
  -4  12  19   -5.36   10.63
   3 -12 -19    4.17    4.55
   3 -12 -19    6.30    6.89
  -3  12  19   -1.42   11.36
   2 -12 -19   -0.30    6.43
   2 -12 -19   -5.72    4.51
  -2  12  19  -10.15   11.53
   1 -12 -19   13.55    6.04
  -1  12  19   28.57   12.64
   1 -12  19   29.93    9.90
   0 -12 -19   -0.87    4.38
   0 -12  19  -12.87    9.30
   1  12 -19   16.12    9.46
  -1 -12  19   15.38    6.76
  -1 -12  19    0.23   11.09
  -2 -12  19  -19.42   11.25
  -2 -12  19   -2.23    5.47
  12  -4 -19   -0.25    5.92
  12  -5 -19    5.14    7.13
 -12   5  19    1.04    8.19
  12  -6 -19   -2.13    6.31
 -12   6  19    0.36    6.56
  12  -7 -19    0.28    6.50
 -12   7  19    0.22    8.69
  12  -8 -19    1.44    6.43
 -12   8  19   -3.07    7.72
 -12   8  19  -13.53    9.10
  12  -9 -19    0.30    7.28
 -12   9  19    0.40    7.81
 -12   9  19   -0.24    9.88
  12 -10 -19    0.32    8.73
 -12  10  19   38.59   12.21
 -12  10  19   -0.42    9.92
  12 -11 -19    9.06    8.34
 -12  11  19    0.54   10.93
  12 -12 -19    9.54    8.58
 -12  12  19    3.99   12.01
  12 -13 -19   -9.33    8.93
 -12  13  19   18.16   12.90
  11 -13 -19    0.60    9.06
  11 -13 -19    6.69    8.60
 -11  13  19    0.46    8.79
 -11  13  19   -3.13   12.49
  10 -13 -19    4.91    8.84
  10 -13 -19    0.67    8.00
 -10  13  19    0.42    8.65
 -10  13  19    5.18   11.87
   9 -13 -19  -13.61    9.54
   9 -13 -19  -13.69    8.24
  -9  13  19  -20.40    9.03
   8 -13 -19    0.31    7.15
   8 -13 -19   -2.70    8.28
  -8  13  19    3.69    7.93
  -8  13  19  -16.76   11.33
   7 -13 -19    1.20    7.18
   7 -13 -19   -8.30    6.86
  -7  13  19   12.57   10.69
  -7  13  19    1.06    7.70
   6 -13 -19    0.30    6.61
   6 -13 -19    0.35    6.11
  -6  13  19    2.72    7.71
  -6  13  19   -4.99   11.47
   5 -13 -19  -11.30    7.22
   5 -13 -19    0.31    5.94
  -5  13  19    5.51   10.85
  -5  13  19  -19.48    7.88
   4 -13 -19    3.23    5.48
   4 -13 -19    5.94    7.13
  -4  13  19  -14.09    7.03
  -4  13  19   -9.93   11.58
   3 -13 -19    4.85    5.46
   3 -13 -19   -1.26    7.14
  -3  13  19   27.62   11.99
   2 -13 -19    3.46    4.61
   2 -13 -19    0.32    6.59
  -2  13  19   24.12   12.09
   1 -13 -19    8.06    6.42
   1 -13  19   35.83   10.94
   0  13 -19    1.60   10.63
   0 -13 -19   19.02    6.83
   0 -13  19   54.12   12.05
   1  13 -19   21.97   10.81
  -1 -13  19   14.70   12.95
  -1 -13  19   23.20    7.88
   2  13 -19    7.95   14.31
   2  13 -19    1.37    8.83
  -2 -13  19  -43.33   13.26
  -2 -13  19  -19.01    6.39
  11 -14 -19    0.37    8.85
 -11  14  19   14.31   13.60
  10 -14 -19   -2.88    8.82
  10 -14 -19    0.35    8.11
 -10  14  19   15.72   12.19
 -10  14  19    0.44    8.74
   9 -14 -19    1.06    8.92
   9 -14 -19   -0.33    7.66
  -9  14  19    0.41    8.63
  -9  14  19   -8.38   12.02
   8 -14 -19   -0.32    7.57
   8 -14 -19   -0.47    7.97
  -8  14  19   -2.36    8.65
  -8  14  19    3.30   11.97
   7 -14 -19    6.96    9.26
   7 -14 -19    0.32    8.68
  -7  14  19   36.68   13.97
   6 -14 -19    7.62    7.67
   6 -14 -19    0.38    6.80
  -6  14  19   -8.75   11.46
  -6  14  19   -0.36    7.62
   5 -14 -19    0.33    6.81
   5 -14 -19    2.04    6.04
  -5  14  19   -4.34   12.06
  -5  14  19    0.35    7.51
   4 -14 -19   -1.62    7.06
   4 -14 -19   -4.04    5.86
  -4  14  19   10.87   12.09
  -4  14  19    2.98    7.39
   3 -14 -19   -2.29    5.33
   3 -14 -19   -0.33    7.24
  -3  14  19  -14.16    7.68
  -3  14  19  -17.86   12.62
   2 -14 -19    3.30    6.75
   2 -14 -19   -2.38    5.08
  -2  14  19    8.30   12.03
   1 -14  19    7.48   10.85
   0  14 -19    4.55   10.13
   0 -14  19  -16.32   11.59
   1  14 -19   26.79   10.87
  -1 -14  19    4.97   12.47
  -1 -14  19    2.94    6.88
   2  14 -19   10.59   15.61
   2  14 -19    4.00    9.80
  -2 -14  19   14.69   13.62
  -2 -14  19  -10.26    6.21
  10 -15 -19    2.90    8.29
 -10  15  19    1.86    9.43
 -10  15  19   -7.82   12.97
  -9  15  19   -5.54   12.27
  -9  15  19   10.05    9.05
  -8  15  19   -0.41    8.26
   1 -15  19   27.26   12.71
   0  15 -19    8.10   11.01
   0 -15  19    7.30   13.01
   1  15 -19    5.49   16.17
   1  15 -19  -10.68   11.30
  -1 -15  19  -13.68   13.37
  -1 -15  19   16.89    7.48
   2  15 -19    0.98   17.24
   2  15 -19   10.02   11.23
  -2 -15  19   -6.18   14.11
  -2 -15  19   -3.22    7.08
   1 -16  19    0.97   13.61
   0  16 -19   -6.43   12.24
   0 -16  19   17.60   14.34
   1  16 -19   -0.41   12.72
   1  16 -19  -36.81   18.22
  -1 -16  19  -15.86    8.40
  -1 -16  19    5.75   14.81
   2  16 -19    1.95   12.35
   2  16 -19   15.58   18.68
  -2 -16  19   -4.90   15.64
  -2 -16  19   -3.93    7.91
  -3 -16  19   12.76    8.61
  -3 -16  19   19.66   16.71
   1 -17  19  -15.54   15.05
   0  17 -19    0.52   18.07
   0  17 -19   -6.70   13.78
   0 -17  19   -8.68   15.86
   0 -17  19    8.97    9.00
   1  17 -19   18.37   19.76
   1  17 -19   -7.89   14.28
  -1 -17  19   11.82   16.18
  -1 -17  19  -12.46    9.43
   2  17 -19  -19.36   20.80
   2  17 -19   -4.86   13.87
  -2 -17  19    2.89   16.39
  -2 -17  19   11.45    8.98
   3  17 -19    5.54   14.16
  -3 -17  19    5.14   17.67
  -3 -17  19    0.36    8.62
   0  18 -19   -9.14   15.85
   1  18 -19  -14.67   16.91
  -1 -18  19  -21.99   10.84
   2  18 -19    6.50   16.13
  -2 -18  19  -12.39   10.17
   3  18 -19   14.95   15.99
  -3 -18  19  -12.16    9.50
   1   0 -20   -1.03    2.56
   1  -1 -20    7.02    2.90
   1   1 -20    2.47    2.77
  -1   1  20    6.17    6.55
   1  -2 -20    1.67    2.75
   2   1 -20   -1.75    2.53
   2   1 -20   -0.21    4.12
   1  -2 -20   -2.27    4.67
  -2  -1  20    1.41    6.30
  -1   2  20   -0.81    6.67
   2   0 -20    0.68    2.45
   2   0 -20    0.20    4.17
  -2   0  20    0.18    6.14
   2  -1 -20    0.14    2.60
   1   2 -20   -1.28    2.50
   2  -1 -20    3.70    4.49
  -2   1  20    0.36    6.01
   2   2 -20   18.75    4.94
   2  -2 -20   18.97    6.05
   2   2 -20   19.64    6.13
   2  -2 -20   18.39    4.69
  -2   2  20    9.66    8.05
  -2  -2  20   11.71    7.91
   3   2 -20    3.78    2.90
   3   2 -20    5.38    4.35
   2  -3 -20    1.27    5.04
   2  -3 -20    4.66    2.84
  -2   3  20   15.64    7.15
  -3  -2  20    9.51    6.37
   3   1 -20   17.39    6.59
   3   1 -20   22.39    7.47
   1  -3 -20   32.44    6.16
   1  -3 -20   37.54    8.03
  -1   3  20   20.30    9.83
  -3  -1  20   27.59    9.29
   3   0 -20   -1.25    2.70
   3   0 -20   -0.56    4.13
  -3   0  20   -4.19    5.94
   1   3 -20   20.58    7.15
   3  -1 -20   25.35    6.41
   3  -1 -20   35.44    7.60
  -3   1  20   29.61    9.07
   2   3 -20    4.62    2.67
   3  -2 -20    5.88    3.00
   3  -2 -20    7.12    4.30
  -2  -3  20    6.97    6.65
  -3   2  20   19.39    6.89
   3  -3 -20   67.30   13.91
   3  -3 -20   59.02   15.27
   3   3 -20   70.89   16.13
   3   3 -20   58.45   16.88
  -3  -3  20   47.47   18.85
  -3   3  20   73.62   17.86
   4   3 -20    1.38    2.64
   4   3 -20   -2.52    3.78
   3  -4 -20   -1.64    4.82
   3  -4 -20   -0.77    2.94
  -3   4  20    1.76    6.46
  -4  -3  20   -2.81    5.51
   4   2 -20   32.51   10.01
   4   2 -20   28.92    9.89
   2  -4 -20   46.23    8.44
   2  -4 -20   35.40   10.11
  -4  -2  20   40.49   11.57
  -2   4  20   35.68   12.59
   1  -4 -20   -1.41    2.92
   4   1 -20   -1.98    3.79
   1  -4 -20    2.12    4.74
   4   1 -20    0.29    2.67
  -4  -1  20   -1.92    5.42
  -1   4  20    3.43    7.04
   4   0 -20   40.41   11.00
   4   0 -20   42.04   10.73
  -4   0  20   48.14   12.61
   4  -1 -20   -1.36    2.71
   1   4 -20   -0.26    2.48
   4  -1 -20   -2.76    4.03
  -4   1  20    4.71    5.48
   4  -2 -20   45.99   10.01
   2   4 -20   36.18   10.54
   4  -2 -20   52.70    9.56
  -4   2  20   34.90   11.74
   4  -3 -20    3.13    4.15
   4  -3 -20    2.24    2.83
   3   4 -20    0.12    2.40
   3   4 -20   -1.51    4.26
  -4   3  20   -0.15    5.92
   4   4 -20   10.68    4.11
   4   4 -20   14.11    4.92
   4  -4 -20   12.22    4.15
   4  -4 -20   12.65    5.24
  -4   4  20   16.04    7.23
   4  -5 -20    0.60    4.62
  -4   5  20    1.88    6.64
   5   3 -20   46.10   10.89
   3  -5 -20   45.33   10.49
   5   3 -20   43.30   10.49
  -5  -3  20   28.67   10.28
  -5  -3  20   46.02   11.81
  -3   5  20   32.80   12.83
   5   2 -20   49.34   10.00
   2  -5 -20   30.16   10.44
   5   2 -20   45.80   10.48
  -5  -2  20   38.58    9.96
  -2   5  20    3.70   13.20
  -5  -2  20   29.41   11.38
   5   1 -20   55.65   12.18
   5   1 -20   60.03   12.70
   1  -5 -20   41.25   12.68
  -5  -1  20   51.54   13.66
  -5  -1  20   47.48   12.34
  -1   5  20   32.41   15.53
   5   0 -20    2.57    3.69
   5   0 -20   -1.51    3.04
  -5   0  20    4.93    5.44
  -5   0  20   -4.70    3.60
   5  -1 -20   60.31   11.58
   5  -1 -20   48.09   11.74
  -5   1  20   20.65   13.24
  -5   1  20   45.80   11.85
   5  -2 -20   57.57   10.41
   5  -2 -20   46.47   10.36
  -5   2  20   21.35   12.07
  -5   2  20   48.20   10.78
   5  -3 -20   42.62    9.85
   5  -3 -20   54.27    9.75
  -5   3  20   14.41   10.23
  -5   3  20   43.23   11.69
   5  -4 -20    9.26    4.28
  -5   4  20    5.87    6.35
   6   3 -20   27.87    6.87
   6   3 -20   23.42    6.93
  -6  -3  20   34.52    7.90
  -6  -3  20   15.31    6.74
   2  -6 -20   15.63    6.41
   6   2 -20    8.30    4.99
   6   2 -20   14.19    5.13
  -2   6  20    2.38    8.81
  -6  -2  20   18.02    5.19
  -6  -2  20   29.51    6.55
   6   1 -20   15.93    4.32
   1  -6 -20   -1.26    5.41
   1  -6 -20   -0.16    3.31
   6   1 -20   17.44    4.52
  -6  -1  20   18.04    5.83
  -1   6  20    1.64    8.42
  -6  -1  20    9.21    4.37
   6   0 -20    3.12    3.58
   6   0 -20    6.21    3.91
  -6   0  20    2.57    5.40
  -6   0  20    1.93    3.87
   6  -1 -20   14.23    4.34
   6  -1 -20   11.03    4.69
  -6   1  20    9.26    4.69
  -6   1  20    0.27    5.89
   6  -2 -20   14.15    5.25
   6  -2 -20   15.59    4.95
  -6   2  20   14.63    5.19
  -6   2  20    1.25    6.63
   6  -3 -20   23.39    6.15
  -6   3  20    7.97    7.90
   6  -5 -20    8.32    4.30
  -6   5  20    4.89    4.92
   6  -6 -20    6.35    5.14
  -6   6  20    1.02    6.98
   6  -7 -20    0.24    4.51
   6  -7 -20    7.40    6.15
  -6   7  20    8.98    6.11
  -6   7  20    6.16    8.05
   5  -7 -20   -3.87    4.91
   5  -7 -20    0.21    3.89
  -5   7  20   -0.56    7.36
  -5   7  20    3.00    5.12
   4  -7 -20    2.29    3.72
   4  -7 -20   17.01    5.32
  -4   7  20   -0.20    6.62
   3  -7 -20   -0.18    3.10
   7   3 -20    4.52    3.94
   7   3 -20    3.79    3.99
  -7  -3  20   -1.34    3.65
  -7  -3  20    2.11    5.00
   7   2 -20   13.82    6.08
   7   2 -20   26.47    6.04
  -7  -2  20   18.34    6.92
  -7  -2  20   14.33    5.76
   7   1 -20    4.94    4.14
   7   1 -20    5.55    4.29
  -7  -1  20    4.91    4.18
  -7  -1  20    2.02    5.53
   7   0 -20   -0.17    4.27
   7   0 -20   -3.01    4.22
  -7   0  20   -5.31    4.01
  -7   0  20   -2.36    5.51
   7  -1 -20    4.38    4.25
   7  -1 -20    6.18    4.40
  -7   1  20    6.26    4.68
  -7   1  20    4.35    5.78
   7  -2 -20   22.71    5.76
  -7   2  20    5.22    7.01
   7  -4 -20    9.50    4.68
  -7   4  20    0.22    5.15
   7  -5 -20   -1.61    4.94
   7  -5 -20    3.61    5.00
  -7   5  20    1.62    5.19
  -7   5  20    2.92    6.68
   7  -6 -20    0.21    5.95
  -7   6  20    3.59    7.54
   7  -8 -20   20.88    6.88
   7  -8 -20    3.21    5.14
  -7   8  20    3.80    6.46
  -7   8  20   -2.72    8.03
   6  -8 -20    0.26    4.93
   6  -8 -20    0.46    5.72
  -6   8  20    0.26    5.87
  -6   8  20   -0.39    7.93
   5  -8 -20  -10.06    5.93
   5  -8 -20    0.23    4.40
  -5   8  20   -0.24    5.30
  -5   8  20   -2.19    8.15
   4  -8 -20   -9.43    5.75
   4  -8 -20    9.06    4.08
  -4   8  20    0.21    8.18
   3  -8 -20    4.57    5.61
   8   3 -20    5.25    4.70
   8   3 -20    7.91    4.61
   3  -8 -20    6.75    3.50
  -8  -3  20    3.11    5.74
  -3   8  20    1.13    8.65
  -8  -3  20    3.31    4.03
   2  -8 -20   -0.26    4.27
   8   2 -20   -3.36    4.41
   8   2 -20   -1.07    4.48
   2  -8 -20   -2.50    3.34
  -8  -2  20    0.19    3.83
  -8  -2  20   -2.94    5.36
   8   1 -20    1.66    4.85
   1  -8 -20    3.39    3.29
   8   1 -20    7.04    4.58
  -8  -1  20    9.94    5.73
  -8  -1  20    4.59    4.40
   8   0 -20    1.66    4.67
   8   0 -20   -0.28    4.26
  -8   0  20   -7.26    6.08
   8  -2 -20   -0.28    4.81
   8  -3 -20    1.71    5.95
   8  -3 -20   26.46    5.59
  -8   3  20   20.73    7.02
   8  -4 -20    0.20    5.01
   8  -4 -20   -3.21    4.71
  -8   4  20   -4.31    6.95
  -8   4  20    2.61    5.62
   8  -5 -20    3.31    5.24
   8  -5 -20   -0.21    5.23
  -8   5  20   -0.50    6.96
  -8   5  20    6.19    5.62
   8  -6 -20    1.55    5.68
  -8   6  20    0.18    7.29
   8  -7 -20   -0.23    5.64
   8  -7 -20   -4.52    5.65
  -8   7  20    3.33    7.66
  -8   7  20    0.27    6.31
   8  -8 -20   12.48    6.61
   8  -8 -20   32.69    6.79
  -8   8  20    0.57    7.02
  -8   8  20   -0.20    8.69
   8  -9 -20    8.84    6.25
   8  -9 -20    0.26    6.39
  -8   9  20   -4.26    7.03
  -8   9  20    0.42    8.54
   7  -9 -20   22.69    7.15
   7  -9 -20   22.70    7.50
  -7   9  20   14.41    7.99
  -7   9  20    1.67    9.88
   6  -9 -20    1.24    5.87
   6  -9 -20    2.17    5.02
  -6   9  20    9.96    5.92
  -6   9  20    1.05    8.38
   5  -9 -20   -2.68    4.57
   5  -9 -20    0.25    5.66
  -5   9  20    0.26    6.11
  -5   9  20    0.22    8.82
   4  -9 -20    4.17    4.37
   4  -9 -20    0.52    6.00
  -4   9  20    0.46    9.03
   3  -9 -20    5.91    6.07
   3  -9 -20   -4.24    3.68
   9   3 -20    8.17    5.00
   9   3 -20    0.37    4.69
  -3   9  20   -0.24    9.38
  -9  -3  20    1.05    4.23
   9   2 -20    5.96    5.18
   9   2 -20    5.11    4.98
   2  -9 -20    2.10    3.85
   2  -9 -20   16.62    6.39
  -9  -2  20    4.10    4.67
  -2   9  20    2.37    9.82
  -9  -2  20   10.60    6.47
   9   1 -20    4.22    4.76
   1  -9 -20    0.37    3.50
   1  -9 -20   -3.17    5.99
  -9  -1  20   12.95    6.46
  -1   9  20    2.23    9.42
   0  -9  20   -8.14    7.08
   9  -1 -20    3.30    5.70
  -9   1  20    0.70    5.00
   9  -2 -20   -7.20    5.58
   9  -2 -20    4.85    4.72
  -9   2  20    1.43    4.91
  -9   2  20    9.60    6.83
   9  -3 -20   -3.12    5.15
   9  -3 -20   -7.69    6.10
  -9   3  20    1.28    6.70
  -9   3  20    0.25    5.07
   9  -4 -20  -13.70    5.77
   9  -4 -20    1.07    5.03
  -9   4  20    6.27    7.24
  -9   4  20    0.26    5.54
   9  -5 -20  -11.07    4.93
   9  -5 -20    0.35    6.19
  -9   5  20    1.57    7.13
  -9   5  20    8.24    5.78
   9  -6 -20    0.70    5.83
  -9   6  20   -0.18    7.51
   9  -7 -20   19.91    7.25
   9  -7 -20   29.66    8.04
  -9   7  20    6.76    9.35
  -9   7  20   19.46    7.86
   9  -8 -20   -9.71    6.23
   9  -8 -20    0.78    6.87
  -9   8  20    2.64    8.11
  -9   8  20    0.31    6.30
   9  -9 -20   -0.27    6.90
   9  -9 -20    9.00    7.19
  -9   9  20   -1.73    9.13
  -9   9  20    5.79    6.98
   9 -10 -20    0.43    7.64
   9 -10 -20   -4.83    6.70
  -9  10  20    3.66    9.51
  -9  10  20    8.50    7.60
   8 -10 -20    9.29    6.73
   8 -10 -20    1.86    6.90
  -8  10  20   -0.23    9.49
  -8  10  20    7.10    7.22
   7 -10 -20    1.07    6.62
   7 -10 -20   -6.14    5.98
  -7  10  20   -1.11    9.09
  -7  10  20  -12.35    7.46
   6 -10 -20    2.35    6.32
   6 -10 -20   11.24    5.92
  -6  10  20   -2.73    9.10
  -6  10  20    8.71    6.81
   5 -10 -20    1.08    6.10
   5 -10 -20    3.99    5.19
  -5  10  20    0.28    6.46
  -5  10  20    0.46    9.30
   4 -10 -20    0.28    6.18
   4 -10 -20    8.69    4.51
  -4  10  20    0.25    9.66
   3 -10 -20    0.29    6.21
  10   3 -20    0.60    5.05
   3 -10 -20    1.51    3.92
  -3  10  20    0.79    9.89
   2 -10 -20    1.22    3.76
   2 -10 -20    8.18    6.33
  -2  10  20    1.40   10.39
   1 -10 -20   -5.17    4.02
  10   1 -20   -1.80    5.28
 -10  -1  20   -0.25    4.72
  -1  10  20   -6.22   10.39
  10   0 -20   24.99    7.65
  10   0 -20   28.17    8.68
 -10   0  20   29.86    8.88
 -10   0  20   10.71    7.54
  10  -1 -20    0.38    5.92
  10  -1 -20   -1.48    5.36
 -10   1  20   -9.38    5.62
 -10   1  20    4.14    6.77
  10  -2 -20   15.91    5.69
  10  -2 -20    2.30    6.39
 -10   2  20    2.31    6.90
 -10   2  20    5.06    5.95
  10  -3 -20    2.64    5.19
  10  -3 -20    2.70    6.35
 -10   3  20   -5.44    5.54
 -10   3  20    0.17    6.83
  10  -4 -20    0.23    5.67
  10  -4 -20    1.57    6.21
 -10   4  20   -2.62    6.94
 -10   4  20    0.28    5.95
  10  -5 -20    0.23    5.42
  10  -5 -20   -0.40    6.74
 -10   5  20   -0.18    7.37
 -10   5  20    0.29    5.94
  10  -6 -20   -0.24    5.87
  10  -6 -20   -0.42    6.95
 -10   6  20    0.19    7.80
 -10   6  20    6.61    6.80
  10  -7 -20   -0.76    5.65
  10  -7 -20   18.44    7.39
 -10   7  20    0.31    6.56
 -10   7  20   -0.20    8.33
  10  -8 -20    0.27    6.20
  10  -8 -20   16.92    6.85
 -10   8  20    3.18    8.82
 -10   8  20    0.99    7.37
  10  -9 -20    5.08    6.66
  10  -9 -20    6.49    7.44
 -10   9  20    2.26    9.47
 -10   9  20    6.23    6.99
  10 -10 -20    1.19    7.22
  10 -10 -20    0.49    8.29
 -10  10  20   -2.63    9.89
 -10  10  20   13.55    7.57
  10 -11 -20   -1.57    7.35
  10 -11 -20   -1.53    8.40
 -10  11  20   -7.87   10.76
 -10  11  20   -1.17    8.80
   9 -11 -20    2.26    7.32
   9 -11 -20  -11.99    6.80
  -9  11  20    0.36    7.61
  -9  11  20   -2.69   10.15
   8 -11 -20    0.29    6.77
   8 -11 -20    0.41    7.57
  -8  11  20   -0.96    9.82
  -8  11  20    3.10    7.87
   7 -11 -20    1.41    6.27
   7 -11 -20   -0.28    6.32
  -7  11  20   -2.30    7.20
  -7  11  20   -1.92    9.92
   6 -11 -20   32.64    8.36
   6 -11 -20   40.74    8.82
  -6  11  20    0.32    8.95
   5 -11 -20   -4.80    5.17
   5 -11 -20    0.29    6.39
  -5  11  20   -1.78    9.91
  -5  11  20    6.53    6.90
   4 -11 -20   -0.26    4.56
   4 -11 -20   -3.87    6.71
  -4  11  20    0.29    6.50
  -4  11  20   -5.88   10.67
   3 -11 -20    0.30    6.44
   3 -11 -20    5.61    4.74
  -3  11  20    7.27   10.62
  11   2 -20    5.68    5.44
   2 -11 -20    1.55    4.34
   2 -11 -20    1.23    6.41
  -2  11  20    5.38   10.97
  11   1 -20   35.86    8.34
  -1  11  20   27.31   13.66
  11   0 -20    0.22    5.45
 -11   0  20   -7.18    5.36
   0 -11  20  -11.87    8.51
  11  -1 -20   29.09    7.67
  11  -1 -20   26.13    8.73
 -11   1  20   18.35    8.29
  11  -2 -20   -8.06    6.47
  11  -2 -20    0.69    5.53
 -11   2  20   -0.30    5.92
  11  -3 -20   17.31    6.90
  11  -3 -20    6.62    5.88
 -11   3  20   -2.11    6.51
 -11   3  20    0.73    7.49
  11  -4 -20    0.24    6.03
  11  -4 -20    6.18    6.95
 -11   4  20    0.31    6.12
 -11   4  20    1.13    7.49
  11  -5 -20  -12.19    7.68
  11  -5 -20   13.90    5.96
 -11   5  20   -0.19    7.73
 -11   5  20    0.32    6.09
  11  -6 -20    3.86    6.73
  11  -6 -20    6.42    8.39
 -11   6  20    3.46    9.32
 -11   6  20   -0.33    7.40
  11  -7 -20   -0.27    6.21
  11  -7 -20   -0.47    8.05
 -11   7  20    0.63    8.37
  11  -8 -20    0.28    6.49
  11  -8 -20    5.87    7.87
 -11   8  20    0.45    9.04
 -11   8  20   -5.39    7.54
  11  -9 -20    0.30    7.47
  11  -9 -20   -7.20    8.66
 -11   9  20   32.41   10.18
 -11   9  20   -2.26    8.13
  11 -10 -20   -3.22    8.55
  11 -10 -20    0.31    7.22
 -11  10  20   -9.77   10.38
 -11  10  20  -13.12    8.93
  11 -11 -20   -1.32    7.84
  11 -11 -20   -0.56    8.72
 -11  11  20    2.14   11.21
 -11  11  20    0.42    8.54
  11 -12 -20    5.88    9.14
  11 -12 -20   -0.35    8.24
 -11  12  20  -20.10   11.76
 -11  12  20   -6.67    9.00
  10 -12 -20  -19.25    9.29
  10 -12 -20   -0.33    7.59
 -10  12  20    0.41    8.19
 -10  12  20    1.08   11.44
   9 -12 -20  -16.52    9.12
  -9  12  20  -11.18    9.73
   8 -12 -20    0.61    7.15
   8 -12 -20  -14.34    7.42
  -8  12  20   10.22    8.35
  -8  12  20    5.14   10.64
   7 -12 -20   -6.94    7.25
   7 -12 -20    0.37    7.18
  -7  12  20   -2.05   10.73
  -7  12  20  -25.51    8.24
   6 -12 -20    0.33    5.53
   6 -12 -20    7.87    7.22
  -6  12  20    0.34    7.16
  -6  12  20   -8.94   11.16
   5 -12 -20   11.42    7.12
   5 -12 -20  -13.01    5.73
  -5  12  20   -0.98    7.61
  -5  12  20    4.06   10.65
   4 -12 -20   -5.70    7.32
   4 -12 -20   -7.06    5.78
  -4  12  20  -12.78    7.69
  -4  12  20  -26.78   11.99
   3 -12 -20    3.83    7.16
   3 -12 -20    0.52    5.10
  -3  12  20    4.53   11.47
   2 -12 -20    0.24    5.07
   2 -12 -20    8.43    7.05
  -2  12  20   34.80   12.55
  12   1 -20    7.85    6.25
   1 -12 -20    0.92    4.35
   1 -12  20   10.34    8.50
  12   0 -20   34.63    8.90
   0 -12  20   13.59   11.41
  12  -1 -20    0.24    5.93
  -1 -12  20   -2.36   10.18
  12  -2 -20    6.42    6.02
  12  -3 -20  -10.84    6.15
 -12   3  20    4.06    6.32
  12  -4 -20    0.26    6.15
 -12   4  20    0.35    6.89
  12  -5 -20    2.95    6.17
 -12   5  20    3.19    6.40
  12  -6 -20    0.28    6.50
 -12   6  20   -0.37    6.73
 -12   6  20   -4.39    8.70
  12  -7 -20    0.29    6.90
 -12   7  20   -3.41    9.20
  12  -8 -20   -0.30    7.18
 -12   8  20    9.09   10.04
 -12   8  20    8.29    7.55
 -12   9  20  -11.17   11.27
 -12   9  20   -4.14    9.16
  12 -10 -20    0.33    7.55
 -12  10  20   -5.66    8.74
 -12  10  20    6.37   11.03
  12 -11 -20   -0.35    8.33
 -12  11  20   -3.68    8.85
 -12  11  20   -8.47   11.60
  12 -12 -20    0.37    8.52
 -12  12  20   -5.11   12.78
  11 -13 -20    7.35    8.67
  11 -13 -20    0.62    8.66
 -11  13  20  -13.21    9.68
 -11  13  20  -15.49   12.52
  10 -13 -20    4.57    9.73
  10 -13 -20   -4.90    8.60
 -10  13  20  -11.43    9.42
 -10  13  20    9.15   11.85
   9 -13 -20    0.52    8.03
   9 -13 -20    0.67    7.97
  -9  13  20    2.50   11.89
  -9  13  20    0.41    8.49
   8 -13 -20  -32.09   11.33
   7 -13 -20   -4.98    7.50
   7 -13 -20   -0.33    7.49
  -7  13  20    0.75    8.12
  -7  13  20   -9.65   11.96
   6 -13 -20    0.37    6.73
   6 -13 -20  -18.09    7.45
  -6  13  20    0.36    8.34
  -6  13  20   -9.12   11.74
   5 -13 -20   -0.33    7.37
   5 -13 -20   -2.30    6.33
  -5  13  20    6.98    7.96
  -5  13  20   14.33   11.99
   4 -13 -20   -8.40    5.68
   4 -13 -20   -0.33    7.19
  -4  13  20   -5.51   12.30
  -4  13  20   -6.61    7.66
   3 -13 -20    9.37    7.26
   3 -13 -20    2.49    5.24
  -3  13  20  -20.72   12.69
   2 -13 -20   -1.80    4.94
   2 -13 -20    1.02    6.94
  -2  13  20   16.79   12.44
   1 -13 -20    3.18    5.07
   1 -13  20   12.72    9.41
   0 -13  20   15.13   10.76
   1  13 -20   -0.93    8.96
  -1 -13  20   -0.53   11.28
  -1 -13  20   13.04    6.53
  10 -14 -20  -13.75    9.94
  10 -14 -20    0.37    8.62
 -10  14  20    0.46    9.34
 -10  14  20    0.30   13.01
   9 -14 -20    2.47    8.63
   9 -14 -20    4.99    9.42
  -9  14  20    0.43    9.07
  -9  14  20    2.65   12.83
   8 -14 -20  -19.36    9.03
   8 -14 -20   -3.09    8.04
  -8  14  20    1.74   12.59
  -8  14  20    2.05    8.71
   7 -14 -20    0.34    7.72
   7 -14 -20   -1.75    7.78
  -7  14  20  -19.68    8.98
  -7  14  20  -14.76   12.78
   6 -14 -20   14.49    9.36
   6 -14 -20    3.19    8.17
  -6  14  20   -1.91    9.66
  -6  14  20    5.71   14.56
   5 -14 -20   -0.36    6.77
   5 -14 -20  -15.32    8.05
  -5  14  20  -11.87   13.71
  -5  14  20  -22.46    9.17
   4 -14 -20  -19.83    7.69
   4 -14 -20    6.88    6.36
  -4  14  20    1.05    8.33
  -4  14  20   -9.64   12.63
   3 -14 -20   -2.71    5.47
   3 -14 -20    0.70    7.42
  -3  14  20  -10.84    7.81
  -3  14  20    5.42   12.97
   2 -14 -20    4.17    5.44
  -2  14  20   11.25   12.52
   1 -14 -20   -1.06    4.85
   1 -14  20   18.12   10.59
   0 -14  20   15.56   12.24
   1  14 -20   -8.20    9.85
  -1 -14  20  -35.42   12.71
  -1 -14  20    1.19    6.82
  10 -15 -20  -25.49   10.28
   9 -15 -20    1.82    8.37
   9 -15 -20   -6.94    9.54
  -9  15  20    6.85   10.04
  -9  15  20   16.25   13.96
   8 -15 -20    2.14    8.70
   8 -15 -20  -14.95    8.27
  -8  15  20   26.52   13.06
  -8  15  20   -3.03    9.22
  -7  15  20    6.19    9.24
  -7  15  20    9.15   13.26
   1 -15  20   18.39   12.94
   0  15 -20  -22.56   12.96
   1  15 -20  -31.90   13.63
   1  15 -20  -19.87   17.15
  -1 -15  20   -1.97    8.48
  -1 -15  20   37.46   15.39
   1 -16  20    2.28   13.44
   0  16 -20   -2.16   11.75
   0 -16  20   -2.71   14.25
   1  16 -20   14.43   13.09
   1  16 -20    5.08   18.10
  -1 -16  20   -8.26   15.12
  -1 -16  20   10.54    8.35
  -2 -16  20   -7.53   15.72
   1 -17  20  -14.77   14.96
   0  17 -20   -8.95   19.72
   0  17 -20   18.28   14.18
   0 -17  20   26.05   16.32
   1  17 -20   14.01   19.60
   1  17 -20   -8.59   14.52
  -1 -17  20   -0.81    9.11
  -1 -17  20   11.42   17.37
  -2 -17  20   40.42   20.35
   1   0 -21   17.62    5.00
   1  -1 -21   -3.37    2.88
   1   1 -21    1.88    2.94
  -1   1  21   -6.62    6.96
   1  -2 -21    3.73    2.86
   2   1 -21    1.57    4.68
   2   1 -21    6.82    2.82
  -1   2  21    0.65    7.09
  -2  -1  21   -2.89    6.79
   2   0 -21    0.15    2.77
   2   0 -21   -2.66    4.73
  -2   0  21   -5.00    6.80
   2  -1 -21    5.87    3.00
   1   2 -21    2.30    2.92
   2  -1 -21    2.67    4.60
  -2   1  21   17.17    7.07
   2   2 -21    1.41    2.63
   2  -2 -21   -7.63    4.68
   2  -2 -21   -2.14    2.88
  -2   2  21    8.78    6.75
  -2  -2  21   -3.28    6.84
   3   2 -21   33.66    8.28
   2  -3 -21   37.05    7.41
   3   2 -21   31.33    9.26
   2  -3 -21   48.83    9.11
  -3  -2  21   22.74   10.78
  -2   3  21   26.73   11.04
   1  -3 -21   -2.30    3.08
   3   1 -21    1.45    2.86
   3   1 -21   -3.04    4.33
  -1   3  21   -2.67    7.11
  -3  -1  21   -2.19    6.27
   3   0 -21   20.32    5.97
   3   0 -21   11.77    4.94
  -3   0  21   28.95    8.02
   3  -1 -21   -2.88    4.52
   3  -1 -21   -2.26    2.68
   1   3 -21    0.90    2.82
  -3   1  21    2.63    6.53
   3  -2 -21   21.61    8.24
   3  -2 -21   30.89    7.12
   2   3 -21   26.15    7.96
  -3   2  21   27.51   10.41
   3   3 -21    1.21    2.61
   3  -3 -21    5.35    3.04
   3  -3 -21   -0.65    4.82
   3   3 -21   -2.65    4.21
  -3   3  21    3.68    6.95
  -3  -3  21    6.35    6.49
   4   3 -21   38.32    7.61
   4   3 -21   33.17    7.00
   3  -4 -21   29.89    7.73
  -3   4  21    3.84    9.53
  -4  -3  21   28.49    9.10
   2  -4 -21    2.39    3.01
   2  -4 -21    6.60    4.80
   4   2 -21    7.97    4.45
   4   2 -21    4.97    3.14
  -4  -2  21   -0.89    6.03
  -2   4  21   10.93    7.54
   4   1 -21   34.85    8.65
   1  -4 -21   33.26    9.38
   4   1 -21   33.05    9.02
   1  -4 -21   32.27    7.66
  -1   4  21   28.75   11.83
  -4  -1  21   43.28   10.71
   4   0 -21    1.26    2.97
   4   0 -21   -0.37    4.22
  -4   0  21    3.06    6.01
   4  -1 -21   36.06    8.37
   4  -1 -21   44.91    8.99
   1   4 -21   26.98    9.47
  -4   1  21   30.86   10.73
   4  -2 -21    4.80    3.33
   2   4 -21    1.03    2.66
   4  -2 -21    1.73    4.30
  -4   2  21    6.53    6.47
   4  -3 -21   40.89    7.49
   4  -3 -21   36.55    6.48
   3   4 -21   23.63    6.93
  -4   3  21    5.61    9.01
   4  -4 -21   -0.21    5.08
  -4   4  21   -0.18    6.66
   5   3 -21   14.72    4.78
   5   3 -21   18.58    5.27
  -5  -3  21   15.28    6.53
  -5  -3  21    6.63    4.63
   5   2 -21   28.77    7.11
   5   2 -21   23.49    7.06
   2  -5 -21   19.29    7.56
  -5  -2  21   31.60    6.95
  -5  -2  21   23.48    8.51
  -2   5  21    2.86   10.36
   5   1 -21    5.36    4.10
   1  -5 -21    2.33    4.91
   5   1 -21    6.23    3.43
  -5  -1  21    2.75    5.63
  -1   5  21   -0.24    7.91
  -5  -1  21    0.16    3.68
   5   0 -21   31.24    9.10
   5   0 -21   43.35    9.06
  -5   0  21   26.89   10.42
  -5   0  21   33.84    9.13
   5  -1 -21    7.27    4.09
   5  -1 -21    5.68    3.47
  -5   1  21   -1.27    4.12
  -5   1  21    1.77    5.93
   5  -2 -21   35.80    7.10
   5  -2 -21   27.44    6.72
  -5   2  21    5.06    8.75
   5  -3 -21   22.89    5.72
  -5   3  21    7.36    7.30
   5  -5 -21   -0.21    4.40
   5  -5 -21   -9.45    4.17
  -5   5  21   -2.41    4.99
  -5   5  21   -0.18    6.01
   5  -6 -21    0.22    5.16
  -5   6  21    0.56    7.32
   4  -6 -21   30.48    6.29
  -4   6  21    7.33    8.13
   6   3 -21   13.43    4.10
   3  -6 -21   -0.18    3.55
   6   3 -21   11.69    4.25
  -6  -3  21    8.54    5.71
  -6  -3  21    4.93    4.05
   6   2 -21   23.13    7.53
   6   2 -21   28.81    7.72
  -6  -2  21   23.67    7.41
  -6  -2  21   29.22    8.62
   6   1 -21    7.98    4.09
   6   1 -21    4.94    4.34
  -6  -1  21    1.23    4.03
  -6  -1  21   13.64    5.89
   6   0 -21    0.21    3.72
   6   0 -21    0.70    4.27
  -6   0  21    3.19    5.49
  -6   0  21  -11.40    4.29
   6  -1 -21   11.09    4.47
   6  -1 -21    3.08    4.01
  -6   1  21   10.07    6.08
  -6   1  21    1.87    4.17
   6  -2 -21   32.82    7.33
  -6   2  21   14.21    8.89
   6  -4 -21   -0.20    4.11
   6  -4 -21    0.67    4.57
  -6   4  21    3.63    4.86
   6  -5 -21   -0.62    5.04
   6  -5 -21    1.84    4.27
  -6   5  21   -2.92    7.10
  -6   5  21    1.34    4.91
   6  -6 -21    0.22    5.10
  -6   6  21    3.86    8.07
   6  -7 -21    0.25    4.57
   6  -7 -21    2.52    5.56
  -6   7  21    5.85    8.00
  -6   7  21    0.25    5.97
   5  -7 -21   -5.14    4.69
   5  -7 -21  -10.81    5.64
  -5   7  21   -2.63    8.38
  -5   7  21   -0.49    5.79
   4  -7 -21   -1.40    4.04
   4  -7 -21    0.24    5.77
  -4   7  21    1.47    7.99
   3  -7 -21    0.26    5.38
   3  -7 -21   -3.56    3.51
   7   3 -21    0.23    4.12
   7   3 -21    5.19    4.22
  -7  -3  21    0.52    3.89
  -7  -3  21    1.14    5.56
  -3   7  21   -0.68    8.34
   2  -7 -21   23.95    5.45
   7   2 -21    2.72    4.27
   7   2 -21   -0.52    4.54
   2  -7 -21    2.85    3.41
  -7  -2  21    0.54    4.21
  -2   7  21   14.38    8.93
  -7  -2  21    8.17    5.87
   7   1 -21    1.96    4.40
   7   1 -21    1.18    4.22
   1  -7 -21   -0.18    3.24
  -7  -1  21    2.66    4.07
  -7  -1  21    8.00    5.83
   7   0 -21    7.78    4.35
   7   0 -21    3.48    4.51
  -7   0  21    7.09    4.55
  -7   0  21    4.64    6.28
   7  -1 -21   -0.19    4.64
   7  -3 -21   40.32    5.57
   7  -3 -21    5.41    5.02
  -7   3  21    0.22    5.60
  -7   3  21   32.34    7.27
   7  -4 -21   -9.86    6.17
   7  -4 -21   -1.64    5.23
  -7   4  21   -5.08    8.08
  -7   4  21    0.23    5.36
   7  -5 -21   -9.65    5.98
   7  -5 -21  -15.80    5.67
  -7   5  21    0.24    5.98
  -7   5  21   -2.95    8.04
   7  -6 -21    0.22    5.78
  -7   6  21    0.18    7.56
   7  -7 -21   -0.24    5.85
   7  -7 -21   -6.75    5.66
  -7   7  21   -9.43    6.67
  -7   7  21   -0.39    8.09
   7  -8 -21    2.23    6.38
   7  -8 -21   21.38    5.96
  -7   8  21    3.14    6.56
  -7   8  21    0.21    8.51
   6  -8 -21    0.27    4.53
   6  -8 -21   -1.48    5.82
  -6   8  21    1.87    8.41
  -6   8  21    1.36    6.42
   5  -8 -21    1.52    5.99
   5  -8 -21    2.58    4.46
  -5   8  21    0.65    8.75
  -5   8  21    1.29    5.92
   4  -8 -21   -5.29    3.97
   4  -8 -21   -0.26    6.07
  -4   8  21  -14.89    9.20
   3  -8 -21   -0.79    3.95
   3  -8 -21    0.27    5.91
   8   3 -21    1.27    4.71
   8   3 -21    2.45    4.60
  -3   8  21    1.95    8.87
   2  -8 -21    0.84    6.16
   2  -8 -21    1.32    3.65
   8   2 -21    6.15    5.01
   8   2 -21    4.44    5.30
  -8  -2  21   17.02    6.95
  -2   8  21    3.95    9.75
  -8  -2  21    5.74    4.60
   8   1 -21   -2.86    4.81
   1  -8 -21   -3.58    3.51
  -1   8  21    6.13    9.82
  -8  -1  21   -0.21    3.35
  -8  -1  21   -7.22    6.34
   8  -1 -21   -4.54    5.32
  -8   1  21   -0.22    4.88
   8  -2 -21   12.21    5.85
   8  -2 -21    5.07    5.13
  -8   2  21    0.23    5.15
  -8   2  21    0.62    6.74
   8  -3 -21   -5.63    5.41
   8  -3 -21    1.19    5.03
  -8   3  21   -3.25    7.30
  -8   3  21   -0.24    5.27
   8  -4 -21   -6.88    5.35
   8  -4 -21   -5.83    6.10
  -8   4  21    1.52    7.27
  -8   4  21   -0.25    5.35
   8  -5 -21   -2.90    5.48
   8  -5 -21    5.40    5.78
  -8   5  21   -0.26    5.57
  -8   5  21   -7.24    7.57
   8  -6 -21    0.23    5.69
  -8   6  21   -0.19    7.72
   8  -7 -21    9.98    6.27
   8  -7 -21    6.07    5.74
  -8   7  21   -3.35    8.10
  -8   7  21    0.28    6.73
   8  -8 -21   11.27    6.29
   8  -8 -21    0.26    6.22
  -8   8  21   -2.41    6.49
  -8   8  21    0.83    8.40
   8  -9 -21   21.11    8.45
   8  -9 -21   28.82    8.50
  -8   9  21    6.03   10.97
  -8   9  21   22.01    8.80
   7  -9 -21   15.87    6.75
   7  -9 -21   -0.32    6.20
  -7   9  21    0.22    9.24
  -7   9  21   15.12    7.39
   6  -9 -21    3.12    6.18
   6  -9 -21   15.91    5.72
  -6   9  21   -0.22    8.95
  -6   9  21    0.29    6.51
   5  -9 -21    2.95    6.07
   5  -9 -21    2.81    5.12
  -5   9  21    0.27    6.28
  -5   9  21   -0.23    9.26
   4  -9 -21    0.23    4.38
   4  -9 -21   -7.29    6.12
  -4   9  21   -0.25    9.42
   9   3 -21   17.93    4.86
   3  -9 -21   -0.85    4.17
   3  -9 -21    0.29    6.57
  -3   9  21    0.78    9.95
   2  -9 -21    0.30    6.14
   9   2 -21   -0.20    5.29
   2  -9 -21    0.20    3.66
  -2   9  21    1.12    9.80
   1  -9 -21   -0.20    3.78
  -1   9  21    1.18    9.63
   9   0 -21    1.67    5.94
   9   0 -21   -0.21    4.76
  -9   0  21   -3.51    5.21
   9  -1 -21    4.00    6.04
   9  -1 -21   -3.99    5.28
  -9   1  21   -4.79    6.87
  -9   1  21    0.24    4.85
   9  -2 -21   -3.07    5.71
   9  -2 -21    6.42    5.23
  -9   2  21   -0.25    5.35
  -9   2  21   -0.66    7.10
   9  -3 -21    1.98    5.43
   9  -3 -21    4.88    6.08
  -9   3  21    0.26    5.33
  -9   3  21   -0.68    7.03
   9  -4 -21    0.69    5.94
   9  -4 -21    0.23    5.45
  -9   4  21   -0.53    7.17
  -9   4  21   -4.00    5.57
   9  -5 -21   13.17    5.97
   9  -5 -21    0.47    5.93
  -9   5  21   12.94    6.16
  -9   5  21    1.66    7.61
   9  -6 -21    9.54    6.21
   9  -6 -21    6.59    6.06
  -9   6  21   -0.29    6.52
  -9   6  21    0.19    7.88
   9  -7 -21    0.25    6.47
   9  -7 -21   20.91    6.78
  -9   7  21    0.81    8.46
   9  -8 -21   25.72    8.11
   9  -8 -21   12.32    7.86
  -9   8  21   15.33    8.48
  -9   8  21    2.36   10.32
   9  -9 -21  -18.31    6.89
   9  -9 -21   -0.43    7.59
  -9   9  21    0.34    7.37
  -9   9  21   -1.14    9.30
   9 -10 -21    0.30    7.01
   9 -10 -21   -1.34    8.35
  -9  10  21   -1.21   10.15
  -9  10  21    2.50    7.91
   8 -10 -21   -3.89    6.85
   8 -10 -21    4.02    6.90
  -8  10  21   -0.24    9.77
  -8  10  21   -6.77    7.77
   7 -10 -21   -5.88    6.58
   7 -10 -21   12.52    6.40
  -7  10  21   10.96    7.32
  -7  10  21   -8.34    9.99
   6 -10 -21   -8.12    5.78
   6 -10 -21  -19.60    7.24
  -6  10  21   -0.31    7.38
  -6  10  21   -0.24   10.06
   5 -10 -21    2.98    5.22
   5 -10 -21   -2.29    6.55
  -5  10  21   -1.75    6.91
  -5  10  21    3.77    9.50
   4 -10 -21    6.27    6.74
   4 -10 -21   10.08    5.05
  -4  10  21    1.06   10.36
   3 -10 -21    0.23    4.01
   3 -10 -21    9.46    7.10
  -3  10  21   -0.57   10.88
   2 -10 -21    5.56    4.26
   2 -10 -21   -3.74    6.53
  10   2 -21    6.44    5.87
 -10  -2  21    7.87    4.94
  -2  10  21    0.30   11.10
  10   1 -21   21.86    6.18
   1 -10 -21    9.85    4.77
  10   1 -21   11.16    6.77
 -10  -1  21   12.08    7.51
  -1  10  21    1.25   11.49
 -10  -1  21    8.63    5.74
  10   0 -21   -9.88    6.07
  10   0 -21   -0.22    5.28
 -10   0  21   -6.53    6.96
 -10   0  21    1.82    5.21
  10  -1 -21    8.88    5.89
  10  -1 -21   16.11    7.20
 -10   1  21   11.76    6.06
 -10   1  21   -0.17    7.56
  10  -2 -21    0.23    5.21
  10  -2 -21    7.06    7.02
 -10   2  21    0.27    5.40
 -10   2  21   -2.62    7.24
  10  -3 -21   -5.31    5.67
  10  -3 -21   -2.00    6.92
 -10   3  21    1.96    5.65
 -10   3  21   -7.01    7.36
  10  -4 -21    0.40    5.96
  10  -4 -21    0.24    5.83
 -10   4  21    0.19    7.63
 -10   4  21    1.74    5.77
  10  -5 -21    0.41    7.01
  10  -5 -21    0.25    5.95
 -10   5  21    2.08    6.31
 -10   5  21    3.11    7.90
  10  -6 -21   -0.25    6.43
  10  -6 -21    0.42    6.38
 -10   6  21    0.20    8.56
 -10   6  21    0.31    6.98
  10  -7 -21    0.27    6.12
 -10   7  21    0.21    8.57
  10  -8 -21    8.15    7.59
  10  -8 -21    0.28    6.53
 -10   8  21    2.02    9.06
 -10   8  21    1.36    7.33
  10  -9 -21    5.66    8.23
  10  -9 -21    0.30    6.74
 -10   9  21    0.36    7.26
 -10   9  21   -1.65    9.51
  10 -10 -21    0.31    7.30
  10 -10 -21   20.24    8.55
 -10  10  21   -4.77   10.43
 -10  10  21    0.38    7.79
  10 -11 -21  -29.25    8.76
  10 -11 -21    0.53    9.50
 -10  11  21   -1.62    9.51
   9 -11 -21    6.62    7.47
   9 -11 -21    0.47    7.35
  -9  11  21    0.38    7.56
  -9  11  21    0.26   10.87
   8 -11 -21    2.87    7.33
   8 -11 -21    4.26    7.26
  -8  11  21    2.16    8.03
  -8  11  21    2.55   10.48
   7 -11 -21   -0.30    7.11
   7 -11 -21    1.85    6.87
  -7  11  21   25.44   10.79
  -7  11  21    0.35    7.79
   6 -11 -21   -5.91    6.02
   6 -11 -21    0.30    6.97
  -6  11  21    0.26   10.54
  -6  11  21   13.49    7.60
   5 -11 -21   -1.24    7.54
   5 -11 -21   -0.59    5.64
  -5  11  21   -9.39    6.79
  -5  11  21   -8.62   11.13
   4 -11 -21  -22.98    7.24
   4 -11 -21    1.08    5.19
  -4  11  21    0.31    7.64
  -4  11  21   -7.66   11.29
   3 -11 -21   -6.13    7.31
   3 -11 -21    0.24    4.75
  -3  11  21    3.62   11.53
   2 -11 -21    6.50    5.22
  11   2 -21    8.20    6.25
   2 -11 -21   18.08    7.56
  -2  11  21    7.66   12.22
 -11  -2  21    8.70    7.75
  11   1 -21  -12.69    6.09
   1 -11 -21    0.45    4.41
 -11  -1  21   -9.30    7.62
 -11  -1  21  -13.69    5.48
  11   0 -21   57.88   11.05
 -11   0  21   12.51   10.69
 -11   0  21   47.13   12.50
  11  -1 -21   -8.04    5.85
  11  -1 -21   -3.44    6.75
 -11   1  21    3.25    7.63
 -11   1  21    8.59    6.10
  11  -2 -21   14.95    7.25
  11  -2 -21   20.45    6.73
 -11   2  21   10.00    6.93
 -11   2  21    7.95    8.50
  11  -3 -21    1.47    5.64
  11  -3 -21  -12.56    7.05
 -11   3  21   -0.77    7.95
 -11   3  21    0.31    5.97
  11  -4 -21    2.77    6.16
  11  -4 -21   -2.72    7.50
 -11   4  21   -6.70    7.30
 -11   4  21   -0.79    8.24
  11  -5 -21   -1.55    6.35
  11  -5 -21    0.93    7.41
 -11   5  21    0.33    6.95
 -11   5  21   -5.29    8.23
  11  -6 -21   -3.50    6.34
  11  -6 -21    0.95    7.54
 -11   6  21   -0.21    8.77
 -11   6  21    1.02    6.77
  11  -7 -21   -0.28    6.56
 -11   7  21   -0.22    9.52
  11  -8 -21    9.67    8.29
  11  -8 -21    5.01    7.18
 -11   8  21    0.47    9.53
 -11   8  21    1.86    7.80
  11  -9 -21    0.31    7.07
  11  -9 -21    0.53    8.17
 -11   9  21    0.50   10.10
 -11   9  21    0.78    8.35
  11 -10 -21    0.55    9.05
  11 -11 -21    0.35    8.11
  11 -11 -21    0.58    8.98
 -11  11  21    7.86   11.63
 -11  11  21    4.37    8.89
  11 -12 -21   -5.52   10.13
  11 -12 -21    0.36    8.36
 -11  12  21  -17.75   12.57
 -11  12  21  -10.65    9.55
  10 -12 -21    0.35    8.24
  10 -12 -21  -16.20    8.83
 -10  12  21    7.73    9.29
 -10  12  21   24.72   12.18
   9 -12 -21    0.33    7.97
  -9  12  21   -9.11   11.79
  -9  12  21    0.41    8.84
   8 -12 -21  -24.09    9.39
   7 -12 -21    6.67    7.35
   7 -12 -21    2.54    7.29
  -7  12  21    0.27   11.32
  -7  12  21    0.74    8.16
   6 -12 -21  -17.10    6.71
   6 -12 -21   -0.33    7.70
  -6  12  21    1.78    7.94
  -6  12  21    4.46   11.60
   5 -12 -21    0.32    5.41
   5 -12 -21    0.34    7.17
  -5  12  21    1.68    7.29
  -5  12  21   14.94   12.11
   4 -12 -21    0.68    7.65
   4 -12 -21    0.29    5.40
  -4  12  21   14.13   11.80
  -4  12  21   -6.92    7.63
   3 -12 -21    5.26    5.08
   3 -12 -21    0.34    6.87
  -3  12  21    5.12   12.04
   2 -12 -21  -20.77    7.46
   2 -12 -21    3.53    5.14
  12   2 -21  -21.86    6.38
  -2  12  21  -12.50   12.63
   1 -12 -21    1.21    4.97
  12   1 -21   18.00    6.68
  12   0 -21  -11.26    7.07
   0 -12  21   -4.78    9.87
  12  -1 -21   14.22    6.92
  12  -2 -21    7.50    6.55
 -12   2  21    2.37    6.37
  12  -3 -21    1.59    6.33
 -12   3  21    1.87    8.53
 -12   3  21   -1.39    7.00
  12  -4 -21    5.11    6.60
 -12   4  21   -0.21    8.43
 -12   4  21    0.71    6.80
  12  -5 -21    5.70    8.23
  12  -5 -21   -0.28    6.66
 -12   5  21   -3.95    9.11
 -12   5  21    0.36    6.52
  12  -6 -21  -16.07    7.00
  12  -6 -21   -9.56    8.09
 -12   6  21   -2.63    7.67
 -12   6  21  -10.77    9.49
  12  -7 -21    0.30    6.90
 -12   7  21   -0.24    9.90
  12  -8 -21   -1.13    9.04
  12  -8 -21   -0.31    7.81
 -12   8  21  -12.18    9.67
 -12   8  21  -30.47   11.39
  12  -9 -21   -9.96    9.32
  12  -9 -21   -0.33    8.08
 -12   9  21   -2.10   11.15
 -12   9  21   -0.43    8.58
  12 -10 -21   -1.22    8.93
  12 -10 -21   15.89    8.40
 -12  10  21   -6.28    8.43
 -12  10  21   12.86   11.72
  12 -11 -21   -0.37    8.67
 -12  11  21   13.99   12.82
  11 -13 -21   -4.98    9.22
  10 -13 -21    0.37    8.67
  10 -13 -21  -11.16    9.99
 -10  13  21   -1.38    9.46
 -10  13  21    0.61   12.47
   9 -13 -21    1.42    8.16
   9 -13 -21   -2.70    9.47
  -9  13  21  -11.15    9.23
  -9  13  21   12.68   12.72
   8 -13 -21   16.25    8.34
   8 -13 -21    0.48    8.61
  -8  13  21    9.04   12.23
  -8  13  21    2.44    9.12
   7 -13 -21   33.65   11.23
   7 -13 -21   18.98   12.23
  -7  13  21   70.04   17.54
  -7  13  21   -0.39   12.61
   6 -13 -21   -8.08    6.82
   6 -13 -21   -3.14    8.01
  -6  13  21    0.30   12.69
  -6  13  21    0.38    8.44
   5 -13 -21    1.04    6.57
   5 -13 -21    1.06    8.06
  -5  13  21   -0.37    8.70
  -5  13  21   12.29   12.63
   4 -13 -21   -4.73    6.36
   4 -13 -21  -10.68    7.89
  -4  13  21   -0.35    8.09
  -4  13  21   -4.23   12.48
   3 -13 -21    0.36    7.38
   3 -13 -21  -11.89    5.48
  -3  13  21    3.09   12.87
   2 -13 -21    5.67    5.35
  -2  13  21   13.56   12.91
   1 -13 -21    0.77    5.11
   0 -13  21    3.92   10.18
  10 -14 -21   -6.16    9.01
 -10  14  21  -10.96   13.55
   9 -14 -21   11.36    9.81
   9 -14 -21    0.37    9.21
  -9  14  21   22.08   13.42
  -9  14  21    0.45    9.28
   8 -14 -21   -7.79    8.97
   8 -14 -21   -2.61    9.21
  -8  14  21    3.44   12.81
  -8  14  21   -0.43    9.22
   7 -14 -21  -13.34    8.45
   7 -14 -21   -0.37    8.26
  -7  14  21   15.06   13.24
  -7  14  21    0.42    9.22
   6 -14 -21    0.81    7.53
   6 -14 -21   23.90    8.54
  -6  14  21    4.01    8.93
  -6  14  21  -12.71   13.67
   5 -14 -21  -30.56    9.60
   5 -14 -21  -17.37    8.24
  -5  14  21   -0.40   10.48
   4 -14 -21  -15.16    6.66
   4 -14 -21    0.37    8.51
  -4  14  21    0.37    9.22
   3 -14 -21   -7.04    8.05
   3 -14 -21   -0.95    6.03
  -3  14  21    1.11    8.31
  -3  14  21  -16.33   13.72
   2 -14 -21    3.22    5.69
  -2  14  21   14.87   13.39
   1 -14 -21    2.51    5.40
   0 -14  21   -9.60   11.97
   9 -15 -21   -1.17    9.00
   9 -15 -21    1.22    9.11
  -9  15  21  -11.07   14.40
   8 -15 -21   13.16    9.24
   8 -15 -21    6.02    9.89
  -8  15  21   -0.45    9.51
  -8  15  21    0.67   14.18
   7 -15 -21    0.39    8.94
   7 -15 -21    0.51    8.83
  -7  15  21    0.34   13.94
  -7  15  21    0.44    9.67
   6 -15 -21    0.39    8.87
  -6  15  21  -21.03   14.83
  -6  15  21    3.39    9.10
  -5  15  21   -1.65    8.91
   0 -15  21   -4.28   12.79
   0 -16  21    0.34   14.33
   0  17 -21  -10.10   18.65
   0 -17  21    2.65   15.34
  -1 -17  21   16.54   17.81
   1   0 -22    1.19    3.11
   1   1 -22   -2.36    3.19
   1  -1 -22    0.17    2.92
   2   1 -22    0.63    2.79
   1  -2 -22    1.39    2.94
   2   1 -22   -2.66    4.82
  -2  -1  22  -10.62    7.16
   2   0 -22   -6.03    5.17
   2   0 -22    2.87    3.02
  -2   0  22    3.97    7.41
   2  -1 -22    3.36    4.75
   1   2 -22    1.16    2.98
   2  -1 -22   -0.49    3.01
  -2   1  22    6.36    7.45
   2   2 -22    6.24    3.49
   2  -2 -22    9.51    3.58
   2  -2 -22    2.91    4.92
  -2   2  22    4.94    8.09
  -2  -2  22   19.31    7.57
   3   2 -22   -1.10    4.56
   2  -3 -22    9.66    2.88
   3   2 -22   -0.91    3.06
   2  -3 -22    2.71    5.04
  -2   3  22    0.44    7.55
  -3  -2  22    0.19    6.84
   3   1 -22   22.32    6.96
   3   1 -22   22.56    5.61
  -3  -1  22   31.42    8.76
  -1   3  22   25.92    9.33
   3   0 -22   -1.74    2.89
   3   0 -22   -4.87    4.91
  -3   0  22    1.51    6.95
   3  -1 -22   19.85    4.95
   3  -1 -22   27.75    6.37
   1   3 -22    9.65    5.07
  -3   1  22    7.39    8.38
   3  -2 -22    0.49    3.03
   2   3 -22    0.44    2.94
   3  -2 -22    0.91    5.00
  -3   2  22    1.95    7.07
   3  -3 -22   11.16    5.87
   3   3 -22   14.71    4.09
   3   3 -22    8.66    5.68
  -3  -3  22   11.45    7.66
  -3   3  22    5.63    7.83
   4   3 -22    1.42    4.70
   4   3 -22    3.09    3.11
  -4  -3  22    4.43    6.38
   4   2 -22   26.14    7.29
   4   2 -22   39.85    7.99
  -4  -2  22   32.14    9.64
   4   1 -22    2.25    4.54
   4   1 -22    6.91    3.26
  -4  -1  22    6.02    6.47
  -1   4  22   -0.25    8.02
   4   0 -22   26.21    6.64
   4   0 -22   34.13    7.49
  -4   0  22    8.44    9.31
   1   4 -22    2.46    3.07
   4  -1 -22   -2.27    4.67
   4  -1 -22    0.17    3.23
  -4   1  22    4.00    6.91
   4  -2 -22   -0.18    5.62
   4  -2 -22   36.65    6.68
  -4   2  22   15.81    9.00
   4  -4 -22    8.73    4.20
   4  -5 -22    0.94    5.40
   4  -5 -22    9.97    3.96
  -4   5  22   -1.23    8.23
   5   3 -22    6.94    3.68
   3  -5 -22    4.67    3.60
   5   3 -22    7.43    4.51
  -5  -3  22    5.03    3.85
  -5  -3  22    7.01    6.36
   5   2 -22   10.03    4.60
   2  -5 -22    0.70    3.29
   5   2 -22    6.76    3.66
  -5  -2  22    2.45    3.71
  -5  -2  22   -3.31    6.37
   5   1 -22   13.83    4.21
   5   1 -22    7.39    4.99
  -5  -1  22    7.67    4.67
  -5  -1  22    3.33    6.70
   5   0 -22   -1.16    4.40
   5   0 -22   -2.09    3.31
  -5   0  22    0.16    6.11
  -5   0  22   -0.18    4.02
   5  -1 -22   16.74    4.36
   5  -1 -22    7.84    5.09
  -5   1  22    1.78    7.06
   5  -4 -22   23.81    6.88
  -5   4  22   38.91    9.09
   5  -5 -22    3.47    4.37
   5  -5 -22   -0.45    5.19
  -5   5  22   -0.77    7.79
   5  -6 -22    0.24    5.74
  -5   6  22   -1.01    8.26
   4  -6 -22  -10.65    5.82
  -4   6  22    0.22    8.33
   3  -6 -22   11.47    5.86
   6   3 -22   12.82    4.94
   6   3 -22    6.34    4.33
  -3   6  22    0.23    8.94
  -6  -3  22    1.67    4.28
   2  -6 -22    5.69    5.59
   6   2 -22    5.19    4.48
   6   2 -22    5.47    4.06
  -6  -2  22   11.55    6.22
  -6  -2  22    7.05    4.29
  -2   6  22    1.75    8.60
   6   1 -22    4.86    4.20
   1  -6 -22    0.56    3.70
   6   1 -22   10.70    4.57
  -1   6  22   11.44    9.01
  -6  -1  22    4.26    4.47
  -6  -1  22    5.82    6.10
   6   0 -22   14.62    4.93
   6   0 -22    5.12    5.29
  -6   0  22    8.89    6.97
  -6   0  22   18.35    5.25
   6  -3 -22    4.80    5.31
   6  -3 -22   38.69    5.99
  -6   3  22   30.38    7.76
  -6   3  22    0.22    5.38
   6  -4 -22    0.47    5.19
   6  -4 -22   -7.81    5.39
  -6   4  22    1.80    5.54
  -6   4  22   -7.94    8.35
   6  -5 -22   -0.22    5.17
   6  -5 -22   -0.24    5.07
  -6   5  22    0.24    5.55
  -6   5  22   -2.23    8.27
   6  -6 -22    8.42    5.74
  -6   6  22    1.37    8.08
   6  -7 -22   -0.26    4.91
   6  -7 -22    1.23    5.92
  -6   7  22    4.73    6.09
  -6   7  22    0.21    8.51
   5  -7 -22    0.25    5.65
   5  -7 -22   -3.99    4.67
  -5   7  22   -0.22    8.41
  -5   7  22   -0.26    5.91
   4  -7 -22    0.27    6.05
   4  -7 -22   -0.21    4.09
  -4   7  22   -0.69    9.15
   7   3 -22   -6.65    4.75
   3  -7 -22    8.80    6.30
   3  -7 -22    0.20    3.72
   7   3 -22   -0.47    4.16
  -3   7  22   -0.24    8.99
   2  -7 -22    5.68    6.14
   7   2 -22    0.18    4.79
   2  -7 -22    0.19    3.49
   7   2 -22    6.18    4.51
  -2   7  22    7.39    9.24
  -7  -2  22   -0.57    4.54
  -7  -2  22   -3.82    6.46
   7   1 -22  -10.05    4.67
   1  -7 -22    0.38    3.54
   7   1 -22   -0.24    3.64
  -7  -1  22  -13.12    6.61
  -1   7  22   -0.84    9.10
   7  -1 -22   -0.25    4.38
   7  -2 -22    5.80    5.25
   7  -2 -22    8.39    4.90
  -7   2  22    0.45    5.34
  -7   2  22    8.27    6.79
   7  -3 -22   -4.00    5.54
   7  -3 -22   -1.29    4.94
  -7   3  22    2.19    7.63
  -7   3  22    6.60    4.95
   7  -4 -22   66.62   14.35
   7  -4 -22    7.62    7.18
   7  -5 -22   -0.23    5.40
   7  -5 -22  -26.53    6.81
  -7   5  22   -2.21    9.04
  -7   5  22    0.26    5.99
   7  -6 -22    4.96    5.77
   7  -6 -22   -0.28    5.23
  -7   6  22    1.63    6.20
  -7   6  22   -0.20    8.13
   7  -7 -22    2.25    6.10
   7  -7 -22    0.29    5.28
  -7   7  22    2.56    6.58
  -7   7  22    2.68    8.74
   7  -8 -22    1.31    6.10
   7  -8 -22   -0.31    5.49
  -7   8  22    0.22    8.98
  -7   8  22   -0.30    6.76
   6  -8 -22    1.65    4.73
   6  -8 -22    4.26    6.22
  -6   8  22   -0.22    8.89
  -6   8  22    0.28    6.16
   5  -8 -22    3.95    4.94
   5  -8 -22    8.33    6.54
  -5   8  22    4.21    9.01
  -5   8  22   -1.09    6.20
   4  -8 -22    0.28    6.34
   4  -8 -22    0.22    4.23
  -4   8  22   -1.95    9.40
   3  -8 -22    0.21    4.14
   3  -8 -22   -5.80    6.56
  -3   8  22    1.82    9.56
   2  -8 -22   -8.65    6.43
   8   2 -22   -0.98    5.12
   2  -8 -22   -0.80    3.82
  -8  -2  22   -2.34    6.53
  -2   8  22   -0.28    9.56
   1  -8 -22  -10.38    3.81
  -1   8  22   -0.59   10.10
   8   0 -22   -1.45    5.24
  -8   0  22    4.67    5.17
   8  -1 -22   -2.10    5.33
   8  -1 -22    6.24    4.86
  -8   1  22   -4.34    6.75
  -8   1  22    1.85    5.28
   8  -2 -22    5.36    5.17
   8  -2 -22    1.16    5.16
  -8   2  22    0.17    7.16
  -8   2  22    3.82    5.15
   8  -3 -22    5.50    5.43
   8  -3 -22    3.57    5.52
  -8   3  22    2.60    7.17
  -8   3  22   -1.74    5.41
   8  -4 -22    5.89    5.79
   8  -4 -22    1.22    6.07
  -8   4  22    5.77    7.75
  -8   4  22    0.26    5.36
   8  -5 -22    5.39    5.89
   8  -5 -22    1.88    5.87
  -8   5  22    0.27    5.86
  -8   5  22    1.32    8.20
   8  -6 -22    0.65    5.77
   8  -6 -22    0.74    6.18
  -8   6  22    0.28    6.36
  -8   6  22    0.39    8.16
   8  -7 -22    0.26    5.90
  -8   7  22    4.82    8.54
   8  -8 -22   54.42    9.36
   8  -8 -22   29.75    9.61
  -8   8  22    9.53   12.33
  -8   8  22    6.59    9.52
   8  -9 -22    0.29    6.79
   8  -9 -22  -17.67    6.49
  -8   9  22   -0.34    7.25
  -8   9  22    4.04    9.92
   7  -9 -22   24.52    7.02
   7  -9 -22   22.21    7.90
  -7   9  22   15.36   11.00
  -7   9  22    0.32    7.59
   6  -9 -22    5.95    5.71
   6  -9 -22    1.42    6.79
  -6   9  22   16.15    7.53
  -6   9  22   -0.95    9.73
   5  -9 -22    5.52    6.39
   5  -9 -22    4.02    4.65
  -5   9  22   -0.25    9.74
  -5   9  22    0.29    6.40
   4  -9 -22    6.05    4.65
   4  -9 -22    0.30    6.72
  -4   9  22    0.79   10.29
   3  -9 -22   -0.31    6.59
   3  -9 -22   -2.01    4.03
  -3   9  22   -0.56   10.54
   2  -9 -22   -0.31    6.65
   2  -9 -22   -1.06    4.13
   9   2 -22   -0.33    5.54
  -2   9  22    2.40   10.45
   1  -9 -22    2.91    3.79
   9   1 -22   -4.04    6.00
  -9  -1  22   -1.40    5.09
  -1   9  22   -3.74   10.61
   9   0 -22    0.22    5.43
   9   0 -22  -14.20    6.00
  -9   0  22   -2.80    7.03
  -9   0  22   -4.08    5.11
   9  -1 -22   -1.04    6.80
   9  -1 -22   -5.12    5.71
  -9   1  22   -6.11    7.62
  -9   1  22    0.25    5.68
   9  -2 -22    3.91    6.54
   9  -2 -22    6.58    5.36
  -9   2  22    2.97    7.43
  -9   2  22    0.26    5.48
   9  -3 -22    2.12    6.06
   9  -3 -22   -5.35    5.63
  -9   3  22   -0.27    5.85
  -9   3  22   -2.89    7.42
   9  -4 -22    8.59    6.00
   9  -4 -22    6.15    6.44
  -9   4  22    0.28    6.03
  -9   4  22   -0.75    7.72
   9  -5 -22   -4.44    5.87
   9  -5 -22   -9.29    6.62
  -9   5  22   -0.39    8.26
  -9   5  22    0.58    6.44
   9  -6 -22    0.26    6.08
   9  -6 -22   -0.38    7.08
  -9   6  22   -3.01    6.61
  -9   6  22    0.61    8.54
   9  -7 -22    0.27    7.08
  -9   7  22    1.71    9.56
   9  -8 -22    0.28    6.77
   9  -8 -22   -2.06    7.15
  -9   8  22   -0.33    7.15
  -9   8  22   -2.50    9.10
   9  -9 -22    0.30    7.13
   9  -9 -22    0.43    7.82
  -9   9  22   34.39   10.19
  -9   9  22    0.35    8.13
   9 -10 -22   -2.81    7.64
   9 -10 -22    0.45    8.00
  -9  10  22   -2.58   10.51
  -9  10  22   -2.25    8.12
   8 -10 -22    0.81    7.47
   8 -10 -22    0.61    7.19
  -8  10  22    0.36    8.45
  -8  10  22   -1.01   10.30
   7 -10 -22   10.15    6.89
   7 -10 -22    1.06    5.92
  -7  10  22    3.05    7.21
  -7  10  22   -0.51   10.35
   6 -10 -22    0.31    5.41
   6 -10 -22    1.51    7.13
  -6  10  22    4.67   10.34
  -6  10  22    0.33    7.11
   5 -10 -22    0.28    5.40
   5 -10 -22   -0.31    6.80
  -5  10  22    0.61    7.38
  -5  10  22   -1.91   11.16
   4 -10 -22    0.32    6.83
   4 -10 -22   -0.26    4.68
  -4  10  22    0.56   10.94
   3 -10 -22    7.12    4.81
   3 -10 -22   -3.26    6.81
  -3  10  22   -0.90   10.92
  10   2 -22    8.12    5.62
   2 -10 -22    5.97    6.76
   2 -10 -22   -4.27    4.11
  10   2 -22   -4.53    5.44
  -2  10  22   -0.64   11.54
 -10  -2  22    7.75    5.07
 -10  -2  22    6.12    7.28
  10   1 -22    1.90    6.14
   1 -10 -22    1.77    4.17
  10   1 -22   -3.90    5.53
 -10  -1  22   -2.33    5.09
 -10  -1  22    1.54    7.41
  10   0 -22    6.51    5.91
  10   0 -22    5.52    7.00
 -10   0  22    6.67    6.29
 -10   0  22   17.84    7.92
  10  -1 -22   -1.20    6.83
  10  -1 -22    0.24    5.58
 -10   1  22  -10.39    5.58
 -10   1  22   -5.41    7.81
  10  -2 -22  -10.61    6.98
  10  -2 -22   -0.24    5.54
 -10   2  22    6.66    7.77
 -10   2  22   -1.69    5.99
  10  -3 -22    3.67    7.14
  10  -3 -22    6.34    5.99
 -10   3  22    0.29    6.11
 -10   3  22   -5.71    7.89
  10  -4 -22   -0.25    5.91
  10  -4 -22   -0.42    6.81
 -10   4  22    1.37    8.16
 -10   4  22    0.90    6.07
  10  -5 -22    0.43    6.80
  10  -5 -22   -5.45    6.47
 -10   5  22    0.31    6.74
 -10   5  22   -0.20    8.39
  10  -6 -22    2.64    7.75
  10  -6 -22    8.07    6.21
 -10   6  22    0.21    8.51
 -10   6  22    5.82    6.91
  10  -7 -22   -3.09    6.60
 -10   7  22   -4.03    9.48
  10  -8 -22    0.29    6.81
  10  -8 -22   12.73    7.69
 -10   8  22   -2.13    9.42
 -10   8  22    8.87    7.13
  10  -9 -22   -1.24    7.12
  10  -9 -22  -11.31    8.23
 -10   9  22    1.12    7.81
 -10   9  22   -4.98   10.02
  10 -10 -22    0.33   11.06
  10 -10 -22    5.15   11.21
  10 -11 -22   -0.35    8.38
  10 -11 -22    1.62    8.20
 -10  11  22   -7.61    9.33
 -10  11  22   25.05   11.65
   8 -11 -22    0.32    7.19
   8 -11 -22  -15.87    8.08
  -8  11  22   -0.38    7.98
  -8  11  22   -1.36   11.31
   7 -11 -22   -3.75    7.34
   7 -11 -22    0.32    7.63
  -7  11  22    0.36    8.27
  -7  11  22   -1.37   10.91
   6 -11 -22    0.32    7.35
   6 -11 -22    6.68    6.16
  -6  11  22   -1.42    8.04
  -6  11  22    0.85   11.32
   5 -11 -22   18.83    7.99
   5 -11 -22    0.31    5.68
  -5  11  22   -5.60    6.69
  -5  11  22  -13.73   11.86
   4 -11 -22    0.34    7.65
   4 -11 -22    0.28    5.07
  -4  11  22   -0.98    7.05
  -4  11  22   -0.31   11.58
   3 -11 -22    2.82    5.20
   3 -11 -22   -0.34    7.28
  -3  11  22   19.19   12.75
   2 -11 -22    0.24    4.53
  11   2 -22    0.24    5.81
   2 -11 -22   -3.86    7.36
 -11  -2  22   -1.68    5.43
  -2  11  22  -15.87   12.55
 -11  -2  22   20.27    8.15
  11   1 -22    8.49    7.35
   1 -11 -22    6.39    6.00
 -11  -1  22   12.43    7.10
 -11  -1  22   41.44    9.49
  11   0 -22    0.44    6.71
  11   0 -22    0.25    5.97
 -11   0  22   -7.77    8.00
 -11   0  22   -3.55    5.93
  11  -1 -22   28.96    8.32
  11  -1 -22   34.53    7.81
 -11   1  22   15.91    9.38
 -11   1  22    4.25    7.44
  11  -2 -22  -18.70    7.41
  11  -2 -22   -0.25    6.01
 -11   2  22  -21.34    8.44
 -11   2  22    1.56    6.29
  11  -3 -22    1.85    7.23
  11  -3 -22    0.26    6.12
 -11   3  22   -2.23    8.36
 -11   3  22    0.32    6.71
  11  -4 -22    2.90    6.64
  11  -4 -22   10.37    7.91
 -11   4  22   -0.33    6.34
 -11   4  22   -6.88    8.78
  11  -5 -22    0.48    8.03
  11  -5 -22   -7.10    6.91
 -11   5  22   -2.15    8.87
 -11   5  22    0.34    6.85
  11  -6 -22   -5.66    6.57
  11  -6 -22    6.45    8.22
 -11   6  22   -2.94    9.43
 -11   6  22   -2.12    7.60
  11  -7 -22    4.15    7.23
 -11   7  22   13.43   10.20
  11  -8 -22    1.59    8.49
  11  -8 -22    0.31    7.48
 -11   8  22   -0.39    8.39
 -11   8  22    2.50   10.06
  11  -9 -22   43.31   14.62
  11  -9 -22   32.53   16.19
 -11   9  22    0.41   15.50
  11 -10 -22    1.73    9.44
  11 -10 -22  -13.01    8.47
 -11  10  22    1.72    9.01
 -11  10  22   -6.67   11.58
  11 -11 -22   10.87    9.63
  11 -11 -22    0.36    8.73
 -11  11  22    0.91    9.69
 -11  11  22   -4.99   12.23
  11 -12 -22    0.38    9.12
 -11  12  22    1.25   13.35
  10 -12 -22   -1.45    8.69
  10 -12 -22   10.51    9.68
 -10  12  22   -0.45    9.49
 -10  12  22   -2.71   12.26
   9 -12 -22    6.36    8.27
   9 -12 -22   -0.52    9.14
  -9  12  22    0.42    8.88
  -9  12  22  -41.08   12.73
   7 -12 -22  -16.01    8.61
   7 -12 -22    0.35    9.08
  -7  12  22  -29.55    9.81
  -7  12  22   -2.07   13.61
   6 -12 -22   11.33    6.92
   6 -12 -22    8.43    8.05
  -6  12  22    5.44   12.11
  -6  12  22    0.76    8.33
   5 -12 -22    0.33    6.20
   5 -12 -22    0.36    8.22
  -5  12  22   12.00   12.64
  -5  12  22    0.35    7.77
   4 -12 -22    4.32    7.79
   4 -12 -22   -5.72    5.87
  -4  12  22    0.35    7.31
  -4  12  22    0.33   13.06
   3 -12 -22   -0.36    7.50
   3 -12 -22    0.28    5.38
  -3  12  22   21.04   13.08
   2 -12 -22   -5.88    8.29
  12   2 -22   28.35    6.99
   2 -12 -22    0.26    9.44
  12   1 -22   -8.73    6.43
   1 -12 -22   10.93    5.55
 -12  -1  22    9.33    8.26
  12   0 -22    3.12    7.28
 -12   0  22   17.36    8.91
  12  -1 -22   -3.70    6.30
 -12   1  22  -12.54    6.87
 -12   1  22  -10.02    8.39
  12  -2 -22    9.94    6.70
 -12   2  22    0.35    6.80
 -12   2  22   -3.17    8.70
  12  -3 -22   18.93    6.94
 -12   3  22   -5.86    9.09
 -12   3  22    0.35    6.78
  12  -4 -22    0.28    6.46
  12  -4 -22    0.53    8.35
 -12   4  22    0.22    9.13
 -12   4  22   -2.90    6.57
  12  -5 -22    2.69    8.39
  12  -5 -22    0.29    6.44
 -12   5  22   -7.11    9.61
 -12   5  22   -1.87    7.47
  12  -6 -22   -2.09    7.15
  12  -6 -22    4.35    8.97
 -12   6  22   -3.62    9.95
 -12   6  22    0.39    7.87
  12  -7 -22    0.31    7.88
 -12   7  22  -27.08   11.56
  12  -8 -22  -18.52    9.75
  12  -8 -22   -3.27    8.36
 -12   8  22   -9.63    9.42
  12  -9 -22  -10.69    8.34
  12  -9 -22   -0.60    9.63
 -12   9  22   12.30    8.91
 -12   9  22    3.33   11.40
  12 -10 -22    0.63   10.07
  12 -10 -22   -0.36    8.16
 -12  10  22   13.86   12.49
 -12  10  22    0.46    9.61
  10 -13 -22    5.00    8.90
  10 -13 -22  -22.14    9.40
 -10  13  22  -25.42   14.15
   9 -13 -22    2.97    8.46
   9 -13 -22   -5.65    9.83
  -9  13  22  -16.40   13.43
  -9  13  22   -0.45    9.34
   8 -13 -22   10.07    9.35
   8 -13 -22   -0.36    8.63
  -8  13  22    0.94   12.90
  -8  13  22    1.29    9.62
   7 -13 -22    1.48    8.65
   7 -13 -22   -0.44    7.94
  -7  13  22    1.89   12.37
  -7  13  22    1.65    9.31
   6 -13 -22  -12.05    8.45
  -6  13  22  -16.80   11.28
   5 -13 -22    2.18    7.05
   5 -13 -22  -36.42    9.31
  -5  13  22  -12.38    9.81
   4 -13 -22    1.14    8.04
   4 -13 -22   -0.33    6.15
  -4  13  22    5.54    8.70
  -4  13  22  -16.16   13.85
   3 -13 -22    0.91    5.95
   3 -13 -22   12.91    8.30
  -3  13  22    2.94   14.11
   2 -13 -22   -3.11    5.24
  -2  13  22   -1.88   13.87
   1 -13 -22   -1.89    5.17
  13  -7 -22    1.00    8.16
 -13   7  22   16.38   11.53
  13  -8 -22    1.74    8.63
 -13   8  22   -5.40   12.07
  13  -9 -22    4.39    8.71
 -13   9  22  -14.81   12.72
   9 -14 -22    1.58    9.20
  -9  14  22   -2.37   14.66
   8 -14 -22    4.25    9.15
   8 -14 -22    0.39    8.86
  -8  14  22    0.91    9.83
  -8  14  22   -5.72   14.29
   7 -14 -22    0.48    8.96
   7 -14 -22   -0.39    9.17
  -7  14  22   11.21   13.85
  -7  14  22    3.96    9.95
   6 -14 -22    3.20    9.12
   6 -14 -22    6.41    7.87
  -6  14  22    0.42    9.53
  -6  14  22   23.88   14.66
   5 -14 -22    1.54    7.46
   5 -14 -22   -8.74    8.51
  -5  14  22  -15.72    9.23
  -5  14  22  -11.48   14.50
   4 -14 -22   -4.71    6.75
   4 -14 -22  -18.22    9.12
  -4  14  22   -0.39    9.17
  -4  14  22  -30.64   14.40
   3 -14 -22  -16.66    8.19
  -3  14  22  -36.52   11.15
  -3  14  22  -37.28   16.75
   2 -14 -22   -1.53    5.88
   1 -14 -22   -2.94    5.38
   8 -15 -22    0.42    9.50
  -8  15  22   -5.65   14.70
   7 -15 -22   13.23    9.26
   7 -15 -22   14.52    9.61
  -7  15  22    0.46    9.96
  -7  15  22   -2.91   15.67
   6 -15 -22    1.26    9.19
   6 -15 -22    0.47    8.08
  -6  15  22   -5.40   10.31
  -6  15  22   -2.94   14.94
   5 -15 -22   -7.03    9.09
   5 -15 -22    0.84    7.52
  -5  15  22    8.76   15.18
  -5  15  22    9.23   10.07
  -4  15  22    0.39   14.44
  -4  15  22   10.77    9.61
   1   0 -23   11.17    4.33
   1   1 -23   -0.36    3.43
   1  -1 -23   -0.18    3.19
   2   1 -23    0.34    3.11
  -2  -1  23   -4.70    7.36
   2   0 -23   -2.33    5.24
   2   0 -23    0.51    3.24
  -2   0  23    0.45    7.54
   1   2 -23    1.42    3.26
   2  -1 -23    6.24    5.41
   2  -1 -23    1.56    3.01
  -2   1  23  -12.74    7.75
   2  -2 -23   -0.78    5.36
   2   2 -23   -1.15    3.10
  -2   2  23   -2.79    7.95
   3   2 -23   14.58    5.87
   3   2 -23   12.61    4.11
  -3  -2  23   10.70    7.81
   3   1 -23   -1.35    3.24
   3   1 -23    3.34    4.92
  -3  -1  23   -1.43    7.35
   3   0 -23    8.64    5.61
   3   0 -23    8.85    4.26
  -3   0  23   19.35    8.12
   1   3 -23    4.15    3.36
   3  -1 -23    9.87    3.47
   3  -1 -23    4.35    5.67
  -3   1  23    2.49    7.59
   2   3 -23    8.38    3.78
   3  -2 -23   -0.25    5.37
   3   3 -23   -1.21    5.16
   3   3 -23    1.41    2.87
  -3  -3  23   -0.40    7.38
   4   3 -23   10.77    5.49
   3  -4 -23   28.99    6.11
   4   3 -23    3.15    4.25
   3  -4 -23    8.73    4.14
  -4  -3  23   11.40    7.78
   4   2 -23    2.25    3.50
   2  -4 -23    7.42    3.47
   4   2 -23    3.99    5.22
  -4  -2  23    2.89    7.14
   4   1 -23   11.13    4.64
   4   1 -23   13.15    6.08
   1  -4 -23   15.02    4.49
  -4  -1  23   13.04    7.75
   4   0 -23   -4.29    4.93
   4   0 -23   -2.89    3.42
  -4   0  23   -0.93    7.35
   4  -1 -23   23.99    6.01
  -4   1  23   -3.23    7.95
   4  -3 -23    3.65    4.04
   4  -4 -23    0.25    5.38
   4  -4 -23   -0.39    3.50
  -4   4  23   -0.63    8.03
   4  -5 -23    5.08    4.11
   4  -5 -23    6.72    6.27
  -4   5  23    5.48    8.77
   3  -5 -23    5.10    5.69
   5   3 -23    3.09    5.03
   3  -5 -23    7.63    3.83
   5   3 -23    5.36    3.83
  -3   5  23    3.99    8.62
   5   2 -23    3.12    3.88
   5   2 -23   -1.03    4.87
   2  -5 -23    0.28    5.71
   2  -5 -23   -1.68    3.22
  -2   5  23   11.19    8.84
  -5  -2  23    7.47    7.02
  -5  -2  23    3.82    4.05
   1  -5 -23    0.19    3.53
   5   1 -23    0.39    3.68
   5   1 -23    9.20    4.95
  -5  -1  23    1.67    4.14
  -1   5  23    1.08    8.65
  -5  -1  23    0.17    6.70
   5   0 -23   -1.05    5.23
  -5   0  23    1.89    7.33
   5  -2 -23    8.05    4.10
   5  -3 -23    3.59    4.42
   5  -3 -23    2.04    5.39
  -5   3  23   -4.68    7.62
   5  -4 -23    2.58    5.84
   5  -4 -23    3.90    4.67
  -5   4  23    8.59    8.40
   5  -5 -23    2.23    4.46
   5  -5 -23    2.94    5.83
  -5   5  23    2.73    8.27
   5  -6 -23   -0.26    6.18
  -5   6  23   -1.33    8.53
   4  -6 -23  -13.00    6.32
  -4   6  23   -0.23    8.79
   3  -6 -23    0.56    6.29
   6   3 -23   -0.42    3.85
  -3   6  23    0.75    9.20
   6   2 -23    4.51    5.24
   2  -6 -23    5.23    6.74
   6   2 -23   27.45    6.20
  -2   6  23    1.88    9.70
  -6  -2  23    9.45    5.36
   6   1 -23    1.01    5.31
  -6  -1  23   -4.76    7.28
  -1   6  23   -4.79    9.37
   6  -1 -23    2.54    4.37
  -6   1  23   -0.21    4.57
   6  -2 -23    1.65    5.07
   6  -2 -23   21.93    6.09
  -6   2  23    4.36    5.78
  -6   2  23   16.38    8.33
   6  -3 -23   -3.07    5.40
   6  -3 -23    1.21    4.65
  -6   3  23   -2.57    7.99
  -6   3  23    0.23    5.03
   6  -4 -23   -8.67    5.43
   6  -4 -23    3.18    5.40
  -6   4  23   -0.24    5.65
  -6   4  23   -6.12    8.32
   6  -5 -23    3.55    5.61
   6  -5 -23   -0.77    5.03
  -6   5  23    0.75    5.59
  -6   5  23    0.60    8.17
   6  -6 -23    2.90    4.89
   6  -6 -23   -0.25    5.96
  -6   6  23   -9.08    8.41
  -6   6  23   -1.57    6.16
   6  -7 -23   -2.14    6.22
   6  -7 -23    0.27    5.05
  -6   7  23    0.67    8.96
   5  -7 -23   -0.28    6.32
   5  -7 -23   -0.74    4.75
  -5   7  23    0.27    6.03
  -5   7  23    3.28    8.94
   4  -7 -23    9.56    4.49
   4  -7 -23    8.55    6.64
  -4   7  23   -0.74    9.53
   3  -7 -23    4.82    4.40
   3  -7 -23    0.29    6.25
  -3   7  23   -0.80    9.42
   7   2 -23    2.16    4.82
   2  -7 -23   -0.30    6.45
   2  -7 -23    4.59    3.93
  -2   7  23    2.83    9.99
  -7  -2  23    0.15    6.83
   1  -7 -23    4.67    3.77
   7   0 -23    0.26    4.29
  -7   0  23    0.22    4.86
   7  -1 -23    1.30    4.68
   7  -1 -23   -2.33    5.09
  -7   1  23    1.18    7.24
  -7   1  23    6.38    5.59
   7  -2 -23   -2.17    5.43
   7  -2 -23    0.27    5.11
  -7   2  23   -4.70    7.42
  -7   2  23    0.24    5.04
   7  -3 -23    2.45    5.40
   7  -3 -23   -0.22    5.18
  -7   3  23   -4.49    5.38
  -7   3  23    4.88    7.71
   7  -4 -23    0.93    5.98
  -7   4  23   -0.26    7.02
   7  -5 -23    9.15    5.94
   7  -5 -23    8.62    5.50
  -7   5  23    4.54    8.35
  -7   5  23   -6.82    6.27
   7  -6 -23   -0.25    5.80
   7  -6 -23    0.59    6.05
  -7   6  23   -0.84    8.38
  -7   6  23    0.29    6.56
   7  -7 -23    0.26    6.14
  -7   7  23    1.77    8.71
   7  -8 -23   47.55   11.08
   7  -8 -23   49.97   10.49
  -7   8  23    8.94   13.56
  -7   8  23   29.51   10.95
   6  -8 -23    0.86    5.09
   6  -8 -23    3.12    6.33
  -6   8  23    4.11    6.54
  -6   8  23   -0.24    9.87
   5  -8 -23    0.88    6.66
   5  -8 -23    0.26    5.01
  -5   8  23    2.02    6.50
  -5   8  23    2.49    9.89
   4  -8 -23    2.34    4.25
   4  -8 -23   -0.30    6.63
  -4   8  23   -5.27   10.34
   3  -8 -23   -5.71    4.54
   3  -8 -23    2.16    6.82
  -3   8  23    2.53   10.26
   2  -8 -23   -2.74    3.92
   2  -8 -23   -7.95    6.58
  -2   8  23    3.89   10.52
   1  -8 -23   -3.17    3.92
   8   1 -23    1.76    5.25
  -8  -1  23    1.55    4.75
   8   0 -23   -2.18    5.23
   8   0 -23    6.37    5.40
  -8   0  23   -8.12    5.09
  -8   0  23    9.14    7.16
   8  -1 -23   -4.16    5.49
   8  -1 -23    0.67    5.48
  -8   1  23   -0.96    5.45
  -8   1  23   -7.21    7.11
   8  -2 -23   -2.96    5.36
   8  -2 -23   -2.74    5.20
  -8   2  23    6.02    5.41
  -8   2  23  -15.78    7.46
   8  -3 -23   -2.18    5.84
   8  -3 -23    3.96    5.77
  -8   3  23   -1.65    7.91
  -8   3  23    1.31    5.68
   8  -4 -23   -1.68    5.87
   8  -4 -23    4.48    6.25
  -8   4  23   -0.27    6.04
  -8   4  23   -0.19    8.11
   8  -5 -23   -8.21    6.52
   8  -5 -23   -2.48    5.84
  -8   5  23   -0.28    5.96
  -8   5  23  -11.26    8.40
   8  -6 -23   -1.55    6.41
   8  -6 -23   -0.34    6.26
  -8   6  23    0.21    8.49
  -8   6  23    1.19    6.50
   8  -7 -23   28.41    9.99
  -8   7  23   10.29   12.82
   8  -8 -23    1.84    6.70
   8  -8 -23    4.55    6.33
  -8   8  23    0.24    9.60
  -8   8  23    0.33    7.38
   8  -9 -23    4.53    7.28
   8  -9 -23   16.93    7.58
  -8   9  23    1.05    8.36
  -8   9  23   26.34   10.57
   7  -9 -23    1.35    5.86
   7  -9 -23   -0.30    6.77
  -7   9  23  -14.73    7.41
  -7   9  23   -0.51   10.06
   6  -9 -23   -6.09    7.62
   6  -9 -23   -9.68    5.80
  -6   9  23   17.26    7.85
  -6   9  23   -6.70   10.77
   5  -9 -23    0.31    7.12
   5  -9 -23   -5.90    5.67
  -5   9  23    2.71   11.02
  -5   9  23    7.93    7.24
   4  -9 -23   -0.96    6.89
   4  -9 -23   -2.28    4.98
  -4   9  23   -5.90   11.06
   3  -9 -23   -4.00    4.32
   3  -9 -23   -1.97    6.89
  -3   9  23    1.20   10.85
   2  -9 -23   -1.12    4.23
   2  -9 -23    0.34    6.99
   9   2 -23   24.79    5.50
   9   2 -23    9.39    5.44
  -9  -2  23   -1.83    4.77
  -2   9  23    2.22   11.05
  -9  -2  23   -5.71    7.10
   1  -9 -23    2.44    4.19
   9   1 -23   -7.36    5.86
   9   1 -23    8.67    5.65
  -9  -1  23   -4.57    7.03
  -9  -1  23    4.10    5.12
   9   0 -23   -3.88    6.08
   9   0 -23    0.23    5.68
  -9   0  23   -2.49    5.39
  -9   0  23  -14.14    7.49
   9  -1 -23    4.71    6.20
   9  -1 -23    3.29    5.73
  -9   1  23    8.32    5.48
  -9   1  23   -5.40    7.46
   9  -2 -23    9.38    6.22
   9  -2 -23    1.44    5.79
  -9   2  23   -3.22    5.61
  -9   2  23   -0.56    7.97
   9  -3 -23    5.39    5.94
   9  -3 -23  -26.60    7.57
  -9   3  23   -4.78    7.90
  -9   3  23   -0.28    6.18
   9  -4 -23    7.29    6.22
   9  -4 -23    6.05    6.57
  -9   4  23   -6.09    6.71
  -9   4  23    0.59    8.41
   9  -5 -23    3.88    6.68
   9  -5 -23   -3.11    6.20
  -9   5  23   -6.23    8.79
  -9   5  23    0.30    6.72
   9  -6 -23   -0.27    7.02
   9  -6 -23    0.40    7.13
  -9   6  23   -5.63    9.14
  -9   6  23   -9.79    7.25
   9  -7 -23    0.28    6.85
  -9   7  23    0.23    9.20
   9  -8 -23    9.14    7.13
   9  -8 -23    1.29    8.20
  -9   8  23    0.35    7.97
  -9   8  23    1.94    9.71
   9  -9 -23   -5.92    7.36
   9  -9 -23    9.47    8.51
  -9   9  23   -8.95   10.58
  -9   9  23   -0.37    8.51
   8 -10 -23    4.86    7.22
   8 -10 -23    0.32    7.49
  -8  10  23    7.11    7.79
  -8  10  23    2.71   10.82
   7 -10 -23    3.34    6.55
   7 -10 -23    3.56    7.60
  -7  10  23    0.36    8.14
  -7  10  23    2.17   11.43
   6 -10 -23  -15.88    7.65
   6 -10 -23    2.63    6.16
  -6  10  23    0.28   11.20
  -6  10  23    0.34    7.21
   5 -10 -23    1.01    7.56
   5 -10 -23   -0.59    5.64
  -5  10  23    0.58   11.07
  -5  10  23   -9.72    7.23
   4 -10 -23    4.59    5.10
   4 -10 -23   -7.49    7.48
  -4  10  23    8.83   11.75
   3 -10 -23    8.48    5.11
   3 -10 -23    0.69    7.52
  -3  10  23   -3.24   12.22
  10   2 -23    0.72    6.00
   2 -10 -23  -10.65    4.34
   2 -10 -23  -12.73    7.39
  10   2 -23    0.38    6.44
  -2  10  23   -0.67   11.92
 -10  -2  23    0.25    5.02
  10   1 -23    5.60    6.01
  10   1 -23    0.39    6.38
 -10  -1  23   -4.24    5.43
 -10  -1  23   16.29    8.15
  10   0 -23    2.22    6.00
  10   0 -23   -6.84    6.79
 -10   0  23   -7.45    8.20
 -10   0  23  -20.46    6.18
  10  -1 -23   17.49    6.29
  10  -1 -23    7.47    7.31
 -10   1  23   12.71    6.59
 -10   1  23    2.11    8.56
  10  -2 -23   -7.06    6.52
  10  -2 -23    0.25    5.84
 -10   2  23    6.66    6.36
 -10   2  23   -0.20    8.19
  10  -3 -23  -14.01    7.36
  10  -3 -23  -10.85    6.31
 -10   3  23   -0.61    8.51
 -10   3  23  -18.02    6.56
  10  -4 -23    1.74    7.69
  10  -4 -23    5.84    6.41
 -10   4  23    0.31    6.42
 -10   4  23   -0.21    8.65
  10  -5 -23    0.45    7.61
  10  -5 -23    9.01    7.00
 -10   5  23    6.91    9.44
 -10   5  23    8.75    7.14
  10  -6 -23    1.41    6.66
  10  -6 -23    4.13    8.06
 -10   6  23   -1.81    9.27
 -10   6  23    0.34    7.02
  10  -7 -23   13.85    7.48
 -10   7  23    9.22   10.23
  10  -8 -23   -0.31    7.14
  10  -8 -23    0.49    7.57
 -10   8  23   -3.34    7.90
 -10   8  23   -7.26   10.22
  10  -9 -23  -39.49   12.37
  10 -10 -23    0.54    8.73
  10 -10 -23    8.89    8.18
 -10  10  23   -7.04    8.93
 -10  10  23   -2.82   11.53
  10 -11 -23    0.36    8.62
  10 -11 -23   -0.57    9.95
 -10  11  23    1.20   12.65
 -10  11  23    0.44    9.50
   9 -11 -23    0.35    8.27
   9 -11 -23  -17.95    8.92
  -9  11  23    0.29   12.06
  -9  11  23    0.42    9.09
   7 -11 -23    0.39    6.95
   7 -11 -23  -11.37    8.14
  -7  11  23    2.06   12.08
  -7  11  23   -0.38    8.60
   6 -11 -23    1.76    7.98
   6 -11 -23    3.49    6.19
  -6  11  23   -3.00   11.87
  -6  11  23    0.37    8.12
   5 -11 -23    0.36    7.87
   5 -11 -23   -1.26    6.13
  -5  11  23   -9.33    7.91
  -5  11  23    5.34   12.48
   4 -11 -23    0.36    8.18
   4 -11 -23    0.30    5.29
  -4  11  23  -26.99   13.01
   3 -11 -23   -2.92    7.50
   3 -11 -23    0.27    5.11
  -3  11  23   -8.61   12.77
   2 -11 -23    1.11    7.60
  11   2 -23   21.05    6.42
   2 -11 -23   -3.59    4.99
  -2  11  23  -25.44   13.17
  11   1 -23   -3.07    7.01
  11   1 -23   18.76    6.63
 -11  -1  23    0.19    8.43
 -11  -1  23   -8.49    5.68
  11   0 -23   -1.56    6.62
  11   0 -23  -10.76    6.93
 -11   0  23   -3.13    8.23
 -11   0  23   -4.83    6.04
  11  -1 -23    2.77    7.16
  11  -1 -23   -7.63    6.44
 -11   1  23   -2.61    8.42
 -11   1  23   -4.05    6.30
  11  -2 -23    1.07    6.58
  11  -2 -23    0.47    7.53
 -11   2  23   -8.98    6.56
 -11   2  23    3.76    8.89
  11  -3 -23    0.27    6.08
  11  -3 -23    1.92    8.01
 -11   3  23    6.61    6.98
 -11   3  23   -2.36    8.80
  11  -4 -23   14.72    8.22
  11  -4 -23   -3.06    6.84
 -11   4  23    5.29    9.23
 -11   4  23   -0.34    7.18
  11  -5 -23   12.36    8.42
  11  -5 -23    6.64    6.60
 -11   5  23   -0.35    7.55
 -11   5  23   -1.59    9.11
  11  -6 -23   -0.51    8.79
  11  -6 -23   -8.05    7.10
 -11   6  23   -1.68    9.83
 -11   6  23    0.36    7.80
  11  -7 -23   -1.86    7.56
 -11   7  23  -15.22   10.65
 -11   8  23   79.34   18.31
  11  -9 -23   -9.04    9.87
  11  -9 -23    0.34    7.95
 -11   9  23   -4.69   11.39
 -11   9  23   -0.42    8.52
  11 -10 -23    0.60    9.65
  11 -10 -23    0.36    8.44
 -11  10  23  -11.16    9.57
 -11  10  23    7.63   12.41
  11 -11 -23    0.38    8.72
 -11  11  23   -0.62   12.80
  10 -12 -23   -1.15    8.89
 -10  12  23  -16.63   14.08
   9 -12 -23   -7.06    9.94
   9 -12 -23    0.37    8.59
  -9  12  23    4.44    9.96
  -9  12  23    3.14   13.19
   8 -12 -23   -0.47    8.72
   8 -12 -23  -13.44    8.51
  -8  12  23   -1.27    9.36
  -8  12  23   -5.61   13.00
  -7  12  23  -31.85   11.36
   6 -12 -23  -20.66    7.75
   5 -12 -23   20.06    6.88
   5 -12 -23    4.97    8.72
  -5  12  23   -1.01   13.08
  -5  12  23   -7.80    8.67
   4 -12 -23   11.49    8.80
   4 -12 -23   -1.89    6.10
  -4  12  23    1.11    8.57
  -4  12  23   -6.69   13.91
   3 -12 -23  -10.39    8.32
   3 -12 -23    1.73    5.59
  -3  12  23    2.92   13.72
   2 -12 -23   -5.48    6.20
  12   1 -23   18.34    9.05
 -12  -1  23   28.64   11.00
  12   0 -23    0.82    6.69
 -12   0  23    5.01    9.05
 -12   0  23    8.08    6.89
  12  -1 -23   31.02    8.55
 -12   1  23   12.81    8.70
 -12   1  23   22.05   10.84
  12  -2 -23   10.69    6.82
  12  -2 -23    3.13    7.72
 -12   2  23   -0.35    7.12
 -12   2  23    1.12    9.31
  12  -3 -23  -21.82    7.20
  12  -3 -23    1.07    8.11
 -12   3  23    4.72    6.75
 -12   3  23   -1.60    9.56
  12  -4 -23    0.29    6.94
  12  -4 -23    3.77    8.21
 -12   4  23   -6.35    9.75
 -12   4  23    1.49    7.55
  12  -5 -23   -3.31    8.36
  12  -5 -23    0.30    7.25
 -12   5  23   -8.47    8.00
 -12   5  23   -5.09   10.01
  12  -6 -23    0.57    8.56
  12  -6 -23   -4.40    8.11
  12  -7 -23  -23.70    9.59
  12  -7 -23  -15.14   10.68
 -12   7  23   -7.88    9.90
  12  -8 -23   10.30    8.57
  12  -8 -23    0.60    9.79
 -12   8  23    5.04   11.86
 -12   8  23    0.43    8.91
  12  -9 -23   -0.36    9.47
  12  -9 -23    0.63    9.96
 -12   9  23    3.65    9.42
 -12   9  23    0.29   12.04
   9 -13 -23   10.35    9.65
   9 -13 -23    0.79    9.31
  -9  13  23   -2.00   13.49
  -9  13  23    0.47    8.61
   8 -13 -23   20.02    9.53
   8 -13 -23    8.31    9.35
  -8  13  23  -18.87   14.40
  -8  13  23    0.45    9.98
   7 -13 -23   -9.12    8.55
   7 -13 -23   -4.32    8.51
  -7  13  23    9.20   13.87
  -7  13  23   10.02    9.73
   6 -13 -23    4.07    6.93
   6 -13 -23    6.87    9.23
  -6  13  23  -19.14   14.40
  -6  13  23    5.49    9.92
   5 -13 -23   -0.37    7.48
   5 -13 -23  -17.76    9.56
  -5  13  23   -2.84    9.74
  -5  13  23  -50.59   15.61
   4 -13 -23    1.04    9.03
   4 -13 -23   17.39   11.76
  -4  13  23    8.97   12.18
   3 -13 -23   -0.32    6.42
   3 -13 -23    0.40    8.90
  -3  13  23   -5.45   14.65
   2 -13 -23    2.97    5.97
  13  -1 -23    0.29    6.95
 -13   1  23   -3.69    9.52
  13  -2 -23    2.10    6.96
 -13   2  23   -8.13    9.98
  13  -3 -23  -15.00    7.54
 -13   3  23  -14.97   11.11
  13  -5 -23  -20.98    8.10
 -13   5  23   -5.71   11.46
 -13   5  23   -2.13    8.94
  13  -6 -23   -4.35    8.02
 -13   6  23   -0.44    8.70
 -13   6  23  -13.93   11.56
  13  -7 -23    0.35    8.53
 -13   7  23   -0.46    9.20
 -13   7  23   22.65   12.41
  13  -8 -23    7.65    8.71
 -13   8  23    5.97   13.03
   8 -14 -23    0.84    9.88
   8 -14 -23   -3.35   10.10
  -8  14  23    0.48    8.26
  -8  14  23    2.86   14.47
   7 -14 -23    0.48    8.87
   7 -14 -23    4.22    9.57
  -7  14  23    7.91   10.37
  -7  14  23    3.68   15.22
   6 -14 -23    0.43    9.30
   6 -14 -23    7.64    8.02
  -6  14  23   19.37   15.29
  -6  14  23    3.58    9.97
   5 -14 -23   -0.42    9.20
   5 -14 -23    0.40    7.49
  -5  14  23    0.44    9.85
  -5  14  23   -6.09   15.02
   4 -14 -23    5.18    7.33
   4 -14 -23    0.42    8.75
  -4  14  23   10.36    9.57
  -4  14  23   23.87   15.21
   3 -14 -23    0.35    6.30
   3 -14 -23    4.22    8.83
  -3  14  23    0.41    9.30
  -3  14  23    3.27   14.50
   2 -14 -23   -0.64    6.08
   7 -15 -23  -12.63    9.91
  -7  15  23  -13.53   16.42
   6 -15 -23  -28.10   10.29
   6 -15 -23    3.32    8.63
  -6  15  23   -9.98   10.90
  -6  15  23   -5.56   15.74
   5 -15 -23    0.88    8.05
   5 -15 -23    7.97    9.38
  -5  15  23  -21.96   10.49
  -5  15  23   -9.31   15.50
   4 -15 -23  -10.03    9.28
   4 -15 -23   -0.40    7.60
  -4  15  23   -0.42   15.54
  -4  15  23    1.31   10.12
  -3  15  23    9.96    9.90
  -3  15  23  -17.35   16.15
   2   1 -24    0.36    3.35
   2   0 -24    6.61    3.47
  -2   0  24   -0.97    8.29
   1   2 -24   -0.57    3.61
   2   2 -24    0.18    3.47
   3   2 -24    1.30    5.67
   2  -3 -24    1.33    3.52
   2  -3 -24   31.42    6.00
   3   2 -24    0.71    3.61
  -3  -2  24   -2.41    8.01
  -2   3  24   36.68    8.53
   3   1 -24    1.55    5.46
   3   1 -24    3.99    3.59
  -3  -1  24    3.77    8.21
   3   0 -24    7.77    5.47
  -3   0  24   -7.34    7.82
   1   3 -24    2.96    3.50
   3  -2 -24    0.57    3.51
   2   3 -24   -0.17    3.46
   3  -3 -24   17.62    6.43
   3  -3 -24    4.66    3.88
   3   3 -24    5.41    3.57
  -3   3  24    3.07    8.73
   3  -4 -24    4.55    4.63
   4   3 -24   37.13    7.13
   3  -4 -24   22.86    7.22
  -3   4  24    3.91    9.26
   4   2 -24   -9.59    5.72
   2  -4 -24    0.29    5.76
   4   2 -24   -2.04    3.62
   2  -4 -24   -4.83    3.50
  -4  -2  24   -5.75    8.33
  -2   4  24  -14.47    9.12
   4   1 -24    6.81    3.46
   4   1 -24    3.15    5.47
  -4  -1  24   -8.14    7.97
   4   0 -24   -0.24    5.33
   4  -2 -24   20.52    6.83
  -4   2  24   36.90    8.91
   4  -3 -24    4.30    4.60
   4  -3 -24   24.71    6.92
  -4   3  24   15.06    9.15
   4  -4 -24   -0.81    6.10
   4  -4 -24   -4.40    4.30
  -4   4  24    2.73    8.73
   4  -5 -24    1.95    6.18
   4  -5 -24    0.22    4.03
  -4   5  24    7.84    9.15
   3  -5 -24    2.89    6.26
   3  -5 -24    2.43    3.89
  -3   5  24   -1.28    9.05
   5   2 -24    0.20    3.98
   5   2 -24    0.68    5.48
   2  -5 -24   -2.79    3.49
   2  -5 -24    0.60    6.24
  -5  -2  24    2.78    4.48
  -5  -2  24   -6.17    7.68
  -2   5  24   -0.82    9.42
   5   1 -24   18.48    6.34
  -5  -1  24    9.20    8.24
   5  -1 -24   -1.51    4.37
   5  -2 -24   -3.38    5.91
   5  -2 -24    3.73    4.28
  -5   2  24    1.19    8.09
   5  -3 -24   -4.72    5.82
   5  -3 -24   -1.79    4.42
  -5   3  24    8.00    8.09
   5  -4 -24    4.88    6.08
   5  -4 -24   -6.19    4.58
  -5   4  24   -0.21    8.28
   5  -5 -24   -0.27    6.23
   5  -5 -24    0.24    4.47
  -5   5  24    6.05    8.62
   5  -6 -24   -0.84    6.09
   5  -6 -24   -6.58    4.66
  -5   6  24   -0.24    9.10
   4  -6 -24   -5.24    6.54
   4  -6 -24    5.78    4.11
  -4   6  24    3.00    9.54
   3  -6 -24    0.30    6.43
  -3   6  24    1.07    9.67
   6   2 -24    2.15    5.25
   2  -6 -24    0.31    6.43
  -6  -2  24   -4.11    7.21
  -2   6  24    4.57    9.71
   6   0 -24   -3.57    4.27
  -6   0  24    3.80    4.63
   6  -1 -24    5.93    5.43
   6  -1 -24   -4.40    4.77
  -6   1  24    2.59    7.81
  -6   1  24    9.50    5.20
   6  -2 -24    0.24    4.60
   6  -2 -24    9.36    5.60
  -6   2  24   -5.32    5.08
  -6   2  24   -1.73    7.93
   6  -3 -24    5.54    5.66
   6  -3 -24    4.22    4.97
  -6   3  24   -1.95    8.30
  -6   3  24   -0.24    5.46
   6  -4 -24   -3.31    5.14
   6  -4 -24    3.00    5.79
  -6   4  24    0.25    5.78
  -6   4  24  -13.08    8.96
   6  -5 -24   -0.26    6.05
   6  -5 -24   -1.05    5.45
  -6   5  24   -6.31    6.03
  -6   5  24    0.43    8.78
   6  -6 -24    9.50    6.57
   6  -6 -24    5.56    5.39
  -6   6  24    0.23    9.43
  -6   6  24    4.71    6.85
   6  -7 -24    1.44    6.86
  -6   7  24    0.24    9.71
   5  -7 -24    0.88    6.68
  -5   7  24    1.27    9.87
   4  -7 -24   -0.31    6.68
   4  -7 -24   -0.23    4.22
  -4   7  24    0.26   10.01
   3  -7 -24    0.31    6.64
   3  -7 -24    2.44    4.33
  -3   7  24    1.41   10.02
   2  -7 -24    0.32    6.85
   2  -7 -24    5.58    4.08
  -2   7  24    0.30   10.42
   7   1 -24   -0.80    4.94
  -7  -1  24    0.22    4.89
   7   0 -24   -0.27    5.06
   7   0 -24  -12.77    5.45
  -7   0  24    4.39    7.47
  -7   0  24   -1.14    5.25
   7  -1 -24  -15.57    5.60
   7  -1 -24   -0.27    4.95
  -7   1  24    0.24    5.10
  -7   1  24    1.09    7.70
   7  -2 -24    7.87    5.41
   7  -2 -24   -5.04    5.70
  -7   2  24   12.37    5.67
  -7   2  24   -0.38    8.24
   7  -3 -24    3.33    5.38
   7  -3 -24    0.57    5.16
  -7   3  24    2.37    5.51
  -7   3  24   -6.64    8.37
   7  -4 -24    0.74    5.67
   7  -4 -24    1.14    5.31
  -7   4  24   -3.03    6.01
  -7   4  24   -3.25    8.59
   7  -5 -24   -0.78    6.26
   7  -5 -24  -12.61    5.23
  -7   5  24    0.29    6.37
  -7   5  24   -1.91    8.81
   7  -6 -24   -0.27    6.26
   7  -6 -24   12.16    6.00
  -7   6  24    0.30    6.51
  -7   6  24    3.57    8.92
   7  -7 -24   16.62    8.91
  -7   7  24   30.36   12.71
   7  -8 -24    0.34    6.05
   7  -8 -24   -2.13    6.93
  -7   8  24    0.25   10.42
  -7   8  24   -4.69    7.70
   6  -8 -24   -2.71    5.76
   6  -8 -24   -0.31    7.21
  -6   8  24    0.31    7.04
  -6   8  24    0.26   10.41
   5  -8 -24  -16.86    5.35
   5  -8 -24    0.32    7.32
  -5   8  24    0.30    6.91
  -5   8  24    0.27   10.41
   4  -8 -24   -2.91    7.11
   4  -8 -24    0.25    4.36
  -4   8  24    1.42   10.52
   3  -8 -24    3.01    4.66
   3  -8 -24    0.33    7.14
  -3   8  24   -1.49   10.94
   2  -8 -24    4.68    4.89
   8   2 -24    2.45    6.09
   2  -8 -24  -11.55    7.38
  -8  -2  24    1.32    5.48
  -2   8  24    2.22   11.35
   8   1 -24    0.90    5.51
   8   1 -24   -2.45    5.48
  -8  -1  24    5.73    7.51
  -8  -1  24   -8.55    4.99
   8   0 -24    9.01    5.75
   8   0 -24    1.59    5.91
  -8   0  24    7.83    7.65
  -8   0  24    4.62    5.44
   8  -1 -24    3.12    5.70
   8  -1 -24   11.09    5.84
  -8   1  24   -5.80    5.69
  -8   1  24   10.30    7.83
   8  -2 -24  -11.80    6.07
   8  -2 -24   12.17    6.77
  -8   2  24    0.26    6.04
  -8   2  24    0.19    8.54
   8  -3 -24    3.95    5.72
   8  -3 -24   13.76    6.28
  -8   3  24   -0.27    6.17
  -8   3  24   -3.15    8.37
   8  -4 -24    0.76    5.70
   8  -4 -24   -0.34    6.22
  -8   4  24   -6.19    8.87
  -8   4  24    3.14    5.96
   8  -5 -24  -18.39    6.52
   8  -5 -24    0.67    5.91
  -8   5  24   -7.09    9.28
  -8   5  24   -0.30    6.98
   8  -6 -24   -5.84    7.08
   8  -6 -24    0.27    6.96
  -8   6  24   -0.31    7.30
  -8   6  24    6.75    9.63
   8  -7 -24    0.29    6.85
  -8   7  24    0.95    9.39
   8  -8 -24   -0.38    7.33
   8  -8 -24    1.51    6.68
  -8   8  24   -0.35    7.74
  -8   8  24    0.25   10.30
   8  -9 -24    5.17    7.47
   8  -9 -24   -8.44    7.39
  -8   9  24    0.37    8.34
  -8   9  24   -6.99   11.04
   7  -9 -24   -0.32    7.54
   7  -9 -24    3.89    6.48
  -7   9  24    1.41    7.53
  -7   9  24    4.84   11.10
   6  -9 -24    0.32    6.03
   6  -9 -24   -0.32    7.37
  -6   9  24    5.87   10.86
  -6   9  24    0.33    7.77
   5  -9 -24    0.29    5.65
   5  -9 -24    0.34    7.13
  -5   9  24    0.32    6.86
  -5   9  24   -3.17   10.97
   4  -9 -24    2.40    8.49
   4  -9 -24    5.45    6.14
  -4   9  24    4.85   12.91
   3  -9 -24    4.71    4.93
   3  -9 -24    2.08    7.52
  -3   9  24    3.23   11.64
   9   2 -24  -12.72    6.02
   2  -9 -24    0.36    6.82
   9   2 -24    4.18    6.13
   2  -9 -24    4.02    4.57
  -2   9  24   -2.36   11.63
   9   1 -24    3.13    5.77
   9   1 -24    9.22    6.28
  -9  -1  24    2.52    7.70
  -9  -1  24    0.25    4.96
   9   0 -24   -6.62    6.60
   9   0 -24    3.41    6.19
  -9   0  24   -4.67    5.36
  -9   0  24   -6.69    8.08
   9  -1 -24    0.37    6.36
   9  -1 -24   -4.21    6.04
  -9   1  24   -9.96    8.23
  -9   1  24  -14.78    6.08
   9  -2 -24    5.80    6.08
   9  -2 -24   -4.53    6.68
  -9   2  24    0.56    5.98
  -9   2  24   -4.73    8.07
   9  -3 -24   -2.58    6.26
   9  -3 -24   27.05    7.16
  -9   3  24   -9.17    8.88
  -9   3  24    3.21    6.32
   9  -4 -24   23.80    9.86
   9  -4 -24   49.43    9.43
  -9   4  24   22.79    9.25
  -9   4  24   34.14   11.39
   9  -5 -24   -0.27    6.62
   9  -5 -24    4.27    7.45
  -9   5  24    0.44    9.04
  -9   5  24    0.31    6.73
   9  -6 -24    7.09    6.75
   9  -6 -24    2.80    6.89
  -9   6  24    0.33    6.81
  -9   6  24   -1.15    9.38
   9  -7 -24   -8.02    7.07
  -9   7  24   -6.54    9.99
   9  -8 -24    2.17    7.59
   9  -8 -24   -4.05    7.97
  -9   8  24    2.56    8.19
  -9   8  24    1.28   10.63
   9  -9 -24    0.33    8.15
   9  -9 -24   -8.47    8.80
  -9   9  24  -19.88   11.81
  -9   9  24    0.39    8.58
   9 -10 -24   -2.96    9.38
   9 -10 -24    0.35    7.90
  -9  10  24    5.74    9.03
  -9  10  24  -16.76   11.78
  -8  10  24  -25.74   10.07
   7 -10 -24  -13.07    6.88
   7 -10 -24    0.34    7.50
  -7  10  24    4.50    8.53
  -7  10  24    3.80   11.70
   6 -10 -24    0.34    6.10
   6 -10 -24    5.96    8.22
  -6  10  24   -1.79   11.69
  -6  10  24    2.52    8.19
   5 -10 -24    4.98    6.03
   5 -10 -24    3.23    8.01
  -5  10  24   -4.06   12.21
  -5  10  24    0.68    7.47
   4 -10 -24    2.18    8.22
   4 -10 -24   21.50    6.01
  -4  10  24    1.62   12.15
   3 -10 -24    0.37    8.00
   3 -10 -24    0.79    5.27
  -3  10  24   -2.40   12.02
   2 -10 -24   -2.74    5.07
  10   2 -24    7.02    6.43
  -2  10  24    0.71   12.25
  10   1 -24   -5.64    6.96
  10   1 -24    0.26    6.57
 -10  -1  24   -9.72    8.54
 -10  -1  24    1.62    6.27
  10   0 -24    7.80    6.80
  10   0 -24   -1.26    7.26
 -10   0  24    5.35    6.05
 -10   0  24    2.16    8.33
  10  -1 -24  -11.60    6.65
  10  -1 -24   -5.48    7.13
 -10   1  24   -9.69    8.70
 -10   1  24   -7.53    6.22
  10  -2 -24   -4.28    6.60
  10  -2 -24    0.43    7.44
 -10   2  24    6.34    6.29
 -10   2  24   -1.66    8.62
  10  -3 -24    1.36    6.36
  10  -3 -24    4.43    7.64
 -10   3  24    0.31    6.43
 -10   3  24   -1.50    9.05
  10  -4 -24  -17.61    8.53
  10  -4 -24    5.02    6.86
 -10   4  24   -2.87    9.39
 -10   4  24   -0.32    6.46
  10  -5 -24    0.29    6.71
  10  -5 -24   13.99    8.25
 -10   5  24    4.34    9.62
 -10   5  24   -0.33    7.18
  10  -6 -24    2.32    7.77
  10  -6 -24    1.19    7.06
 -10   6  24    0.24    9.93
 -10   6  24   -0.35    7.36
  10  -7 -24    0.31    7.20
 -10   7  24    6.27   10.32
 -10   7  24    0.73    7.99
  10  -8 -24    3.99    9.68
  10  -8 -24   -8.10    8.60
  10  -9 -24   -7.13    8.53
  10  -9 -24    2.60    8.88
 -10   9  24   -8.70   11.40
 -10   9  24    0.41    9.36
  10 -10 -24    6.11    8.54
  10 -10 -24    0.56   10.13
 -10  10  24   -0.43    9.26
 -10  10  24   -4.45   12.59
  10 -11 -24    3.04    8.64
 -10  11  24   22.86   13.28
 -10  11  24    1.38    8.21
   9 -11 -24   -0.37    8.47
   9 -11 -24   -5.21    9.59
  -9  11  24    3.43   12.86
  -9  11  24    0.43    9.34
   8 -11 -24    0.37    8.62
   8 -11 -24  -10.78    8.42
  -8  11  24  -15.47   13.00
  -8  11  24    0.42    9.56
   7 -11 -24  144.03   30.17
   6 -11 -24   -7.84    8.60
   6 -11 -24   12.43    7.14
  -6  11  24   -5.86   12.70
  -6  11  24    1.93    8.86
   5 -11 -24    0.38    8.06
   5 -11 -24    0.33    6.33
  -5  11  24    1.09    8.40
  -5  11  24    0.67   13.05
   4 -11 -24    6.93    8.54
   4 -11 -24    0.60    5.52
  -4  11  24   -1.05   12.99
   3 -11 -24    0.28    5.50
   3 -11 -24   14.75    8.23
  -3  11  24    1.46   13.27
   2 -11 -24    2.16    5.14
  -2  11  24    2.65   13.71
  11   1 -24    4.02    6.87
  11   1 -24  -16.07    6.77
 -11  -1  24   -0.30    5.85
 -11  -1  24   -9.25    8.75
  11   0 -24    3.72    7.16
  11   0 -24    3.31    6.80
 -11   0  24   -1.55    6.17
 -11   0  24   -4.14    8.74
  11  -1 -24   12.35    7.80
  11  -1 -24   -1.40    6.96
 -11   1  24    5.13    6.86
 -11   1  24   15.09    8.89
  11  -2 -24    3.68    6.76
  11  -2 -24   11.22    7.39
 -11   2  24    0.33    6.62
 -11   2  24    1.96    9.38
  11  -3 -24    1.73    6.92
  11  -3 -24   -0.49    7.89
 -11   3  24  -12.63    7.28
 -11   3  24   -0.23    9.27
  11  -4 -24    0.59    7.09
  11  -4 -24   -9.55    7.93
 -11   4  24   -7.73    7.52
 -11   4  24    3.51    9.64
  11  -5 -24   -7.21    8.68
  11  -5 -24   -8.79    7.38
 -11   5  24    2.42    9.55
 -11   5  24    0.36    7.32
  11  -6 -24    6.57    7.78
  11  -6 -24    2.12    9.44
 -11   6  24   20.30   10.62
 -11   6  24   -3.40    7.73
  11  -7 -24   49.74   23.39
  11  -7 -24   72.62   25.59
 -11   7  24   68.74   24.67
  11  -8 -24    0.34    8.37
  11  -8 -24    0.57    8.80
 -11   8  24   -2.20   11.79
  11  -9 -24    0.59    9.72
  11  -9 -24   -1.78    8.76
 -11   9  24    0.88   11.99
 -11   9  24   -0.44    9.48
  11 -10 -24  -26.70    9.25
 -11  10  24    4.31   12.89
   9 -12 -24   -0.57    9.56
   9 -12 -24    0.39    9.37
  -9  12  24   36.11   14.52
   8 -12 -24    0.39    9.57
   8 -12 -24    0.50    9.05
  -8  12  24    8.02    9.79
  -8  12  24   -1.68   13.50
   7 -12 -24    4.33    9.22
   7 -12 -24    3.92    7.81
  -7  12  24   -4.27    9.60
  -7  12  24    2.04   13.91
   6 -12 -24   -6.90    9.19
   6 -12 -24    0.40    7.81
  -6  12  24  -22.23   14.45
  -6  12  24   -0.42    9.18
   5 -12 -24   18.29   13.13
   5 -12 -24    2.54    9.78
  -5  12  24   16.82   11.90
   4 -12 -24   -4.90    8.70
   4 -12 -24    2.98    6.26
  -4  12  24    0.78    8.44
  -4  12  24   -0.37   13.98
   3 -12 -24    5.15    5.61
   3 -12 -24   -8.19    8.73
  -3  12  24   -8.97   13.94
   2 -12 -24   -2.30    5.40
  -2  12  24  -12.78   14.81
  12   1 -24    4.28    6.99
  12   0 -24    6.65    8.01
 -12   0  24   15.12    7.44
 -12   0  24   27.80   10.57
  12  -1 -24    1.46    7.03
 -12   1  24   -6.56    9.87
 -12   1  24    1.41    6.88
  12  -2 -24   10.84    8.65
  12  -2 -24   -0.30    7.03
 -12   2  24    0.73    7.35
 -12   2  24    0.46    9.62
  12  -3 -24    0.55    8.51
  12  -3 -24    2.73    7.13
 -12   3  24    0.37    7.49
 -12   3  24  -17.39   10.10
  12  -4 -24   11.16    7.46
  12  -4 -24  -12.31    8.79
 -12   4  24   -0.38    7.69
 -12   4  24    7.70   10.45
  12  -5 -24   21.20   12.36
  12  -5 -24   21.83   11.43
 -12   5  24   41.83   13.25
  12  -6 -24  -10.28    8.34
  12  -6 -24    0.59    9.34
 -12   6  24   -9.69   11.33
 -12   6  24    0.41    8.57
  12  -7 -24   -0.61   10.03
  12  -7 -24   -0.34    8.15
 -12   7  24    6.99   11.84
 -12   7  24    0.43    9.34
  12  -8 -24   -4.67    8.98
 -12   8  24    7.59   12.59
   8 -13 -24    2.12    9.51
   8 -13 -24    0.53    9.24
  -8  13  24    6.07   15.02
  -8  13  24    1.90   10.63
   7 -13 -24    0.43    9.24
   7 -13 -24   -2.87    8.82
  -7  13  24  -10.57   10.47
  -7  13  24  -17.36   15.54
   6 -13 -24    0.43    8.04
   6 -13 -24  -14.21    9.55
  -6  13  24   11.24   15.09
  -6  13  24    6.26   10.30
   5 -13 -24    1.29    9.97
   5 -13 -24    0.39    6.76
  -5  13  24   10.48    9.03
  -5  13  24   -3.45   15.45
   4 -13 -24   -3.00    9.39
   4 -13 -24   -0.73    7.00
  -4  13  24    0.40   15.19
  -4  13  24   -1.24    9.46
   3 -13 -24  -14.35    6.90
   3 -13 -24  -17.24    9.83
  -3  13  24   -9.87   16.04
   2 -13 -24    1.25    6.34
  13   1 -24    0.30   12.34
 -13  -1  24   85.15   15.06
  13   0 -24   29.34   13.92
 -13   0  24   71.14   16.85
  13  -1 -24   35.06   11.99
 -13   1  24   44.87   15.24
  13  -2 -24  -13.16    7.74
 -13   2  24   -1.51   11.43
  13  -3 -24  -17.60    8.47
 -13   3  24  -18.37   12.06
  13  -4 -24    0.33    7.90
 -13   4  24    6.38   11.19
 -13   4  24   -1.28    8.56
  13  -5 -24    8.14    8.03
 -13   5  24  -15.41    8.82
 -13   5  24   -3.29   11.74
  13  -6 -24    0.35    8.32
 -13   6  24   -2.73    9.26
 -13   6  24   16.39   12.55
  13  -7 -24   -2.20    8.61
 -13   7  24   -4.48   12.66
   7 -14 -24   16.51   10.22
  -7  14  24  -52.73   17.22
   6 -14 -24  -12.25    8.62
   6 -14 -24    2.28   10.04
  -6  14  24    1.89   10.79
  -6  14  24   -5.54   15.49
   5 -14 -24    0.45    9.62
   5 -14 -24    0.42    7.95
  -5  14  24   -0.46   10.29
  -5  14  24    8.64   15.94
   4 -14 -24  -28.73    9.76
   4 -14 -24   -6.20    7.42
  -4  14  24    3.80   16.15
  -4  14  24    0.44    9.89
   3 -14 -24    0.37    6.69
  -3  14  24   16.00   15.49
   2 -14 -24    0.34    5.94
   6 -15 -24  -20.04   10.51
  -6  15  24    8.44   17.21
   5 -15 -24    0.46    8.51
   5 -15 -24  -13.64   10.22
  -5  15  24  -11.39   11.11
  -5  15  24   62.50   17.41
   4 -15 -24   -8.37    9.82
   4 -15 -24    0.42    7.98
  -4  15  24   -0.46   10.30
  -4  15  24  -19.05   17.17
   3 -15 -24    1.56    7.34
  -3  15  24   -1.79   16.18
  -3  15  24    6.90   10.45
   2 -15 -24    2.23    6.91
   2  -1 -25    2.39    3.66
   2   2 -25   12.13    4.75
   2  -2 -25    8.04    4.31
  -2   2  25   -0.27    9.54
   3   2 -25    6.06    3.51
   2  -3 -25   -2.64    3.99
  -2   3  25    2.18    9.69
  -3  -2  25   -6.13    8.84
   3   1 -25   12.00    6.70
  -3  -1  25   16.14    9.76
   3  -1 -25    2.42    3.98
   3  -1 -25   -0.28    4.42
   3  -2 -25    0.85    6.11
   3  -2 -25   -1.02    3.59
   2   3 -25   -0.37    3.91
  -3   2  25   -2.49    9.05
   3  -3 -25    4.35    4.08
   3   3 -25   -1.30    3.49
   3  -3 -25   -9.57    6.18
  -3   3  25   -3.59    9.08
   3  -4 -25    2.38    6.60
   3  -4 -25    0.42    3.94
  -3   4  25   -5.58    9.30
   4   2 -25    1.81    5.72
   2  -4 -25    0.62    3.88
   2  -4 -25    0.31    6.10
  -4  -2  25    0.43    8.22
  -2   4  25   -1.41    9.27
   4   0 -25    3.74    4.03
   4  -1 -25    4.30    6.10
   4  -1 -25    0.63    4.50
  -4   1  25    8.06    8.62
   4  -2 -25    7.40    6.08
   4  -2 -25   -2.79    4.11
  -4   2  25    2.30    8.61
   4  -3 -25   -3.27    4.33
   4  -3 -25    2.79    6.11
  -4   3  25    0.24    9.13
   4  -4 -25   -1.44    6.45
   4  -4 -25    1.78    4.38
  -4   4  25    0.74    9.39
   4  -5 -25   -2.09    6.25
   4  -5 -25    7.08    4.16
  -4   5  25  -15.22    9.53
   3  -5 -25    3.69    6.33
   3  -5 -25    3.02    4.05
  -3   5  25   -3.87    9.65
   2  -5 -25    1.27    3.60
   2  -5 -25   -0.32    6.41
  -2   5  25    2.92    9.67
   5   1 -25   -0.22    4.38
   5   0 -25   52.70   11.60
  -5   0  25   69.82   13.16
   5  -1 -25   -1.14    4.24
   5  -1 -25  -10.10    5.97
  -5   1  25   -6.08    8.68
   5  -2 -25    0.47    4.54
   5  -2 -25    0.80    5.64
  -5   2  25   -4.98    8.63
   5  -3 -25   -1.19    4.64
   5  -3 -25    0.27    6.01
  -5   3  25    2.69    8.75
   5  -4 -25   -0.28    6.01
   5  -4 -25   -3.40    4.16
  -5   4  25   -0.23    9.04
   5  -5 -25    4.38    6.44
   5  -5 -25    2.49    4.62
  -5   5  25    1.71    9.46
   5  -6 -25    9.78    6.93
   5  -6 -25    4.89    5.12
  -5   6  25    3.08   10.27
   4  -6 -25    5.65    4.69
   4  -6 -25    2.18    7.07
  -4   6  25    7.32   10.29
   3  -6 -25   -0.32    6.85
   3  -6 -25    0.22    4.11
  -3   6  25    1.45   10.23
   2  -6 -25    8.95    7.04
  -2   6  25   -3.05   10.69
   6   0 -25    1.01    4.77
   6   0 -25    3.88    5.86
  -6   0  25    1.79    5.03
  -6   0  25    6.87    7.73
   6  -1 -25   -1.99    6.26
   6  -1 -25   -3.89    5.80
  -6   1  25    0.23    5.61
  -6   1  25    6.95    8.54
   6  -2 -25   27.73    6.53
   6  -2 -25   19.31    5.57
  -6   2  25   -0.73    5.76
  -6   2  25    0.21    8.71
   6  -3 -25    0.26    5.16
   6  -3 -25   -3.14    5.97
  -6   3  25   -1.92    8.51
  -6   3  25  -13.27    5.38
   6  -4 -25   18.55    5.58
   6  -4 -25   12.17    6.71
  -6   4  25    0.27    6.46
  -6   4  25    4.66    9.36
   6  -5 -25    0.28    6.43
   6  -5 -25    0.83    5.47
  -6   5  25    3.90    6.41
  -6   5  25    7.67    9.46
   6  -6 -25    3.70    5.84
   6  -6 -25   -0.29    6.43
  -6   6  25   -6.42    6.67
  -6   6  25    0.25    9.93
   6  -7 -25   -0.31    7.42
  -6   7  25   -5.00   10.83
   5  -7 -25   -0.32    7.18
  -5   7  25    0.27   10.38
   4  -7 -25    1.97    7.10
  -4   7  25    3.15   10.71
   3  -7 -25    0.33    7.29
   3  -7 -25    6.57    4.61
  -3   7  25    0.30   10.87
   7   2 -25    0.27    5.92
   2  -7 -25    0.45    4.62
   2  -7 -25   -2.07    7.47
  -7  -2  25    1.50    5.66
  -2   7  25   -0.32   11.24
   7   1 -25   -8.17    5.44
   7   1 -25    9.78    5.70
  -7  -1  25    0.23    5.02
  -7  -1  25   -4.60    7.75
   7   0 -25   19.75    6.21
   7   0 -25    1.69    5.45
  -7   0  25    2.86    8.05
  -7   0  25    9.43    5.86
   7  -1 -25   -0.24    5.61
   7  -1 -25  -10.41    5.60
  -7   1  25   -4.59    5.28
  -7   1  25   -9.46    8.11
   7  -2 -25    7.48    6.46
   7  -2 -25    6.22    6.39
  -7   2  25    7.14    9.15
  -7   2  25   -0.27    6.53
   7  -3 -25   14.59    6.44
   7  -3 -25   12.63    5.74
  -7   3  25    1.69    8.57
  -7   3  25    0.27    6.48
   7  -4 -25    0.30    5.74
   7  -4 -25   -8.98    5.91
  -7   4  25   -2.86    8.81
  -7   4  25   -2.57    6.42
   7  -5 -25   -7.10    5.94
   7  -5 -25   -2.19    6.53
  -7   5  25    0.30    6.68
  -7   5  25    0.23    9.74
   7  -6 -25    0.32    6.42
  -7   6  25   -1.20   10.04
  -7   6  25    0.31    6.99
   7  -7 -25   -0.31    6.79
  -7   7  25   -0.51   10.33
   7  -8 -25  -10.61    6.51
   7  -8 -25    0.32    7.57
  -7   8  25    0.35    7.21
  -7   8  25    0.82   11.10
   6  -8 -25   -2.98    7.64
   6  -8 -25    1.27    6.43
  -6   8  25   -1.12   10.62
  -6   8  25    2.61    7.26
   5  -8 -25    5.72    5.34
   5  -8 -25    1.36    7.39
  -5   8  25  -23.35   11.54
  -5   8  25    8.38    7.48
   4  -8 -25    5.87    7.68
   4  -8 -25    0.26    4.78
  -4   8  25    2.73   11.78
   3  -8 -25    4.22    7.73
   3  -8 -25   14.94    5.38
  -3   8  25   -0.32   11.34
   8   2 -25    0.31    5.26
   8   2 -25    3.51    5.57
   2  -8 -25    0.24    4.39
  -2   8  25   -0.67   11.30
   8   1 -25   10.59    5.95
   8   1 -25    9.66    6.17
  -8  -1  25   17.75    8.29
  -8  -1  25   -6.76    5.85
   8   0 -25   -2.55    5.90
   8   0 -25    4.43    6.15
  -8   0  25   10.35    5.66
  -8   0  25  -22.15    7.85
   8  -1 -25    8.55    6.35
   8  -1 -25   10.51    6.34
  -8   1  25    3.98    6.11
  -8   1  25   17.16    8.55
   8  -2 -25    2.02    6.09
   8  -2 -25   -5.14    6.19
  -8   2  25    0.61    8.67
  -8   2  25  -13.01    6.00
   8  -3 -25    0.79    6.69
   8  -3 -25   17.67    6.62
  -8   3  25   -0.21    9.29
  -8   3  25   15.78    6.96
   8  -4 -25   16.50    7.73
   8  -4 -25   33.12    7.98
  -8   4  25    3.59    7.78
  -8   4  25   26.26   11.06
   8  -5 -25    1.68    6.63
   8  -5 -25    1.75    6.15
  -8   5  25   -0.31    6.68
  -8   5  25   -3.00    9.66
   8  -6 -25    0.29    6.74
   8  -6 -25    0.36    6.71
  -8   6  25   -0.48    9.75
  -8   6  25   -4.90    6.77
   8  -7 -25    0.31    6.97
  -8   7  25    0.25   10.49
   8  -8 -25    0.40    7.46
   8  -8 -25    0.32    7.48
  -8   8  25    0.36    8.03
  -8   8  25   -0.81   10.94
   8  -9 -25   -0.42    7.85
   8  -9 -25   -0.34    8.66
  -8   9  25  -19.65   11.70
  -8   9  25   -0.39    9.00
   7  -9 -25    0.35    7.83
   7  -9 -25   -0.37    6.68
  -7   9  25  -15.98   11.74
  -7   9  25    0.37    8.84
   6  -9 -25   -2.33    6.44
   6  -9 -25    7.37    8.07
  -6   9  25  -13.65   11.91
  -6   9  25   -2.77    7.60
   5  -9 -25   10.85    7.92
   5  -9 -25    0.30    5.88
  -5   9  25    5.12    7.95
  -5   9  25   10.57   12.16
   4  -9 -25    4.74    8.18
   4  -9 -25   16.68    5.80
  -4   9  25    5.57   12.33
   3  -9 -25   -9.66    4.50
   3  -9 -25    0.37    7.86
  -3   9  25    1.02   12.38
   2  -9 -25    1.25    4.61
  -2   9  25   -6.05   12.04
   9   1 -25   -7.77    8.44
   9   1 -25   34.89    8.45
  -9  -1  25   15.15    7.69
  -9  -1  25   45.84   10.71
   9   0 -25   40.23   10.13
   9   0 -25   20.55   10.50
  -9   0  25   58.93   12.16
  -9   0  25   14.47    9.36
   9  -1 -25    9.25    9.03
   9  -1 -25   17.85    8.76
  -9   1  25   39.68   10.60
  -9   1  25   33.17    8.83
   9  -2 -25    6.33    7.60
   9  -2 -25  -26.99    7.12
  -9   2  25    2.95    9.07
  -9   2  25  -10.28    6.30
   9  -3 -25    6.58    7.03
   9  -3 -25   -0.27    6.14
  -9   3  25   -0.30    6.48
  -9   3  25   -6.75    9.21
   9  -4 -25   20.99    7.24
   9  -4 -25    0.28    6.80
  -9   4  25    7.20    9.52
  -9   4  25    0.32    7.19
   9  -5 -25   12.99    7.54
   9  -5 -25    9.26    7.27
  -9   5  25    2.34    9.96
  -9   5  25   14.20    7.90
   9  -6 -25    0.42    7.48
   9  -6 -25    1.80    7.17
  -9   6  25    0.35    7.83
  -9   6  25  -15.53   10.24
   9  -7 -25    1.25    7.38
   9  -7 -25    1.73    7.94
  -9   7  25   -1.55   10.55
  -9   7  25    1.09    8.00
   9  -8 -25    4.50    8.15
   9  -8 -25   -0.33    7.85
  -9   8  25   -8.78    9.49
  -9   8  25  -25.58   11.61
   9  -9 -25  -13.85    9.34
   9  -9 -25  -15.02    8.97
  -9   9  25    0.41    9.10
   9 -10 -25  -14.97    9.21
   9 -10 -25    1.49    8.75
  -9  10  25    0.31   12.70
  -9  10  25   -0.43    9.24
   8 -10 -25   -5.91    8.87
   8 -10 -25  -23.88    8.22
  -8  10  25  -43.30   13.70
  -8  10  25   -0.41    9.03
   7 -10 -25  -26.56    9.01
   6 -10 -25    0.37    8.24
   6 -10 -25    0.36    7.05
  -6  10  25    1.13    9.24
  -6  10  25    6.47   12.49
   5 -10 -25   -0.33    5.92
   5 -10 -25   -0.38    8.58
  -5  10  25    0.36    8.21
  -5  10  25   -7.29   12.96
   4 -10 -25   -3.27    5.58
   4 -10 -25    0.39    8.39
  -4  10  25    3.14   13.30
   3 -10 -25    0.28    5.11
   3 -10 -25    7.82    8.67
  -3  10  25   -2.20   13.15
   2 -10 -25    0.26    4.88
  -2  10  25    4.90   12.95
  10   1 -25   -0.84    7.00
  10   1 -25    3.50    6.61
 -10  -1  25   16.95    6.03
 -10  -1  25    0.40    8.62
  10   0 -25    0.55    6.50
  10   0 -25   -3.83    6.85
 -10   0  25   -1.15    5.79
 -10   0  25    4.17    8.64
  10  -1 -25   -0.28    6.85
  10  -1 -25   -3.96    7.48
 -10   1  25   -0.21    9.15
 -10   1  25    3.62    6.12
  10  -2 -25    4.07    8.09
  10  -2 -25   -7.33    6.65
 -10   2  25   -9.70    9.44
 -10   2  25   -4.09    6.66
  10  -3 -25   10.62    6.60
  10  -3 -25   -5.84    7.91
 -10   3  25    0.32    6.80
 -10   3  25    4.09    9.59
  10  -4 -25    0.29    6.93
  10  -4 -25    0.46    7.46
 -10   4  25   -0.34    6.86
 -10   4  25   -6.56    9.26
  10  -5 -25   -9.43    8.15
  10  -5 -25   14.55    7.20
 -10   5  25    9.48    7.74
 -10   5  25    4.13   10.00
  10  -6 -25    7.52    7.48
  10  -6 -25    0.49    9.21
 -10   6  25    1.83    8.04
 -10   6  25   16.68   10.62
  10  -7 -25    0.50    9.85
  10  -7 -25   -0.33    9.02
 -10   7  25  -21.11    9.66
  10  -8 -25    0.34    8.62
 -10   8  25  -17.38   12.22
  10  -9 -25  -13.60    8.97
  10  -9 -25   13.56    9.86
 -10   9  25   -7.16   12.20
 -10   9  25    0.43    9.07
  10 -10 -25   -1.51    9.14
 -10  10  25   -6.63   13.24
 -10  10  25    0.45    8.30
   9 -11 -25    1.09    9.67
   9 -11 -25    0.39    8.68
  -9  11  25   27.40   13.80
   8 -11 -25   -0.39    9.28
   8 -11 -25    6.08    8.09
  -8  11  25    1.67   13.63
  -8  11  25    0.87    9.70
   7 -11 -25   -0.40    9.25
   7 -11 -25   -1.72    7.31
  -7  11  25    0.42    9.40
  -7  11  25   -9.45   13.44
   6 -11 -25   -8.42    7.93
  -6  11  25   -1.63   10.30
  -6  11  25   33.82   16.23
   5 -11 -25  -27.30    9.63
   5 -11 -25   -6.93    7.21
  -5  11  25    0.77    8.95
  -5  11  25   -1.08   13.95
   4 -11 -25    6.98    8.18
   4 -11 -25   -4.75    5.78
  -4  11  25   -4.46   13.28
   3 -11 -25   -2.37    5.64
   3 -11 -25    0.41    8.47
  -3  11  25    4.67   14.61
   2 -11 -25   -7.67    5.21
  -2  11  25   -0.40   13.88
  11   1 -25    0.29    6.99
  11   1 -25  -18.47    7.26
 -11  -1  25    1.49    8.98
 -11  -1  25    0.31    6.18
  11   0 -25    1.16    7.47
  11   0 -25   21.95    7.93
 -11   0  25    8.90    6.85
 -11   0  25   -0.44    9.50
  11  -1 -25   -1.18    7.34
  11  -1 -25    6.92    8.34
 -11   1  25   -4.95    6.58
 -11   1  25   -0.23    9.24
  11  -2 -25    0.50    7.71
  11  -2 -25    5.07    7.04
 -11   2  25    2.78    9.56
 -11   2  25   -3.75    6.95
  11  -3 -25    5.15    7.40
  11  -3 -25   -2.56    8.95
 -11   3  25    7.74    7.51
 -11   3  25    6.71    9.62
  11  -4 -25    1.57    8.66
  11  -4 -25    1.24    7.48
 -11   4  25   -0.36    7.77
 -11   4  25   10.61   10.56
  11  -5 -25   -0.32    7.51
  11  -5 -25    0.54    9.16
 -11   5  25   -0.38    8.60
 -11   5  25    0.26   11.69
  11  -6 -25  -10.19    8.40
  11  -6 -25    0.55    8.80
 -11   6  25  -15.63   12.23
 -11   6  25   -0.39    9.38
  11  -7 -25    0.57    8.34
  11  -7 -25    0.34    8.46
 -11   7  25    0.82    9.00
 -11   7  25    8.08   11.79
  11  -8 -25    0.71    8.69
 -11   8  25   -5.83   12.61
  11  -9 -25   -0.37    8.90
 -11   9  25   -6.52   13.11
   8 -12 -25   -0.42    9.97
   8 -12 -25    1.04    9.66
  -8  12  25    9.60   14.10
   7 -12 -25  -26.39    9.63
   7 -12 -25   -7.29    8.70
  -7  12  25   24.65   15.20
  -7  12  25    0.45   10.27
   6 -12 -25    0.41    7.75
   6 -12 -25   -0.43    9.41
  -6  12  25   -2.18    9.88
  -6  12  25  -33.64   15.12
   5 -12 -25    0.38    7.29
   5 -12 -25   14.32    9.81
  -5  12  25   -0.41    9.71
  -5  12  25    3.07   15.40
   4 -12 -25  -39.80   10.99
   4 -12 -25  -15.24    8.11
  -4  12  25  -31.94   10.70
   3 -12 -25    4.45   10.31
   3 -12 -25   19.21   14.40
  -3  12  25   42.45   20.72
   2 -12 -25    0.30    5.52
  12   1 -25    6.65    7.62
 -12  -1  25    0.34    6.35
  12   0 -25    8.58    7.59
 -12   0  25  -15.84   10.09
 -12   0  25   -5.96    7.08
  12  -1 -25    4.92    7.84
  12  -1 -25   -9.32    7.74
 -12   1  25  -17.95   10.07
 -12   1  25  -10.85    7.28
  12  -2 -25  -12.21    9.44
  12  -2 -25  -32.45    8.45
 -12   2  25  -20.89    8.58
  12  -3 -25   72.83   16.39
  12  -3 -25   53.54   14.65
 -12   3  25   43.56   15.52
  12  -4 -25  -15.73   10.57
  12  -5 -25   39.14    9.38
  12  -5 -25   14.77   10.52
 -12   5  25   38.81   12.21
 -12   5  25    0.41    9.51
  12  -6 -25   -3.82    8.16
  12  -6 -25    0.61   10.35
 -12   6  25    0.43    8.29
 -12   6  25    4.22   11.66
  12  -7 -25    1.25    9.74
  12  -7 -25  -15.15    8.66
 -12   7  25   -1.34    9.70
 -12   7  25   -4.42   12.66
   7 -13 -25   -0.46    9.92
  -7  13  25   -0.48    8.35
  -7  13  25   16.05   16.17
   6 -13 -25  -16.10   10.58
   6 -13 -25    0.45    8.37
  -6  13  25   -7.08   10.48
  -6  13  25  -21.48   15.86
   5 -13 -25    0.46    9.80
   5 -13 -25   -5.67    7.49
  -5  13  25  -31.46   16.66
  -5  13  25   -0.44    9.83
   4 -13 -25    0.38    6.94
   4 -13 -25    0.46    9.53
  -4  13  25  -12.76   16.30
  -4  13  25    0.43   10.34
   3 -13 -25    1.40    6.68
  -3  13  25   -3.93   16.11
   2 -13 -25    3.27    6.01
  13   0 -25    1.28    7.64
 -13   0  25   -1.24   10.58
  13  -1 -25    7.15    7.82
 -13   1  25  -22.17   11.43
  13  -2 -25   10.59    8.01
 -13   2  25   -9.49    8.12
 -13   2  25    4.51   11.30
  13  -3 -25   -8.77    8.07
 -13   3  25    0.43    8.40
 -13   3  25   23.99   11.96
  13  -4 -25    0.69    7.73
 -13   4  25   -0.44    8.52
 -13   4  25    7.57   11.81
  13  -5 -25    9.66    8.58
 -13   5  25   11.87   12.40
 -13   5  25  -24.05    9.19
  13  -6 -25    4.07    9.08
 -13   6  25   -8.51   12.91
   6 -14 -25   -5.33   11.08
  -6  14  25   -9.82   17.04
   5 -14 -25    1.45   10.22
   5 -14 -25    2.22    7.90
  -5  14  25   -5.67   17.38
  -5  14  25    0.48   11.18
   4 -14 -25    0.48    9.87
   4 -14 -25    0.41    7.54
  -4  14  25    8.57   17.88
  -4  14  25    0.46   10.23
   3 -14 -25   -0.38    7.40
  -3  14  25   23.31   16.32
   2 -14 -25    3.19    6.64
   4 -15 -25   11.93   10.15
   4 -15 -25   -8.46    8.57
  -4  15  25   -9.86   17.26
   3 -15 -25    2.05    7.73
  -3  15  25    0.49   11.29
   2   0 -26   16.25    5.69
   2  -1 -26   -1.49    3.97
   2  -2 -26   -0.64    4.07
  -2   2  26    6.51    9.88
   2  -3 -26    4.60    3.93
  -2   3  26   -7.83    9.64
   3   1 -26    4.18    4.91
   3   0 -26    0.85    5.59
   3   0 -26   23.76    7.23
  -3   0  26   47.68   10.34
   3  -1 -26   29.30    7.35
   3  -1 -26   17.50    5.41
  -3   1  26    4.47   10.22
   3  -2 -26   -3.50    4.07
   3  -2 -26   12.53    6.60
  -3   2  26   -0.27    9.63
   3  -3 -26   17.11    7.07
   3  -3 -26    6.64    4.68
  -3   3  26   -4.11   10.05
   3  -4 -26    4.95    3.99
   3  -4 -26    1.91    6.79
  -3   4  26    0.28    9.73
   2  -4 -26    2.88    4.09
  -2   4  26    6.28    9.89
   4   1 -26   -0.87    4.16
   4   0 -26   -9.42    6.31
   4   0 -26    0.44    3.94
  -4   0  26   -1.19    9.05
   4  -1 -26    2.03    4.36
   4  -1 -26    8.95    6.63
  -4   1  26   -4.64    9.10
   4  -2 -26    8.83    6.62
   4  -2 -26    0.69    4.34
  -4   2  26   -3.27    9.53
   4  -3 -26    8.13    6.49
   4  -3 -26    4.65    4.38
  -4   3  26   -0.26    9.63
   4  -4 -26   -0.24    4.43
   4  -4 -26   -0.31    6.92
  -4   4  26    9.26   10.47
   4  -5 -26    1.94    4.89
   4  -5 -26    2.25    7.03
  -4   5  26   -6.07   10.25
   3  -5 -26   -2.96    6.81
   3  -5 -26    4.13    4.14
  -3   5  26    0.29   10.12
   2  -5 -26   -0.68    4.37
   5   2 -26    1.15    4.52
  -2   5  26    5.89   10.28
  -5  -2  26   17.82    5.15
   5   1 -26    0.24    4.27
   5   1 -26    8.39    6.24
  -5  -1  26    0.22    4.79
  -5  -1  26   -7.46    8.63
   5   0 -26    8.61    4.53
   5   0 -26   -0.28    6.18
  -5   0  26  -12.88    9.08
   5  -1 -26    1.46    4.43
   5  -1 -26   -4.50    6.20
  -5   1  26  -16.44    9.07
   5  -2 -26  -12.57    6.47
   5  -2 -26    2.23    4.60
  -5   2  26   -6.84    9.18
   5  -3 -26   -0.88    6.51
   5  -3 -26    3.78    4.81
  -5   3  26    7.08    9.42
   5  -4 -26    7.21    4.87
   5  -4 -26    3.63    6.73
  -5   4  26    0.25    9.84
   5  -5 -26   20.09    7.47
   5  -5 -26   11.09    5.46
  -5   5  26  -10.33   10.41
   5  -6 -26   -0.27    5.30
   5  -6 -26    0.33    7.13
  -5   6  26    3.89   10.97
   4  -6 -26    2.00    7.37
   4  -6 -26    0.25    4.61
  -4   6  26   -3.24   10.92
   3  -6 -26   12.29    7.79
   3  -6 -26    7.07    4.88
  -3   6  26   -0.31   10.94
   6   2 -26   -4.61    5.08
   6   2 -26   -4.15    5.69
   2  -6 -26   -0.23    4.32
  -2   6  26  -20.02   10.75
   6   1 -26    7.55    5.91
   6   1 -26   -0.78    4.86
  -6  -1  26    0.67    5.01
  -6  -1  26   14.58    8.83
   6   0 -26    2.13    6.23
   6   0 -26    6.44    5.39
  -6   0  26    0.86    8.83
  -6   0  26    0.47    5.04
   6  -1 -26    0.27    4.79
   6  -1 -26    3.53    6.52
  -6   1  26   16.08    8.99
  -6   1  26   -3.22    5.42
   6  -2 -26    8.62    6.46
   6  -2 -26   -0.27    5.26
  -6   2  26    6.29    8.85
  -6   2  26   -0.78    6.08
   6  -3 -26   12.81    6.35
   6  -3 -26   29.38    7.21
  -6   3  26    0.23    9.72
  -6   3  26   14.09    7.30
   6  -4 -26    1.77    6.76
   6  -4 -26    2.27    5.19
  -6   4  26    0.57    6.69
  -6   4  26   -5.09    9.33
   6  -5 -26    1.17    5.92
   6  -5 -26    0.31    7.16
  -6   5  26   -0.30    6.98
  -6   5  26   -4.81   10.25
   6  -6 -26    6.30    5.26
   6  -6 -26  -13.73    7.57
  -6   6  26    0.31    6.90
  -6   6  26   -1.60   10.52
   6  -7 -26   -0.33    6.94
  -6   7  26   -3.15   11.34
   5  -7 -26   -0.34    7.72
  -5   7  26    2.05   11.28
   4  -7 -26    8.04    8.70
  -4   7  26    4.96   12.83
   3  -7 -26    0.36    7.54
  -3   7  26   -3.24   11.34
   7   2 -26    4.26    5.62
  -2   7  26   -1.35   11.34
   7   1 -26   18.38    6.84
   7   1 -26    6.88    5.94
  -7  -1  26    5.40    8.99
  -7  -1  26   16.58    6.41
   7   0 -26   -3.66    6.22
   7   0 -26   -2.68    5.58
  -7   0  26    5.12    5.43
  -7   0  26   -0.21    8.62
   7  -1 -26   15.90    6.33
   7  -1 -26   18.18    7.07
  -7   1  26    3.24    6.61
  -7   1  26   13.70    9.38
   7  -2 -26   15.88    6.50
   7  -2 -26    4.56    5.99
  -7   2  26    6.38    6.78
  -7   2  26    3.10    9.04
   7  -3 -26   -0.28    6.55
   7  -3 -26   -6.52    6.02
  -7   3  26   -5.74   10.10
   7  -4 -26   30.98    9.42
   7  -4 -26   13.95    8.32
  -7   4  26   31.41    9.37
  -7   4  26   38.35   12.54
   7  -5 -26   12.89    7.11
   7  -5 -26   10.08    6.36
  -7   5  26   -3.98   10.45
  -7   5  26    0.32    6.82
   7  -6 -26    6.36    5.70
   7  -6 -26    1.25    6.79
  -7   6  26    0.33    7.43
  -7   6  26    8.08   10.88
   7  -7 -26    0.33    7.42
   7  -7 -26   -0.35    6.49
  -7   7  26   -1.65   10.98
  -7   7  26    7.31    7.50
   7  -8 -26   -5.23    7.99
   7  -8 -26    0.37    6.57
  -7   8  26    2.98    8.47
  -7   8  26   15.12   11.70
   6  -8 -26    8.83    8.01
   6  -8 -26   -0.33    6.66
  -6   8  26   -0.30   11.90
  -6   8  26    0.34    8.10
   5  -8 -26    7.23    5.03
   5  -8 -26    0.36    7.92
  -5   8  26    4.10    7.90
  -5   8  26    0.31   12.34
   4  -8 -26   13.23    8.85
   4  -8 -26    6.29    5.14
  -4   8  26    0.98   12.86
   3  -8 -26    0.26    4.52
   3  -8 -26   -2.62    7.71
  -3   8  26   -4.48   12.48
   2  -8 -26    6.50    4.51
  -2   8  26   -2.85   11.70
   8   1 -26   -3.72    9.25
   8   1 -26   23.50    9.53
  -8  -1  26   27.04    8.99
  -8  -1  26   64.34   11.96
   8   0 -26   24.50   14.11
   8   0 -26   64.10   14.08
  -8   0  26   87.85   15.93
   8  -1 -26   35.73   10.18
   8  -1 -26    3.80    9.90
  -8   1  26   68.26   12.45
  -8   1  26   44.83   10.27
   8  -2 -26   10.29    6.32
   8  -2 -26  -20.18    7.09
  -8   2  26  -19.13    9.73
  -8   2  26    0.29    6.18
   8  -3 -26    2.55    6.57
   8  -3 -26  -13.35    6.50
  -8   3  26    3.32    6.79
  -8   3  26   -6.82    9.63
   8  -4 -26   22.64    7.27
   8  -4 -26   18.89    7.57
  -8   4  26    6.84   10.13
  -8   4  26   13.52    8.29
   8  -5 -26    2.58    6.77
   8  -5 -26   -2.10    7.18
  -8   5  26    0.33    7.10
  -8   5  26    8.10   10.08
   8  -6 -26    4.35    7.22
   8  -6 -26    0.38    6.59
  -8   6  26    0.34    7.85
  -8   6  26   12.78   10.51
   8  -7 -26    0.39    7.23
   8  -7 -26   -0.32    7.04
  -8   7  26    6.30   10.96
  -8   7  26    5.06    8.33
   8  -8 -26   -0.41    7.52
   8  -8 -26   -2.45    8.44
  -8   8  26  -21.09   12.25
   8  -9 -26    0.37    9.21
   8  -9 -26   19.37    8.42
  -8   9  26  -31.72    9.95
   7  -9 -26  -13.60    8.04
  -7   9  26  -10.65    8.90
   6  -9 -26    0.38    8.12
   6  -9 -26    6.97    6.94
  -6   9  26   27.04   13.03
  -6   9  26    0.37    8.22
   5  -9 -26    1.54    8.89
   5  -9 -26    0.95    5.79
  -5   9  26   -4.33    8.44
  -5   9  26    1.68   12.88
   4  -9 -26  -13.54    5.41
   4  -9 -26    0.39    8.52
  -4   9  26    1.39   12.68
   3  -9 -26    5.12    8.43
   3  -9 -26   15.98    5.67
  -3   9  26    2.92   13.29
   2  -9 -26   -0.26    5.06
  -2   9  26    1.88   12.77
   9   1 -26   11.91    6.75
   9   1 -26    7.74    7.12
  -9  -1  26  -13.10    5.93
  -9  -1  26   19.03    8.94
   9   0 -26   -3.91    7.26
   9   0 -26  -14.80    6.74
  -9   0  26    0.56    5.83
  -9   0  26    1.69    9.00
   9  -1 -26   30.40    7.29
   9  -1 -26    4.44    7.52
  -9   1  26    5.03    9.51
  -9   1  26    0.29    6.59
   9  -2 -26   -8.72    7.12
   9  -2 -26    2.84    6.56
  -9   2  26  -10.59    9.58
  -9   2  26    4.59    6.49
   9  -3 -26    5.27    7.59
   9  -3 -26   11.01    7.15
  -9   3  26    2.33    9.95
  -9   3  26   10.21    7.61
   9  -4 -26    2.08    6.70
   9  -4 -26    0.42    6.90
  -9   4  26    0.33    7.33
  -9   4  26    8.19    9.76
   9  -5 -26    8.32    7.32
   9  -5 -26   12.35    7.45
  -9   5  26    0.75   10.34
  -9   5  26    1.39    7.94
   9  -6 -26  -13.58    7.92
   9  -6 -26   17.84    7.69
  -9   6  26    0.26   10.84
  -9   6  26    1.45    8.06
   9  -7 -26  -19.48    8.19
   9  -7 -26    0.33    8.74
  -9   7  26  -38.50   12.91
  -9   7  26   -8.77    9.55
   9  -8 -26  -26.68    8.85
   9  -9 -26   -0.37    9.05
   9  -9 -26    0.49    9.34
  -9   9  26    0.42    9.61
  -9   9  26  -14.51   12.98
   9 -10 -26    5.15    9.77
   9 -10 -26    0.39    9.07
  -9  10  26    6.98   13.78
   8 -10 -26   -0.46    8.32
   8 -10 -26  -16.07    9.42
  -8  10  26   -2.16    9.31
  -8  10  26    1.99   13.69
   7 -10 -26    2.39    9.04
   7 -10 -26   -6.95    7.14
  -7  10  26   -2.69   13.49
  -7  10  26    9.59    9.02
   6 -10 -26   15.07   11.99
   6 -10 -26   45.81   15.17
  -6  10  26    8.96   15.37
   5 -10 -26   -1.63    8.81
   5 -10 -26   -6.17    6.41
  -5  10  26   -0.38    9.13
  -5  10  26   -2.15   13.68
   4 -10 -26    2.81    5.85
   4 -10 -26   18.93    9.36
  -4  10  26    0.37   13.74
   3 -10 -26    7.85    5.41
   3 -10 -26   -0.42    8.75
  -3  10  26   -0.39   13.83
   2 -10 -26    5.27    5.36
  10   1 -26    7.11    6.89
  10   1 -26  -11.33    7.42
 -10  -1  26  -11.19    5.93
 -10  -1  26   -8.59    9.13
  10   0 -26    0.29    6.93
  10   0 -26    3.11    7.27
 -10   0  26   13.32    9.50
 -10   0  26    0.30    6.67
  10  -1 -26   17.01    8.14
  10  -1 -26    2.06    7.02
 -10   1  26    6.92    6.85
 -10   1  26    0.68    9.73
  10  -2 -26  -14.63    7.04
  10  -2 -26    8.26    7.98
 -10   2  26    0.32    6.34
 -10   2  26    3.73    9.57
  10  -3 -26   -7.60    7.12
  10  -3 -26   10.81    8.54
 -10   3  26    1.02    7.17
 -10   3  26    3.39    9.86
  10  -4 -26    1.24    7.75
  10  -4 -26   26.96    9.56
 -10   4  26    5.29    7.78
 -10   4  26   25.75   10.77
  10  -5 -26    0.49    8.91
  10  -5 -26   12.41    7.75
 -10   5  26   -0.52   10.80
 -10   5  26    0.37    8.18
  10  -6 -26   44.63   14.58
  10  -6 -26    5.29   13.14
 -10   6  26    1.92   13.49
  10  -7 -26    0.52    9.82
  10  -7 -26    4.46    8.02
 -10   7  26   -5.64    8.64
 -10   7  26   18.86   12.15
  10  -8 -26    0.36    9.04
 -10   8  26  -17.33   12.75
  10  -9 -26   -4.93    9.01
  10  -9 -26   -2.27   10.67
 -10   9  26  -22.04   13.42
 -10   9  26    0.45    8.39
   8 -11 -26   20.04    9.33
   8 -11 -26   18.57   10.26
  -8  11  26  -20.86   14.35
   7 -11 -26    0.42    9.49
   7 -11 -26   -1.73    8.08
  -7  11  26    0.37   14.34
  -7  11  26    0.44   10.23
   6 -11 -26    0.43    9.63
   6 -11 -26    0.40    7.05
  -6  11  26   -8.55   10.01
  -6  11  26   -8.18   14.73
   5 -11 -26    0.36    6.71
   5 -11 -26   -6.52    9.18
  -5  11  26  -10.12    9.55
  -5  11  26  -10.68   15.13
   4 -11 -26   47.81   14.64
   4 -11 -26   27.93   10.95
  -4  11  26   12.01   20.81
   3 -11 -26    7.17    6.72
   3 -11 -26   -0.44    9.95
  -3  11  26  -12.74   15.44
   2 -11 -26   15.87    6.44
  11   1 -26    2.87    7.07
  11   1 -26    0.30    6.94
  11   0 -26    4.96    7.63
  11   0 -26   -2.45    7.45
 -11   0  26    0.33    6.63
 -11   0  26    8.11   10.07
  11  -1 -26   -2.79    7.68
  11  -1 -26    4.12    7.84
 -11   1  26   -7.15    7.35
 -11   1  26  -13.35   10.15
  11  -2 -26    1.26    7.32
  11  -2 -26  -12.50    8.92
 -11   2  26   -0.35    7.29
 -11   2  26    3.92   10.58
  11  -3 -26  -22.98   10.04
  11  -3 -26  -30.34    8.43
 -11   3  26  -25.57    8.77
 -11   3  26  -33.74   11.95
  11  -4 -26   44.90   15.93
  11  -4 -26   38.46   14.83
 -11   4  26   46.73   14.75
 -11   4  26   92.73   17.98
  11  -5 -26    5.01    8.11
  11  -5 -26    0.55    9.25
 -11   5  26   -2.44   11.75
 -11   5  26    5.14    8.43
  11  -6 -26   19.77    8.54
  11  -6 -26    0.56    9.89
 -11   6  26   -8.57    9.08
 -11   6  26    1.13   11.95
  11  -7 -26    0.58    9.99
  11  -7 -26  -11.50    8.37
 -11   7  26  -10.27   12.49
 -11   7  26   -0.43    9.65
  11  -8 -26  -22.07    9.12
 -11   8  26  -18.93   13.48
   7 -12 -26    1.85   10.39
  -7  12  26   -0.47    8.68
  -7  12  26  -39.00   15.78
   6 -12 -26    3.23   10.82
   6 -12 -26   11.50    8.48
  -6  12  26   -2.78   15.86
  -6  12  26   11.02    9.98
   5 -12 -26   -8.34    7.39
   5 -12 -26    0.46   10.32
  -5  12  26    7.80   10.04
  -5  12  26  -23.97   15.86
   4 -12 -26   -0.46    9.98
   4 -12 -26    1.45    6.80
  -4  12  26   -7.23   15.75
  -4  12  26    0.43    9.59
   3 -12 -26    1.67    6.46
  -3  12  26   -4.37   15.32
  12   0 -26  -19.36    9.32
  12   0 -26  -16.92    9.77
 -12   0  26  -31.80   12.15
  12  -1 -26  -16.78    8.97
  12  -1 -26    3.27    8.64
 -12   1  26  -21.56   11.44
 -12   1  26   -9.27    7.90
  12  -2 -26   20.19    8.78
  12  -2 -26   -9.62    7.47
 -12   2  26  -12.32    8.21
 -12   2  26   11.20   11.29
  12  -3 -26    0.59    9.82
  12  -3 -26    0.34    7.92
 -12   3  26   -2.14   11.13
 -12   3  26   -7.59    7.84
  12  -4 -26   12.02   10.35
  12  -4 -26    5.17    8.25
 -12   4  26    6.20    9.03
 -12   4  26   22.19   11.56
  12  -5 -26    2.12    8.72
  12  -5 -26  -36.37   10.64
 -12   5  26  -12.03   12.43
 -12   5  26   -0.43    9.00
  12  -6 -26   22.80   11.19
  12  -6 -26   17.53    9.40
 -12   6  26    0.45    9.96
 -12   6  26   34.74   14.26
   6 -13 -26   -0.49   10.77
  -6  13  26  -29.59   17.32
   5 -13 -26   -0.49   10.19
   5 -13 -26   -2.97    7.98
  -5  13  26  -31.17   17.39
  -5  13  26    0.46   10.82
   4 -13 -26    0.39    7.33
   4 -13 -26    1.46   10.33
  -4  13  26   10.91   16.96
  -4  13  26  -14.64   10.59
   3 -13 -26    0.37    6.82
  -3  13  26   14.76   16.35
  13   0 -26    0.68    7.69
 -13   0  26    3.92   11.00
  13  -1 -26    0.34    8.19
 -13   1  26  -16.14   11.89
  13  -2 -26  -12.94    8.54
 -13   2  26   26.27   12.17
 -13   2  26  -11.47    8.12
  13  -3 -26   14.62    8.41
 -13   3  26   -4.39    8.24
 -13   3  26  -12.69   12.36
  13  -4 -26    2.92    8.41
 -13   4  26    8.61   12.62
 -13   4  26   -0.45    9.11
  13  -5 -26    0.75    8.84
 -13   5  26  -15.93   12.90
   4 -14 -26   -3.41    7.89
   4 -14 -26   -0.51   11.21
  -4  14  26    2.39   17.94
   3 -14 -26   -6.69    7.67
   2   1 -27   12.36    5.93
   2   0 -27   -1.60    4.35
   2  -1 -27   25.56    6.69
   2   2 -27   -0.88    4.00
   2  -2 -27    0.23    4.60
   3   2 -27    6.76    4.99
   2  -3 -27   10.05    4.85
   3   1 -27    0.67    4.40
  -3  -1  27    3.80    9.58
   3   0 -27   14.86    5.66
  -3   0  27   16.01   10.38
   3  -1 -27    6.17    6.80
   3  -1 -27    5.55    4.30
  -3   1  27    6.44    9.89
   3  -2 -27    6.25    7.01
   3  -2 -27   17.07    5.19
  -3   2  27    6.88   10.74
   3  -3 -27    0.24    4.28
   3  -3 -27  -14.40    7.05
  -3   3  27   -7.07   10.65
   3  -4 -27    0.68    6.79
   3  -4 -27    2.88    4.29
  -3   4  27   15.53   10.63
   4   2 -27   26.15    8.76
  -4  -2  27   60.47   10.98
   4   1 -27    3.72    4.27
   4   1 -27   -4.84    6.45
  -4  -1  27   -5.59    9.66
   4   0 -27   -2.61    4.34
   4   0 -27  -11.00    6.67
  -4   0  27   -3.63    9.78
   4  -1 -27   -8.07    6.71
   4  -1 -27   -4.83    4.67
  -4   1  27    2.39    9.90
   4  -2 -27    0.32    6.82
   4  -2 -27   -5.14    4.85
  -4   2  27  -16.13   10.16
   4  -3 -27    6.80    7.17
   4  -3 -27   -0.25    4.85
  -4   3  27   -3.05   10.47
   4  -4 -27   -1.01    4.97
   4  -4 -27   -0.33    7.25
  -4   4  27    7.19   10.32
   4  -5 -27    0.34    7.39
   4  -5 -27    4.13    4.95
  -4   5  27  -12.58   11.12
   3  -5 -27    0.70    8.10
   3  -5 -27   18.09    4.91
  -3   5  27   -6.96   11.50
   5   2 -27   -0.49    4.68
   5   2 -27   -6.05    6.67
   2  -5 -27   -3.61    4.06
  -2   5  27  -12.15   10.90
   5   1 -27   -7.64    4.76
   5   1 -27   -2.34    6.42
  -5  -1  27   18.60    9.08
   5   0 -27    1.02    4.96
   5   0 -27    2.09    6.82
  -5   0  27  -16.22    9.79
   5  -1 -27   10.41    5.35
   5  -1 -27    7.25    6.49
  -5   1  27   -0.25    9.38
   5  -2 -27   -0.26    4.98
   5  -2 -27  -11.11    6.81
  -5   2  27   -3.33   10.04
   5  -3 -27   15.03    5.99
   5  -3 -27   12.03    7.82
  -5   3  27    5.75   10.69
   5  -4 -27  -12.86    5.36
   5  -4 -27   -0.33    6.92
  -5   4  27   -7.33   10.89
   5  -5 -27  -18.24    8.23
   5  -5 -27   -9.24    5.66
  -5   5  27    3.40   11.36
   5  -6 -27    0.29    4.94
   5  -6 -27   -0.70    7.66
  -5   6  27    2.71   11.57
   4  -6 -27   17.18    8.21
   4  -6 -27   10.33    5.30
  -4   6  27   -0.31   11.65
   3  -6 -27    4.76    5.01
   3  -6 -27    2.19    7.59
  -3   6  27    0.33   11.64
   2  -6 -27    5.98    4.39
  -2   6  27   -5.47   11.61
   6   1 -27    0.28    5.17
   6   1 -27   -7.16    6.59
  -6  -1  27   -0.24    5.20
  -6  -1  27  -16.97    9.00
   6   0 -27   -5.42    5.60
   6   0 -27  -11.69    6.83
  -6   0  27   11.75    9.39
  -6   0  27    0.50    5.60
   6  -1 -27   -0.85    5.46
   6  -1 -27    0.30    6.27
  -6   1  27    3.69    5.84
  -6   1  27    5.24    9.74
   6  -2 -27    0.90    6.87
   6  -2 -27   11.32    5.86
  -6   2  27    1.72   10.03
  -6   2  27   -5.52    6.27
   6  -3 -27   -0.30    5.41
   6  -3 -27   14.73    7.18
  -6   3  27    7.37   10.90
  -6   3  27    0.58    6.78
   6  -4 -27   -0.32    6.96
   6  -4 -27    4.82    5.76
  -6   4  27  -10.84   11.19
  -6   4  27    0.30    6.53
   6  -5 -27    2.47    5.66
   6  -5 -27   10.17    7.33
  -6   5  27   -3.13    6.90
  -6   5  27   -5.79   10.54
   6  -6 -27   -8.23    6.08
   6  -6 -27   -4.87    7.80
  -6   6  27    0.33    7.25
  -6   6  27   -0.87   11.05
   6  -7 -27    0.36    7.70
   6  -7 -27    8.51    6.16
  -6   7  27   -0.30   12.09
  -6   7  27   -0.34    8.11
   5  -7 -27   -6.26    7.94
  -5   7  27   -0.32   11.69
   4  -7 -27    0.37    7.79
  -4   7  27    0.33   12.17
  -3   7  27    0.35   12.15
   7   1 -27  -15.24    7.29
   7   1 -27   -4.55    5.94
  -7  -1  27    0.22    9.33
  -7  -1  27    0.25    5.91
   7   0 -27    5.04    6.01
   7   0 -27  -12.21    7.19
  -7   0  27   -4.06    5.76
  -7   0  27   17.18    9.80
   7  -1 -27  -20.59    7.36
   7  -1 -27   -4.71    6.03
  -7   1  27   -5.89    6.09
  -7   1  27  -16.25    9.88
   7  -2 -27   -4.15    7.29
   7  -2 -27    0.32    5.45
  -7   2  27   -0.29    6.94
  -7   2  27  -19.16    9.97
   7  -3 -27   15.22    7.37
   7  -3 -27   17.07    6.42
  -7   3  27   -0.25   10.02
  -7   3  27   -0.31    6.52
   7  -4 -27    4.70    7.14
   7  -4 -27    2.34    6.16
  -7   4  27    0.32    7.47
  -7   4  27    4.84   10.31
   7  -5 -27   -5.49    6.43
   7  -5 -27  -11.34    7.73
  -7   5  27    2.92   10.88
  -7   5  27    5.34    7.51
   7  -6 -27    7.08    8.01
   7  -6 -27    0.35    6.33
  -7   6  27    2.56   10.93
  -7   6  27   13.63    8.05
   7  -7 -27   -0.35    8.11
   7  -7 -27   -0.36    6.65
  -7   7  27    1.49   11.57
  -7   7  27   -2.20    8.37
   7  -8 -27    0.38    9.25
   6  -8 -27    1.40    6.24
   6  -8 -27    7.69    8.76
  -6   8  27    0.36    8.48
  -6   8  27    5.80   12.68
   5  -8 -27    8.13    8.74
   5  -8 -27   13.34    6.37
  -5   8  27    3.25    8.49
  -5   8  27   -4.36   12.82
   4  -8 -27   -3.53    8.46
   4  -8 -27    0.29    5.65
  -4   8  27   -0.70   12.75
   3  -8 -27    3.02    5.55
   3  -8 -27    3.20    8.31
  -3   8  27    4.39   12.85
   8   1 -27   11.20    6.20
   8   1 -27   17.20    7.03
  -8  -1  27   -2.63    5.70
  -8  -1  27    8.57    9.33
   8   0 -27   -7.50    7.11
   8   0 -27   -4.24    6.23
  -8   0  27    2.23    6.22
  -8   0  27    6.44    9.37
   8  -1 -27   -3.65    6.73
   8  -1 -27    3.53    6.80
  -8   1  27    3.81    6.73
  -8   1  27   11.26    9.75
   8  -2 -27    0.88    6.90
   8  -2 -27   22.44    6.90
  -8   2  27    3.09    9.84
  -8   2  27    0.30    6.86
   8  -3 -27   17.04    7.11
   8  -3 -27    9.60    7.19
  -8   3  27    7.95    7.65
  -8   3  27   -0.74    9.94
   8  -4 -27   -7.20    6.82
   8  -4 -27   -2.77    7.30
  -8   4  27    0.66    7.65
  -8   4  27    3.06   10.10
   8  -5 -27   12.42    7.69
   8  -5 -27    0.65    7.61
  -8   5  27    2.43    8.11
  -8   5  27    7.95   10.61
   8  -6 -27    0.34    7.72
   8  -6 -27    1.20    7.49
  -8   6  27    0.28   11.08
  -8   6  27    8.34    7.89
   8  -7 -27  -18.75    9.36
  -8   7  27   -0.38    8.88
   8  -8 -27  -24.90   10.10
  -8   8  27  -21.24   14.56
   8  -9 -27    0.45    8.40
   8  -9 -27    0.40    8.94
  -8   9  27    0.33   13.17
  -8   9  27    6.81    9.80
   7  -9 -27    0.40    9.08
   7  -9 -27    9.78    7.94
  -7   9  27   -7.04   13.15
  -7   9  27    0.42    8.37
   6  -9 -27    0.37    7.46
   6  -9 -27   -0.41    9.77
  -6   9  27   -7.71    9.97
  -6   9  27   29.86   15.18
   5  -9 -27    3.29    8.47
   5  -9 -27    2.66    6.05
  -5   9  27  -22.48   14.06
  -5   9  27    0.38    8.70
   4  -9 -27    7.43    9.90
   4  -9 -27   18.22    7.30
  -4   9  27   37.50   15.00
   3  -9 -27    1.75    5.49
   3  -9 -27  -21.00    9.06
  -3   9  27   -0.39   13.52
   9   1 -27   -0.79    7.09
   9   1 -27    8.26    6.92
  -9  -1  27   -6.15    9.68
  -9  -1  27    3.04    6.07
   9   0 -27   13.69    7.47
   9   0 -27   14.37    8.01
  -9   0  27   20.26   10.03
  -9   0  27    0.29    6.57
   9  -1 -27  -15.73    7.37
   9  -1 -27    5.27    7.26
  -9   1  27    8.02    6.89
  -9   1  27    6.81    9.95
   9  -2 -27   13.75    7.99
   9  -2 -27   26.30    7.88
  -9   2  27    0.32    6.96
  -9   2  27    0.73   10.28
   9  -3 -27  -13.65    7.79
   9  -3 -27  -15.42    7.44
  -9   3  27    3.00   10.32
  -9   3  27    0.34    7.46
   9  -4 -27   14.21    9.05
   9  -4 -27   46.68    9.65
  -9   4  27   12.17   11.63
  -9   4  27   12.25    8.90
   9  -5 -27   -0.45    7.79
   9  -5 -27    0.32    7.47
  -9   5  27    0.27   11.00
  -9   5  27    1.46    8.21
   9  -6 -27   19.31    9.30
   9  -6 -27    0.34    9.45
  -9   6  27    5.35    9.85
  -9   6  27   26.66   12.79
   9  -7 -27  -23.26    8.51
   9  -7 -27   -9.23    8.30
  -9   7  27   13.52   12.62
  -9   7  27    0.40    9.34
   9  -8 -27    0.37    8.71
  -9   8  27  -21.99   14.10
   9  -9 -27  -35.26   10.52
  -9   9  27  -15.92   14.25
  -9   9  27    0.45   10.73
   8 -10 -27   -0.42   10.20
  -8  10  27   15.44   14.59
   7 -10 -27    0.42    9.82
   7 -10 -27  -15.44    7.93
  -7  10  27   -0.44    9.54
  -7  10  27  -29.15   14.77
   6 -10 -27   -3.47    7.59
   6 -10 -27   -0.43    9.51
  -6  10  27   11.09   14.46
  -6  10  27   11.08    9.80
   5 -10 -27    0.36    7.19
  -5  10  27  -18.10    9.58
   4 -10 -27    0.33    6.98
   4 -10 -27   -5.69   10.55
   3 -10 -27    2.76    5.92
   3 -10 -27    0.44    8.90
  -3  10  27   15.63   14.31
  10   1 -27    9.02    7.42
  10   1 -27    8.86    7.96
  10   0 -27  -15.31    8.04
  10   0 -27  -12.86    7.37
 -10   0  27   23.17   10.23
 -10   0  27    7.17    6.61
  10  -1 -27   -0.47    8.24
  10  -1 -27   -7.77    7.30
 -10   1  27    9.72    7.13
 -10   1  27    2.41   10.14
  10  -2 -27   -7.21    8.88
  10  -2 -27   -9.79    7.72
 -10   2  27    0.25   10.08
 -10   2  27    0.34    6.83
  10  -3 -27   10.34    9.18
  10  -3 -27    6.43    7.66
 -10   3  27   -0.77   10.94
 -10   3  27    4.26    7.69
  10  -4 -27    5.04   10.44
  10  -4 -27  -17.09    8.17
 -10   4  27  -36.30    9.70
 -10   4  27  -33.91   12.42
  10  -5 -27    2.59    8.95
  10  -5 -27   -5.07    8.58
 -10   5  27   -0.39    9.22
 -10   5  27  -11.61   13.50
  10  -6 -27   16.39    8.74
  10  -6 -27    1.03    9.57
 -10   6  27    0.40    9.08
 -10   6  27   21.01   12.47
  10  -7 -27    0.36    8.56
  10  -7 -27  -17.00    9.81
 -10   7  27   11.73   13.03
 -10   7  27    0.42    9.37
  10  -8 -27   -0.38    9.26
 -10   8  27   -4.80   13.54
   7 -11 -27    0.46    9.38
   7 -11 -27    0.45    8.35
  -7  11  27   -0.47    8.10
  -7  11  27   -8.15   16.05
   6 -11 -27   15.68   10.34
   6 -11 -27    7.98    8.01
  -6  11  27    0.45   10.23
  -6  11  27  -25.66   15.70
   5 -11 -27    0.38    7.04
   5 -11 -27   17.54   10.39
  -5  11  27    0.43    9.64
  -5  11  27  -39.93   16.13
   4 -11 -27   -0.35    6.68
   4 -11 -27    6.94    9.79
  -4  11  27   16.53   15.50
   3 -11 -27    0.33    6.19
  -3  11  27    9.16   15.49
  11   0 -27   -4.64   12.13
  11   0 -27   32.66   11.90
 -11   0  27   69.81   14.57
 -11   0  27   31.73   10.52
  11  -1 -27  -24.25   10.30
  11  -1 -27  -31.79    9.40
 -11   1  27   15.46    8.62
 -11   1  27  -17.98   12.15
  11  -2 -27   -0.54    9.34
  11  -2 -27  -26.93    8.93
  11  -3 -27    2.79    9.81
  11  -3 -27   -0.34    7.99
 -11   3  27    0.38    8.37
 -11   3  27    7.77   11.09
  11  -4 -27   11.03    8.04
  11  -4 -27    1.68    9.84
 -11   4  27   11.32   11.12
 -11   4  27    0.39    8.20
  11  -5 -27  -24.65    9.63
  11  -5 -27   -2.12    8.53
 -11   5  27    0.41    8.46
 -11   5  27    6.64   11.93
  11  -6 -27    0.73    8.53
  11  -6 -27    0.59    9.69
 -11   6  27    5.13    9.31
 -11   6  27    2.40   12.55
  11  -7 -27   -0.38    9.04
 -11   7  27    0.31   13.46
   6 -12 -27    0.49   10.17
  -6  12  27    0.43   16.88
   5 -12 -27   24.18    8.64
   5 -12 -27   -0.49   10.70
  -5  12  27    0.46   10.67
  -5  12  27   15.34   16.90
   4 -12 -27   12.22    7.33
   4 -12 -27    2.45   10.44
  -4  12  27  -23.18   17.50
  -4  12  27    0.46   10.39
   3 -12 -27   -7.73    6.88
  -3  12  27  -12.01   16.03
  12   0 -27    0.34    8.24
  12   0 -27  -11.32    8.95
 -12   0  27    0.73    7.18
 -12   0  27   -2.86   11.14
  12  -1 -27  -17.57    8.57
  12  -1 -27  -13.37    9.47
 -12   1  27   -1.91    8.23
 -12   1  27   -0.80   11.65
  12  -2 -27    4.21    9.43
  12  -2 -27    0.35    8.32
 -12   2  27   -3.19    8.09
 -12   2  27    9.35   11.85
  12  -3 -27   23.84    9.95
  12  -3 -27    0.71    8.14
 -12   3  27   11.31   12.57
 -12   3  27    2.90    8.62
  12  -4 -27    1.09    8.92
  12  -4 -27    1.88    9.45
 -12   4  27    9.41   12.84
 -12   4  27    0.43    9.30
  12  -5 -27    1.86    9.01
  12  -5 -27    0.64   11.10
 -12   5  27    8.50   12.53
   4 -13 -27    0.52   10.21
   4 -13 -27   -0.41    6.58
  -4  13  27   42.30   18.42
   3 -13 -27    3.85    7.41
  13   0 -27   -0.36    8.81
 -13   0  27    2.76   11.96
  13  -1 -27    7.96    9.16
 -13   1  27   -4.27   12.40
 -13   1  27    7.99    8.46
  13  -2 -27   -0.37    8.64
 -13   2  27   22.85   12.42
 -13   2  27    0.44    8.60
  13  -3 -27    6.00    8.92
 -13   3  27   -8.14   13.09
 -13   3  27    0.45    8.58
   2   1 -28   -0.24    4.80
   2   0 -28    0.24    4.63
   2   2 -28   16.89    6.12
   3   2 -28   -0.93    4.81
   3   1 -28    0.72    4.85
   3   0 -28   -5.63    4.87
  -3   0  28   -3.52   10.50
   3  -1 -28    2.97    4.89
  -3   1  28   11.09   10.58
   3  -2 -28    1.25    4.32
  -3   2  28    5.21   10.33
   3  -3 -28    3.29    4.76
   3  -3 -28    2.86    7.64
  -3   3  28   -6.62   10.64
   3  -4 -28    8.45    4.83
   3  -4 -28    2.20    7.79
  -3   4  28    5.18   11.33
   4   2 -28    3.17    4.52
   4   1 -28    1.00    4.75
   4   1 -28    3.91    6.65
  -4  -1  28    2.73   10.08
   4   0 -28   13.80    7.23
   4   0 -28   -0.51    4.79
  -4   0  28   -2.80   10.33
   4  -1 -28   -3.62    4.91
   4  -1 -28  -18.99    7.44
  -4   1  28  -11.36   10.45
   4  -2 -28   -6.80    4.98
   4  -2 -28   -4.41    6.95
  -4   2  28    9.92   10.86
   4  -3 -28    6.36    4.77
   4  -3 -28   -0.35    7.22
  -4   3  28   -3.01   11.14
   4  -4 -28   -0.35    7.24
   4  -4 -28    0.27    4.54
  -4   4  28   -8.10   11.41
   4  -5 -28    0.27    5.21
   4  -5 -28    5.13    8.04
  -4   5  28    2.27   11.70
   3  -5 -28    0.38    7.46
   3  -5 -28    1.04    4.74
  -3   5  28   -3.70   11.84
   5   1 -28   17.30    7.46
   5   1 -28    4.35    5.43
  -5  -1  28   -3.85    9.97
   5   0 -28  -11.82    7.23
   5   0 -28   -4.09    5.43
  -5   0  28    0.26   10.50
   5  -1 -28    5.53    7.45
   5  -1 -28    5.55    5.43
  -5   1  28   -2.93   10.22
   5  -2 -28   10.71    6.07
   5  -2 -28    3.99    7.72
  -5   2  28   14.85   11.30
   5  -3 -28    7.50    7.46
   5  -3 -28   -2.29    5.53
  -5   3  28  -13.34   11.24
   5  -4 -28   11.63    5.80
   5  -4 -28    8.07    8.04
  -5   4  28    6.48   11.43
   5  -5 -28    0.36    7.66
   5  -5 -28    0.59    5.99
  -5   5  28    1.54   11.68
   5  -6 -28    5.18    5.76
   5  -6 -28    0.38    7.78
  -5   6  28    1.93   11.93
   4  -6 -28   -0.38    8.34
   4  -6 -28    0.28    5.46
  -4   6  28    5.08   12.12
   3  -6 -28    1.17    8.09
   3  -6 -28   13.59    5.53
  -3   6  28   -4.56   12.11
   6   1 -28  -10.81    7.09
   6   1 -28   -5.28    5.40
  -6  -1  28   -9.31    6.14
  -6  -1  28    8.97    9.38
   6   0 -28    1.90    7.32
   6   0 -28    7.59    5.93
  -6   0  28   -5.60    6.24
  -6   0  28   20.02   10.20
   6  -1 -28    9.31    7.09
   6  -1 -28    0.91    5.71
  -6   1  28    1.96    6.55
  -6   1  28  -16.02   10.36
   6  -2 -28    1.54    5.83
   6  -2 -28    4.93    7.43
  -6   2  28   -7.47   10.56
  -6   2  28   -6.75    6.87
   6  -3 -28    5.96    6.16
   6  -3 -28    0.34    7.53
  -6   3  28   -6.90   11.00
  -6   3  28   11.33    7.00
   6  -4 -28  -17.33    8.15
   6  -4 -28   -7.35    6.17
  -6   4  28  -11.18   11.06
  -6   4  28    0.32    7.31
   6  -5 -28   -0.36    7.90
   6  -5 -28    9.14    6.64
  -6   5  28    2.33    7.15
  -6   5  28   -4.48   11.68
   6  -6 -28    8.71    6.63
   6  -6 -28    0.37    8.53
  -6   6  28    0.35    8.00
  -6   6  28    0.31   11.98
   6  -7 -28   -0.35    6.90
   6  -7 -28   -6.25    8.56
  -6   7  28    0.73    8.33
  -6   7  28   -2.63   12.69
   5  -7 -28    7.10    6.11
   5  -7 -28    0.39    8.38
  -5   7  28   -2.71   12.97
   4  -7 -28   -0.29    5.71
   4  -7 -28   -5.96    7.86
  -4   7  28    5.70   12.89
   3  -7 -28    2.84    7.70
  -3   7  28    2.20   12.54
   7   1 -28   19.39    7.30
   7   1 -28    1.93    5.74
  -7  -1  28   -0.48    9.99
  -7  -1  28   -5.10    5.93
   7   0 -28    8.68    7.32
   7   0 -28   13.00    6.34
  -7   0  28    0.57    6.51
  -7   0  28   11.35    9.84
   7  -1 -28    2.66    6.24
   7  -1 -28  -10.77    7.58
  -7   1  28   -1.00   10.14
  -7   1  28    9.79    6.90
   7  -2 -28   23.94    8.04
   7  -2 -28    2.72    6.40
  -7   2  28   10.84   10.66
  -7   2  28   -4.34    7.20
   7  -3 -28   18.41    6.66
   7  -3 -28    0.66    7.72
  -7   3  28   -1.30    7.50
  -7   3  28   -8.56   10.57
   7  -4 -28   16.72    7.67
   7  -4 -28    0.35    6.86
  -7   4  28   12.77   11.01
  -7   4  28    2.37    7.64
   7  -5 -28   19.03    8.21
   7  -5 -28   -9.42    6.77
  -7   5  28   -6.70    8.09
  -7   5  28   -5.79   11.28
   7  -6 -28   -7.43    6.45
   7  -6 -28   -1.10    8.02
  -7   6  28   -3.33   12.01
  -7   6  28   -1.85    7.93
   7  -7 -28  -13.44    7.90
   7  -7 -28   -3.83    9.28
  -7   7  28   -8.12   13.81
  -7   7  28    0.39    8.87
   7  -8 -28   -1.62    9.42
  -7   8  28   14.40   14.10
   6  -8 -28   80.08   21.86
  -6   8  28  133.34   25.27
   5  -8 -28   -0.41    8.84
   5  -8 -28   -0.34    6.05
  -5   8  28  -19.64   13.85
   4  -8 -28    0.31    6.00
   4  -8 -28    5.84    9.16
  -4   8  28   25.91   13.92
   3  -8 -28    4.36    5.61
   3  -8 -28  -19.09    8.96
  -3   8  28   -5.05   13.09
   8   1 -28    1.79    6.53
   8   1 -28    4.57    7.18
  -8  -1  28    1.65    5.76
   8   0 -28   18.12    7.64
   8   0 -28    2.98    7.04
  -8   0  28    7.91    6.94
  -8   0  28   10.84   10.40
   8  -1 -28    0.75    6.92
   8  -1 -28   -0.31    7.15
  -8   1  28   -3.37    6.82
  -8   1  28   -2.74   10.39
   8  -2 -28    5.74    6.33
   8  -2 -28    9.96    7.69
  -8   2  28    5.41   10.95
  -8   2  28   -0.32    7.56
   8  -3 -28    4.93    7.59
   8  -3 -28   -0.39    7.30
  -8   3  28    6.38    7.85
  -8   3  28   -4.79   10.98
   8  -4 -28   16.78    8.04
   8  -4 -28   17.54    8.18
  -8   4  28   14.36   11.65
  -8   4  28   -0.35    7.74
   8  -5 -28    4.91    7.60
   8  -5 -28   -0.35    7.54
  -8   5  28    0.37    8.19
  -8   5  28    5.46   11.99
   8  -6 -28   12.07   15.59
   8  -6 -28   52.06   14.92
  -8   6  28  111.26   19.46
  -8   6  28    0.38   15.43
   8  -7 -28    0.43    8.48
   8  -7 -28    6.49    8.58
  -8   7  28    0.40    8.78
  -8   7  28  -11.02   12.92
   8  -8 -28    0.40    9.19
  -8   8  28  -13.57   14.50
   8  -9 -28    0.47    8.42
   8  -9 -28    0.42   10.09
  -8   9  28   -1.08   14.40
  -8   9  28    0.45    9.22
   7  -9 -28    0.43    9.62
   7  -9 -28   -5.57    8.35
  -7   9  28   -0.44    9.56
  -7   9  28    4.73   15.02
   6  -9 -28    0.44    9.66
   6  -9 -28    8.09    7.48
  -6   9  28   -0.41    9.59
  -6   9  28    4.44   14.45
   5  -9 -28  -16.82    7.53
  -5   9  28   -0.40    9.48
   4  -9 -28  -19.23    6.94
   3  -9 -28    8.62    6.39
  -3   9  28  -11.50   14.64
   9   1 -28    6.18    7.19
   9   0 -28   -8.43    7.29
   9   0 -28    1.72    7.66
  -9   0  28   10.29   10.24
  -9   0  28    2.76    6.47
   9  -1 -28    6.69    7.58
   9  -1 -28    2.13    7.32
  -9   1  28    1.93    6.88
  -9   1  28   -7.49   10.82
   9  -2 -28    2.19    7.77
   9  -2 -28    9.74    7.85
  -9   2  28    4.90   10.98
  -9   2  28    0.34    7.74
   9  -3 -28   16.24    9.10
   9  -3 -28   39.95    9.94
  -9   3  28    5.85   12.22
  -9   3  28   26.47    9.34
   9  -4 -28  -22.38    8.96
   9  -4 -28    0.46    8.87
  -9   4  28   -0.37    9.72
   9  -5 -28  -21.27    9.18
   9  -5 -28  -29.14    9.39
  -9   5  28    0.39    9.79
  -9   5  28   -8.13   14.19
   9  -6 -28    0.36    8.30
   9  -6 -28    1.93    8.79
  -9   6  28   -0.40    9.19
  -9   6  28   -9.38   12.19
   9  -7 -28  -13.49    9.19
   9  -7 -28    0.50    8.65
  -9   7  28    0.42    9.78
  -9   7  28    9.82   13.37
   9  -8 -28    2.02   10.11
  -9   8  28   13.98   14.27
   7 -10 -28    0.46   10.57
  -7  10  28   27.08   16.02
   6 -10 -28    4.46    7.49
   6 -10 -28    0.46   10.10
  -6  10  28   -0.43   10.44
  -6  10  28   16.38   15.67
   5 -10 -28   -3.25    9.89
   5 -10 -28    0.38    6.81
  -5  10  28    9.85   15.46
  -5  10  28    2.13    9.54
   4 -10 -28   18.58   10.14
   4 -10 -28    0.35    6.65
  -4  10  28    8.95   15.52
   3 -10 -28  -15.53    6.94
  -3  10  28  -43.92   16.63
  10   0 -28  331.33   54.82
 -10   0  28  232.04   57.37
  10  -1 -28  159.97   51.52
  10  -1 -28  365.98   49.55
 -10   1  28  233.74   52.93
 -10   1  28   90.44   46.83
  10  -2 -28  -40.32   11.98
 -10   2  28  -34.17   10.17
 -10   2  28   -2.13   13.78
  10  -3 -28    0.52    9.85
  10  -3 -28  -28.78    8.77
 -10   3  28   -0.37    9.28
  10  -4 -28   11.89    8.49
  10  -4 -28    6.68    8.26
 -10   4  28    7.35   11.84
 -10   4  28    0.77    9.10
  10  -5 -28  -20.00    9.64
  10  -5 -28    5.02    8.50
 -10   5  28    5.94   12.03
 -10   5  28   -1.21    8.98
  10  -6 -28   31.48    9.67
  10  -6 -28   11.90   10.12
 -10   6  28  -13.30   13.08
 -10   6  28   16.86    9.98
  10  -7 -28   -0.38    8.73
 -10   7  28   -9.69   13.60
   6 -11 -28   -0.49   10.88
  -6  11  28   -8.09   16.56
   5 -11 -28   -4.92   10.28
   5 -11 -28  -16.43    7.64
  -5  11  28  -18.02   10.57
  -5  11  28    5.24   16.40
   4 -11 -28   -0.37    6.61
   4 -11 -28    0.49   10.38
  -4  11  28   28.53   16.97
   3 -11 -28    4.51    6.68
  -3  11  28    9.67   16.05
  11   0 -28    3.75    8.24
  11   0 -28   -7.40    9.11
 -11   0  28  -17.02    7.51
 -11   0  28    4.71   11.44
  11  -1 -28   -1.04    8.37
  11  -1 -28   -9.36    9.33
 -11   1  28   -9.46    7.32
 -11   1  28   14.03   11.39
  11  -2 -28    4.92    8.21
  11  -2 -28    0.57    8.33
 -11   2  28   24.99   11.80
 -11   2  28  -12.19    7.96
  11  -3 -28    2.86    8.53
  11  -3 -28    0.57    9.83
 -11   3  28    0.39    7.84
 -11   3  28   10.30   12.08
  11  -4 -28   -9.48    8.86
  11  -4 -28  -16.40    9.58
 -11   4  28    6.57    9.13
 -11   4  28    0.29   12.26
  11  -5 -28   10.09    8.66
  11  -5 -28    9.61   10.73
 -11   5  28    0.30   12.53
 -11   5  28    2.58    9.48
   4 -12 -28    0.52   10.61
  -4  12  28   -1.44   18.09
   3 -12 -28    0.37    6.60
  12   0 -28  -17.57    8.93
  12   0 -28   -2.90    8.96
 -12   0  28    4.52    7.58
 -12   0  28   -5.50   11.78
  12  -1 -28   -0.36    8.55
  12  -1 -28    7.86    9.20
 -12   1  28  -15.04   12.20
 -12   1  28    0.40    7.98
  12  -2 -28   -0.62   10.24
  12  -2 -28  -20.31    8.98
 -12   2  28   -7.30   12.73
 -12   2  28   -5.36    8.66
  12  -3 -28   -4.51    9.15
  12  -3 -28  -10.22   10.02
 -12   3  28  -29.46   13.05
 -12   3  28   -7.31    9.27
  12  -4 -28    0.38    8.42
 -12   4  28   -8.68   12.60
  13   0 -28   -1.87    8.84
  13  -1 -28   -6.09    9.10
 -13   1  28  -23.09   13.45
 -13   1  28    2.60    8.62
  13  -2 -28    0.39    8.99
 -13   2  28   14.52   13.55
   3   1 -29   -3.86    5.03
   3   0 -29    6.29    5.22
   3  -1 -29   -1.33    5.16
   3  -2 -29  -10.98    5.45
  -3   2  29   -3.91   11.49
   3  -3 -29    3.78    4.80
  -3   3  29   -4.35   11.22
   3  -4 -29   -4.92    5.36
  -3   4  29   -3.80   12.07
   4   1 -29   -0.27    5.07
  -4  -1  29   -9.94   10.92
   4   0 -29    3.18    7.63
   4   0 -29   -1.91    4.99
  -4   0  29   -1.19   10.79
   4  -1 -29   -8.22    7.94
   4  -1 -29   -2.49    5.34
  -4   1  29  -18.34   11.60
   4  -2 -29   15.11    6.53
   4  -2 -29   24.35    9.06
  -4   2  29   10.37   12.51
   4  -3 -29   10.01    8.15
   4  -3 -29   -4.81    5.23
  -4   3  29    5.45   11.75
   4  -4 -29    0.29    5.69
   4  -4 -29  -30.81    8.12
  -4   4  29   -1.66   12.41
   4  -5 -29   -8.76    4.74
   4  -5 -29    0.39    7.99
  -4   5  29    3.11   12.42
   3  -5 -29   -1.11    5.26
  -3   5  29   -7.88   12.29
   5   1 -29   -2.03    5.68
   5   1 -29   -0.34    7.16
  -5  -1  29    5.28   10.53
   5   0 -29   12.34    7.58
   5   0 -29    1.16    5.17
  -5   0  29    4.87   10.94
   5  -1 -29    0.30    5.75
   5  -1 -29   -3.15    7.81
  -5   1  29   -4.35   11.04
   5  -2 -29  -14.68    8.02
   5  -2 -29   -4.51    5.16
  -5   2  29   20.34   11.32
   5  -3 -29    2.13    5.96
   5  -3 -29   24.44    8.48
  -5   3  29   -4.01   11.83
   5  -4 -29    1.86    5.62
   5  -4 -29    3.75    8.01
  -5   4  29   -0.96   11.93
   5  -5 -29    8.53    8.44
   5  -5 -29    0.32    5.84
  -5   5  29    5.67   12.67
   5  -6 -29   -4.02    8.67
   5  -6 -29    0.32    5.93
  -5   6  29  -15.68   12.93
   4  -6 -29    2.03    8.92
   4  -6 -29  -13.31    5.79
  -4   6  29  -12.61   13.36
   3  -6 -29   20.26    6.11
  -3   6  29    0.37   12.50
   6   1 -29   -4.37    5.95
   6   1 -29    6.31    7.50
  -6  -1  29   -9.21   10.18
  -6  -1  29    0.27    5.98
   6   0 -29    1.36    7.39
   6   0 -29   -1.62    6.32
  -6   0  29   -1.09   10.87
  -6   0  29    2.83    6.26
   6  -1 -29  -12.56    6.20
   6  -1 -29   13.85    7.99
  -6   1  29    1.12   10.98
  -6   1  29    0.30    6.60
   6  -2 -29   26.90    8.99
   6  -2 -29   32.47    7.60
  -6   2  29    1.56    7.75
  -6   2  29   -5.43   11.83
   6  -3 -29    1.09    8.01
   6  -3 -29   -9.00    6.67
  -6   3  29    5.91   11.63
  -6   3  29   -5.54    7.03
   6  -4 -29    2.61    8.41
   6  -4 -29  -13.91    6.79
  -6   4  29    0.31   12.00
  -6   4  29  -24.11    8.58
   6  -5 -29    3.81    6.63
   6  -5 -29   -2.70    8.86
  -6   5  29   -5.11   12.34
  -6   5  29    0.35    7.90
   6  -6 -29    4.61    6.85
   6  -6 -29    5.61    9.29
  -6   6  29   -1.85    8.26
  -6   6  29   -1.34   12.91
   6  -7 -29   -7.67    7.70
   6  -7 -29   -6.70   10.24
  -6   7  29    0.39    9.27
  -6   7  29   -0.36   14.58
   5  -7 -29  -11.95    7.17
   5  -7 -29    2.52    9.53
  -5   7  29  -23.47   14.21
   4  -7 -29    5.92    6.11
   4  -7 -29    2.12    8.52
  -4   7  29    7.56   13.74
   3  -7 -29   -6.26    5.56
  -3   7  29    9.38   13.61
   7   1 -29    6.80    6.63
   7   1 -29   -0.33    7.77
   7   0 -29   -1.77    6.36
   7   0 -29   -0.34    7.40
  -7   0  29    9.75   10.32
  -7   0  29   -7.87    6.85
   7  -1 -29   26.34    8.13
   7  -1 -29    7.78    7.07
  -7   1  29   -5.66    7.30
  -7   1  29   19.64   11.55
   7  -2 -29   -0.35    7.53
   7  -2 -29   -1.81    6.56
  -7   2  29    7.90    7.67
  -7   2  29   -8.73   11.40
   7  -3 -29    0.37    6.52
   7  -3 -29    0.36    7.68
  -7   3  29    3.44    7.95
  -7   3  29    7.59   12.11
   7  -4 -29    0.38    6.47
   7  -4 -29    0.37    8.04
  -7   4  29  -12.17    7.94
  -7   4  29   17.26   12.28
   7  -5 -29    0.38    9.27
   7  -5 -29  -12.64    7.42
  -7   5  29   -6.72    8.33
  -7   5  29   -0.32   13.05
   7  -6 -29    0.39    7.54
   7  -6 -29  -11.21    9.49
  -7   6  29    0.39    9.30
  -7   6  29    9.55   14.39
   7  -7 -29   -0.42    9.20
   7  -7 -29    0.40    6.42
  -7   7  29    0.41    8.69
  -7   7  29   -2.42   14.27
   7  -8 -29    6.60   10.45
  -7   8  29   -1.10   15.01
   6  -8 -29    0.44    9.74
  -6   8  29  -13.56   14.53
   5  -8 -29   -9.75   10.37
  -5   8  29  -15.85   16.17
   4  -8 -29   37.79   14.17
  -4   8  29   10.86   17.99
   3  -8 -29    0.31    6.29
  -3   8  29   21.39   14.28
   8   0 -29  -11.03    7.13
   8   0 -29  -12.68    8.19
  -8   0  29    2.88   10.48
  -8   0  29   -0.62    7.05
   8  -1 -29    0.34    7.53
   8  -1 -29    0.39    7.39
  -8   1  29    0.97    7.20
  -8   1  29   18.19   11.19
   8  -2 -29   -3.48    7.72
   8  -2 -29   -5.26    7.19
  -8   2  29    6.44    7.93
  -8   2  29    4.77   11.39
   8  -3 -29    1.65    7.69
   8  -3 -29  -14.24    8.66
  -8   3  29    7.81    7.80
  -8   3  29  -12.21   11.79
   8  -4 -29   39.70   14.50
   8  -4 -29   85.79   15.20
  -8   4  29   73.39   18.21
   8  -5 -29   -0.38    9.26
   8  -5 -29    0.43    8.40
  -8   5  29    0.39    9.43
   8  -6 -29    0.44    8.00
   8  -6 -29   -8.59    9.25
  -8   6  29    5.23   12.95
  -8   6  29    2.03    8.80
   8  -7 -29   -0.46    8.16
   8  -7 -29    3.66    9.55
  -8   7  29    0.42    9.59
  -8   7  29  -18.17   13.72
   8  -8 -29   -0.44   10.23
  -8   8  29   -0.36   14.77
   7  -9 -29    2.79   11.05
  -7   9  29    1.96   15.68
   6  -9 -29   -7.00   10.60
   6  -9 -29    0.41    7.49
  -6   9  29    0.43   10.06
  -6   9  29    9.58   15.83
   5  -9 -29   22.94    7.22
   5  -9 -29  -12.13   10.63
  -5   9  29  -13.92   15.29
  -5   9  29  -15.82    9.83
   4  -9 -29    0.68    6.65
   4  -9 -29    0.47   10.21
  -4   9  29   16.17   15.33
   3  -9 -29  -17.63    7.55
  -3   9  29  -54.68   17.32
   9   0 -29  286.51   65.17
  -9   0  29  300.98   66.69
   9  -1 -29  641.86  146.12
  -9   1  29  544.12  157.30
   9  -2 -29  -40.19   10.20
  -9   2  29   18.12    9.40
  -9   2  29   17.51   14.59
   9  -3 -29  -25.55   10.50
   9  -3 -29  -18.81   10.44
  -9   3  29  -30.43   14.13
   9  -4 -29   27.58    9.27
   9  -4 -29    0.74    8.70
  -9   4  29    0.78    8.35
  -9   4  29    8.92   12.68
   9  -5 -29   -7.55    8.72
   9  -5 -29    0.38    8.73
  -9   5  29    4.63   12.84
  -9   5  29    6.11    9.14
   9  -6 -29   -2.37    9.33
   9  -6 -29    9.69    8.57
  -9   6  29    0.43    9.85
  -9   6  29   -8.83   13.25
   9  -7 -29  -10.68    9.71
  -9   7  29   -4.45   14.46
   5 -10 -29    6.39    7.16
   5 -10 -29    0.49   10.04
  -5  10  29   -4.50    9.51
  -5  10  29  -21.22   17.05
   4 -10 -29   -8.05    6.91
   4 -10 -29    0.50   10.57
  -4  10  29   13.99   16.55
   3 -10 -29    5.48    6.15
  -3  10  29  -11.48   16.29
  10   0 -29   -4.44    8.49
  10   0 -29    1.05    8.28
 -10   0  29   -5.02    7.03
 -10   0  29   -1.34   11.63
  10  -1 -29    0.51    8.84
  10  -1 -29  -11.02    8.15
 -10   1  29   -1.94   11.63
 -10   1  29   -2.13    7.54
  10  -2 -29  -11.57    8.81
  10  -2 -29    0.53    9.49
 -10   2  29    9.42   12.56
 -10   2  29    7.47    8.36
  10  -3 -29    6.26    8.64
  10  -3 -29   18.45    9.13
 -10   3  29   -5.82    8.53
 -10   3  29   10.90   12.54
  10  -4 -29    0.38    8.82
  10  -4 -29    2.16    9.56
 -10   4  29  -18.55   13.23
 -10   4  29  -21.11    8.58
  10  -5 -29  -10.80    8.94
  10  -5 -29   22.68   10.59
 -10   5  29   -0.42    9.05
 -10   5  29    2.21   12.61
  10  -6 -29    0.79    9.37
 -10   6  29    4.92   13.54
   4 -11 -29    0.52   11.18
  -4  11  29  -15.33   17.35
   3 -11 -29    4.76    7.06
  11   0 -29   -2.54    8.60
  11   0 -29    4.41    9.21
 -11   0  29    2.50   12.11
 -11   0  29    2.87    7.55
  11  -1 -29  -11.07    9.05
  11  -1 -29  -23.61    9.70
 -11   1  29   -1.51    8.24
 -11   1  29   -9.49   12.37
  11  -2 -29    9.31   10.11
  11  -2 -29  -17.09    8.96
 -11   2  29   11.85   12.88
 -11   2  29    0.39    8.54
  11  -3 -29    6.09    8.97
  11  -3 -29    5.39   10.03
 -11   3  29    6.60    8.85
 -11   3  29  -10.07   12.96
  11  -4 -29   15.92    9.35
 -11   4  29   18.26   13.35
 -11   4  29    0.43    9.50
  12   0 -29   13.86    9.92
  12  -1 -29   -3.82    9.28
  12  -1 -29    3.15    9.98
 -12   1  29   17.80   13.11
 -12   1  29    0.82    8.34
  12  -2 -29  -11.64    9.36
  12  -2 -29  -15.55   11.14
 -12   2  29   -6.00    9.26
 -12   2  29   -7.77   13.32
  12  -3 -29    0.40    9.23
 -12   3  29    0.32   13.50
  13  -1 -29    8.44   10.98
 -13   1  29   40.33   15.13
   3   1 -30   10.37    5.78
   3   0 -30   -7.01    5.63
   3  -1 -30   -5.39    5.42
   3  -2 -30    0.29    5.25
   3  -3 -30    0.29    5.45
   3  -4 -30    5.84    5.78
  -3   4  30   -6.23   12.39
   4   1 -30    5.47    5.43
  -4  -1  30    4.96   11.09
   4   0 -30   -4.37    5.31
  -4   0  30    3.82   11.34
   4  -1 -30    0.38    8.85
   4  -1 -30    0.59    5.40
  -4   1  30   -4.90   11.95
   4  -2 -30    0.39    8.47
   4  -2 -30    2.39    5.11
  -4   2  30    7.69   11.98
   4  -3 -30   -2.12    5.53
   4  -3 -30    1.59    8.16
  -4   3  30    3.79   12.68
   4  -4 -30    4.60    5.76
   4  -4 -30   -8.14    8.38
  -4   4  30   -9.62   13.29
   4  -5 -30    0.93    5.53
   4  -5 -30    0.42    8.49
  -4   5  30   11.48   13.41
   3  -5 -30  -14.21    6.09
  -3   5  30    4.18   12.89
   5   1 -30   -6.12    7.97
   5   1 -30   -3.40    6.11
  -5  -1  30   16.35    6.59
   5   0 -30    9.31    6.12
   5   0 -30   -0.37    8.12
  -5   0  30  -21.36   11.50
   5  -1 -30    7.85    8.15
   5  -1 -30    0.32    6.22
  -5   1  30   -2.52   11.46
   5  -2 -30   13.82    6.38
   5  -2 -30   -5.35    8.62
  -5   2  30   -3.89   12.15
   5  -3 -30    7.04    8.80
   5  -3 -30  -15.60    6.38
  -5   3  30   -1.65   12.12
   5  -4 -30    0.33    6.25
   5  -4 -30    2.41    8.29
  -5   4  30   -1.37   12.54
   5  -5 -30   -5.37    6.80
   5  -5 -30    1.25    8.79
  -5   5  30    0.36   13.55
   5  -6 -30   31.87   16.44
   5  -6 -30   63.93   13.40
  -5   6  30   66.85   19.96
   4  -6 -30   -7.39    9.52
   4  -6 -30   -9.35    6.50
  -4   6  30   -7.73   13.63
   3  -6 -30   -4.94    6.17
  -3   6  30   -0.40   13.15
   6   1 -30    9.63    6.67
   6   0 -30  -10.19    8.14
   6   0 -30   -1.72    6.22
  -6   0  30   -8.42    6.78
  -6   0  30   40.47   11.75
   6  -1 -30    5.22    8.31
   6  -1 -30   10.63    6.82
  -6   1  30   21.02   11.83
  -6   1  30  -11.71    7.12
   6  -2 -30  -17.16    8.51
   6  -2 -30    0.35    6.64
  -6   2  30   -8.06   12.22
  -6   2  30   -0.33    7.05
   6  -3 -30    5.47    8.83
   6  -3 -30    0.35    6.70
  -6   3  30  -12.51   12.67
  -6   3  30    1.39    8.27
   6  -4 -30    1.60    8.82
   6  -4 -30    7.93    7.49
  -6   4  30   -0.36    8.16
  -6   4  30  -15.62   12.98
   6  -5 -30   63.95   14.95
   6  -5 -30   31.95   12.54
  -6   5  30    0.38   13.50
  -6   5  30   83.86   19.07
   6  -6 -30   -4.51    7.35
   6  -6 -30   -9.90    9.92
  -6   6  30  -29.45    9.68
  -6   6  30    0.36   13.84
   6  -7 -30    3.86    7.82
   6  -7 -30   -5.84   10.14
  -6   7  30   -0.41    9.13
  -6   7  30    3.81   15.12
   5  -7 -30    0.36    7.22
   5  -7 -30    7.18    9.90
  -5   7  30    8.32   15.11
  -4   7  30   94.81   22.22
   7   0 -30   11.35    8.49
   7   0 -30    5.63    6.83
  -7   0  30  -23.06    7.42
  -7   0  30    5.14   11.65
   7  -1 -30   -4.84    8.67
   7  -1 -30  -16.51    7.31
  -7   1  30    3.54   11.63
  -7   1  30    0.33    7.74
   7  -2 -30  -28.59    9.99
   7  -2 -30  -11.89    8.30
  -7   2  30  -19.24   12.76
  -7   2  30  -10.81    8.57
   7  -3 -30    2.34    7.95
   7  -4 -30   -6.77    8.75
  -7   4  30   26.22   10.57
  -7   4  30   20.65   16.00
   7  -5 -30    0.41    9.31
   7  -5 -30    4.47    7.78
  -7   5  30   -4.43   13.51
  -7   5  30    0.40    9.04
   7  -6 -30   -0.42    8.17
   7  -6 -30    4.29    9.70
  -7   6  30  -13.19   14.09
  -7   6  30   -3.74    9.64
   7  -7 -30   13.00   10.14
   7  -7 -30   22.67    8.47
  -7   7  30   -3.74   15.31
  -7   7  30   -6.10   10.02
   7  -8 -30    0.47   10.42
  -7   8  30    2.76   15.85
   6  -8 -30    7.06   11.25
  -6   8  30   44.50   16.65
   5  -8 -30   -0.47   10.69
  -5   8  30   -0.42   16.54
   4  -8 -30   10.93   10.10
  -4   8  30   12.37   16.06
  -3   8  30  -13.05   15.44
  -8   1  30  134.16   28.10
  -8   1  30   70.97   32.55
   8  -3 -30   -7.00    8.15
   8  -3 -30    2.33    9.26
  -8   3  30    0.75    8.55
  -8   3  30  -21.37   12.71
   8  -4 -30    4.02    8.21
   8  -4 -30    4.78    9.22
  -8   4  30    6.29    9.20
  -8   4  30   -6.10   13.09
   8  -5 -30   -4.56    8.63
   8  -5 -30    3.28    9.14
  -8   5  30    3.70    9.23
  -8   5  30    6.01   13.41
   8  -6 -30    0.47    8.26
   8  -6 -30  -15.74    9.52
  -8   6  30    3.14   13.70
  -8   6  30    0.43    9.72
   8  -7 -30   -2.66   10.37
  -8   7  30  -18.65   15.46
   5  -9 -30    1.98   10.94
  -5   9  30  -19.01   16.93
   4  -9 -30    3.32    6.78
   4  -9 -30    9.99   10.52
  -4   9  30   -7.21   15.74
   9   0 -30    0.37    8.39
   9   0 -30    0.91    8.12
  -9   0  30  -13.24   11.54
  -9   0  30    0.34    7.27
   9  -1 -30   -7.57    8.59
   9  -1 -30  -18.44    9.04
  -9   1  30  -12.53   12.26
  -9   1  30   -0.36    7.84
   9  -2 -30    0.49    8.54
   9  -2 -30  -11.89    8.76
  -9   2  30    5.62    8.14
  -9   2  30   -0.30   12.68
   9  -3 -30    9.49    9.16
   9  -3 -30   14.10    9.24
  -9   3  30    0.39    8.94
  -9   3  30   13.07   13.19
   9  -4 -30   -3.41    8.81
   9  -4 -30    0.40    9.12
  -9   4  30    0.41    8.84
  -9   4  30   -2.90   13.47
   9  -5 -30    7.83    9.55
   9  -5 -30    0.50    9.23
  -9   5  30   15.04   13.62
  -9   5  30    0.43    9.72
   9  -6 -30    4.26    9.92
  -9   6  30    0.70   14.38
  10   0 -30    1.13    8.69
  10   0 -30    4.14    8.94
 -10   0  30  -24.15    7.75
  10  -1 -30    1.13    8.58
  10  -1 -30   15.64    9.53
 -10   1  30    1.79   12.73
 -10   1  30    0.74    7.68
  10  -2 -30    0.56    9.46
  10  -2 -30   -0.38    8.87
 -10   2  30   -4.00   12.68
 -10   2  30    0.39    8.32
  10  -3 -30    7.22    9.39
  10  -3 -30   -1.17    8.85
 -10   3  30   -4.09    8.67
 -10   3  30    3.50   13.02
  10  -4 -30   -0.40    9.11
  10  -4 -30    5.68   10.10
 -10   4  30  -12.47   14.01
 -10   4  30   -0.43    9.34
  11   0 -30   28.82   11.83
  11  -1 -30   10.10    9.39
  11  -1 -30    0.60    9.77
 -11   1  30    1.58    8.33
 -11   1  30   13.25   13.80
  11  -2 -30    1.83   10.47
  11  -2 -30    6.32    9.30
 -11   2  30    0.41    8.42
 -11   2  30   11.76   13.54
  11  -3 -30  -15.27    9.44
 -11   3  30   21.96   14.13
 -11   3  30    0.43    8.15
  12  -1 -30  -11.35    9.90
 -12   1  30    7.21    8.44
 -12   1  30   -9.95   13.74
   3   1 -31   -1.20    5.84
   3   0 -31   -3.97    5.93
   3  -1 -31    0.30    5.46
   3  -2 -31   -5.21    5.70
   3  -3 -31    0.31    5.84
   4   1 -31    0.31    5.78
   4   0 -31   -0.32    6.19
  -4   0  31   19.23   11.81
   4  -1 -31   -7.60    6.27
  -4   1  31   19.77   12.62
   4  -2 -31    3.52    5.99
  -4   2  31   12.49   12.51
   4  -3 -31    8.49    8.75
   4  -3 -31    6.47    5.72
  -4   3  31   -4.78   12.47
   4  -4 -31  -16.99    9.74
   4  -4 -31   -5.89    6.44
  -4   4  31  -19.41   13.57
  -4   5  31   71.20   23.44
   5   0 -31    0.34    6.18
   5   0 -31    0.79    8.38
  -5   0  31   17.04   12.38
   5  -1 -31    8.45    6.87
   5  -1 -31    8.42    8.90
  -5   1  31   12.17   12.88
   5  -2 -31    0.41    8.75
   5  -2 -31   -6.17    6.13
  -5   2  31    3.11   12.46
   5  -3 -31    0.35    6.89
   5  -3 -31  -30.55    9.79
  -5   3  31  -34.98   13.79
   5  -4 -31   51.70   16.63
  -5   4  31   79.88   22.89
   5  -5 -31   -5.77   10.77
   5  -5 -31  -23.62    7.92
  -5   5  31  -33.08   16.03
   5  -6 -31   -1.84    9.98
   5  -6 -31    2.19    7.09
  -5   6  31   22.49   14.85
   4  -6 -31   -0.34    7.00
   4  -6 -31   -6.04    9.88
  -4   6  31  -13.54   14.86
   6   0 -31   -8.05    7.89
  -6   0  31  -35.62   13.10
   6  -1 -31  -30.68    9.35
  -6   1  31  -13.47    8.50
   6  -2 -31   63.23   12.60
  -6   2  31   13.47   17.64
   6  -3 -31   -9.83    7.74
   6  -3 -31  -32.19   10.51
  -6   3  31   17.43   15.60
  -6   3  31   25.87    9.89
   6  -4 -31    4.29    9.52
   6  -4 -31  -20.73    7.91
  -6   4  31   -2.89   14.38
  -6   4  31  -20.80    9.15
   6  -5 -31    0.44    9.35
   6  -5 -31  -12.10    7.37
  -6   5  31   16.44    8.76
  -6   5  31   -3.76   14.52
   6  -6 -31    0.46   10.18
   6  -6 -31    0.40    8.03
  -6   6  31   -0.42    9.62
  -6   6  31   -7.86   15.19
   6  -7 -31   -0.48   10.88
  -6   7  31   -2.47   15.92
  -6   7  31    0.44   10.06
   5  -7 -31   -0.48   10.59
   5  -7 -31   12.70    7.38
  -5   7  31    7.16   15.46
  -5   7  31    0.44   10.40
   4  -7 -31    0.35    6.59
   4  -7 -31    0.48    9.86
  -4   7  31  -41.87   16.03
   7   0 -31    1.59    7.58
   7  -1 -31   -5.58    7.76
   7  -1 -31  -11.64    9.67
   7  -2 -31    5.74    9.29
   7  -2 -31    5.71    7.73
  -7   2  31  -12.74   13.17
  -7   2  31    4.07    8.44
   7  -3 -31   -0.42    7.69
  -7   3  31   -6.42   13.19
  -7   3  31    0.39    9.02
   7  -4 -31   -7.18    8.11
   7  -4 -31    1.30    9.62
  -7   4  31   -5.25   14.08
  -7   4  31    0.40    9.44
   7  -5 -31    1.29    8.29
   7  -5 -31    7.57    9.87
  -7   5  31    0.42    9.71
  -7   5  31  -18.24   14.66
   7  -6 -31    0.46    9.98
   7  -6 -31    0.44    8.46
  -7   6  31   23.59   14.92
  -7   6  31   -2.21    9.56
   5  -8 -31    0.50   10.79
  -5   8  31   10.21   16.78
   4  -8 -31  -22.22   11.49
  -4   8  31   20.89   16.36
   8   0 -31    5.54    7.83
   8   0 -31  -17.90    9.42
  -8   0  31    0.34    7.49
  -8   0  31   18.53   12.48
   8  -1 -31    2.85    9.20
   8  -1 -31    0.44    7.97
  -8   1  31    1.58   13.03
  -8   1  31    2.88    7.62
   8  -2 -31    3.63    8.04
   8  -2 -31   -0.41    9.05
  -8   2  31    0.38    8.28
  -8   2  31   33.95   14.35
   8  -3 -31   14.37    8.95
   8  -3 -31    0.42    9.52
  -8   3  31   15.19   13.79
  -8   3  31    0.40    9.11
   8  -4 -31   12.63    9.48
   8  -4 -31    2.37    9.02
  -8   4  31   -3.50   14.10
  -8   4  31   -0.42    9.77
   8  -5 -31   19.28    9.89
   8  -5 -31    0.48    8.90
  -8   5  31   -5.82   15.02
  -8   5  31    0.44   10.04
   9   0 -31    4.33    8.58
   9   0 -31   -5.61    9.53
   9  -1 -31  -27.34    9.95
   9  -1 -31    5.00    8.81
  -9   1  31   -0.37    8.13
  -9   1  31    6.65   12.34
   9  -2 -31    6.69    9.14
   9  -2 -31   -3.28    9.67
  -9   2  31   17.03   13.09
  -9   2  31    1.58    8.99
   9  -3 -31    1.68    9.38
   9  -3 -31   -1.01    9.08
  -9   3  31   -2.06    8.96
  -9   3  31    6.78   13.56
   9  -4 -31  -27.43   10.33
  -9   4  31    5.18    9.67
  -9   4  31    2.11   13.72
  10  -1 -31   -1.13    9.89
  10  -1 -31  -22.22    9.42
 -10   1  31   19.63   13.63
 -10   1  31   -0.39    8.52
  10  -2 -31    2.85    9.83
  10  -2 -31  -10.89    9.95
 -10   2  31    3.27    9.00
 -10   2  31   -2.66   13.69
  10  -3 -31    5.98    9.77
 -10   3  31   -0.34   14.21
  11  -1 -31    1.23   10.43
  11  -1 -31   15.01    9.94
 -11   1  31   18.35    9.11
 -11   1  31   -4.31   13.98
  11  -2 -31   -3.39   10.17
 -11   2  31  -14.04   15.01
   4   0 -32   -9.43    6.51
   4  -1 -32   -5.82    6.70
   4  -2 -32   56.51   14.55
  -4   2  32   44.69   19.67
   4  -3 -32  -25.94    8.60
  -4   3  32  -16.41   15.25
   4  -4 -32    0.35    6.63
  -4   4  32    5.25   14.43
   4  -5 -32    0.36    7.06
  -4   5  32  -12.58   14.66
   5   0 -32   -5.80    7.30
  -5   0  32  -18.17   13.19
   5  -1 -32   -7.95    7.27
   5  -2 -32    4.81    9.45
   5  -2 -32   -4.76    7.32
  -5   2  32  -17.07   14.63
   5  -3 -32    9.65    7.48
   5  -3 -32   -4.03   10.01
  -5   3  32    6.91   14.69
   5  -4 -32  -25.76   10.05
   5  -4 -32   -9.40    7.11
  -5   4  32   -8.75   14.41
   5  -5 -32   -0.47    9.74
   5  -5 -32    0.38    7.57
  -5   5  32   -9.51   15.34
   5  -6 -32    0.40    7.49
   5  -6 -32   -0.49   10.49
  -5   6  32   -6.90   16.31
   4  -6 -32    0.37    7.16
  -4   6  32  -10.06   15.51
   6   0 -32    4.17    8.96
   6   0 -32   -5.45    7.20
  -6   0  32    0.34    7.18
  -6   0  32   13.62   12.75
   6  -1 -32    9.73    7.20
   6  -1 -32   -2.56    9.45
  -6   1  32  -10.23   13.33
  -6   1  32   -2.51    7.94
   6  -2 -32   -9.12    7.71
   6  -2 -32   13.55    9.75
  -6   2  32  -17.70    8.56
  -6   2  32   -0.36   13.51
   6  -3 -32   15.24    9.93
   6  -3 -32    0.40    7.41
  -6   3  32    7.88    8.91
  -6   3  32   21.57   14.18
   6  -4 -32    0.46    9.97
   6  -4 -32   -2.45    7.71
  -6   4  32    0.82    8.88
  -6   4  32  -18.51   14.84
   6  -5 -32  -20.35    8.42
   6  -5 -32  -13.79   10.54
  -6   5  32    0.43   10.17
  -6   5  32    0.80   15.36
   6  -6 -32   -4.92   10.63
  -6   6  32   -0.42   15.82
   4  -7 -32    0.38    5.57
  -4   7  32  -26.09   16.56
   7   0 -32   -5.92    8.12
   7   0 -32   13.86    9.53
  -7   0  32   -3.53    7.68
   7  -1 -32    4.24    7.46
   7  -1 -32    0.43    9.35
  -7   1  32    0.68   13.49
  -7   1  32    0.37    8.00
   7  -2 -32    0.87    8.27
   7  -2 -32   23.41   10.39
  -7   2  32  -20.18   14.27
  -7   2  32    5.12    8.88
   7  -3 -32  -18.55    8.01
   7  -3 -32    1.81   10.19
  -7   3  32    3.29    9.70
  -7   3  32   -2.93   14.71
   7  -4 -32   -2.77    9.89
   7  -4 -32   -4.49    8.12
  -7   4  32    4.73    9.51
  -7   4  32    5.32   14.64
   7  -5 -32  -13.34   10.17
  -7   5  32    8.71   15.43
   8   0 -32   -4.96    8.46
   8  -1 -32   -7.90    9.75
   8  -1 -32   15.93    8.59
  -8   1  32  -10.68    8.50
  -8   1  32    3.75   13.68
   8  -2 -32  -34.69    9.34
   8  -2 -32   -9.36   10.55
  -8   2  32   15.88   14.76
  -8   2  32    5.64    8.94
   8  -3 -32    2.95    8.82
   8  -3 -32    0.46   10.11
  -8   3  32    0.42    9.59
  -8   3  32   19.02   14.60
   8  -4 -32  -20.11   10.80
  -8   4  32   14.40   15.17
   9  -1 -32    6.87    9.33
   9  -1 -32    8.76   10.06
  -9   1  32    4.73    8.82
  -9   1  32    0.34   14.28
   9  -2 -32   14.32   11.15
   9  -2 -32    3.81   10.75
  -9   2  32   16.72    9.87
  -9   2  32   29.24   15.05
   9  -3 -32  -24.23   10.76
  -9   3  32   -1.11   15.47
  10  -1 -32    9.33   10.34
  10  -1 -32    0.60   10.71
 -10   1  32    6.98   14.10
 -10   1  32   -5.74    8.55
  10  -2 -32   -3.17   10.32
 -10   2  32  -21.60   14.91
   4   0 -33   -0.72    6.72
   4  -1 -33    1.47    7.07
   4  -2 -33    0.37    6.55
   4  -3 -33    4.87    6.82
   4  -4 -33    5.30    7.42
   4  -5 -33   -0.38    7.71
  -4   5  33   -9.34   15.93
   5   0 -33    5.80    6.88
  -5   0  33   -7.33    8.68
  -5   0  33    4.44   13.47
   5  -1 -33   10.68    7.69
  -5   1  33   -4.60   13.87
   5  -2 -33   10.97    7.70
   5  -2 -33   -1.41   10.17
  -5   2  33    3.56   14.52
   5  -3 -33   -2.40   10.25
   5  -3 -33    0.40    7.68
  -5   3  33   26.51   15.41
   5  -4 -33    0.49   10.62
   5  -4 -33   -0.40    7.49
  -5   4  33    5.50   15.62
   5  -5 -33    0.42    7.87
   5  -5 -33   13.22   10.57
  -5   5  33   12.31   16.18
  -4   6  33   -6.96   16.13
   6   0 -33   -3.73    7.83
   6   0 -33   -6.22    9.79
   6  -1 -33    1.66    7.68
   6  -1 -33   13.22    9.83
  -6   1  33   -8.25   14.50
  -6   1  33    0.38    8.57
   6  -2 -33    8.46    8.33
   6  -2 -33    3.27   10.14
  -6   2  33   -4.41    9.15
  -6   2  33  -38.09   15.18
   6  -3 -33   -0.48   10.24
   6  -3 -33    2.58    8.73
  -6   3  33   -0.42    9.75
  -6   3  33   30.20   14.59
   6  -4 -33    6.97    8.61
   6  -4 -33   -8.35   10.04
  -6   4  33   14.02    9.97
  -6   4  33  -33.42   16.08
   7  -1 -33    1.39   10.30
   7  -1 -33   -6.31    8.40
  -7   1  33    5.19   14.32
  -7   1  33  -10.33    8.99
   7  -2 -33   16.51   10.83
   7  -2 -33    8.31    8.94
  -7   2  33   24.97   15.71
  -7   2  33   -8.80    9.49
   7  -3 -33    0.47    9.05
   7  -3 -33   -0.48   10.85
  -7   3  33  -13.14   15.19
  -7   3  33    0.88    9.77
   7  -4 -33   -8.94   11.06
  -7   4  33  -21.51   16.82
   8  -1 -33    0.99    9.12
   8  -1 -33    0.47   10.55
  -8   1  33  -28.02   14.74
  -8   1  33    0.40    8.90
   8  -2 -33    7.16    9.53
   8  -2 -33   -0.48   10.65
  -8   2  33   14.93   15.16
  -8   2  33   -2.99   10.03
   8  -3 -33  -25.06   12.42
  -8   3  33  -33.21   17.10
   9  -1 -33   10.61   10.08
   9  -1 -33   -0.96   10.63
  -9   1  33    2.08    9.28
  -9   1  33    2.56   15.37
   4   0 -34    0.77    7.34
   4  -1 -34   -2.74    7.34
   4  -2 -34   19.05    8.95
   5   0 -34   -6.18    7.56
   5  -1 -34   -6.76    7.95
  -5   1  34   -1.22   14.31
   5  -2 -34   -0.43    8.15
  -5   2  34    5.04   15.01
   5  -3 -34   10.44    8.15
  -5   3  34    7.83   15.29
  -5   4  34   -4.51   16.46
   6  -1 -34    5.00    9.00
   6  -1 -34    0.49    9.92
  -6   1  34   -1.21    8.98
  -6   1  34    6.84   15.26
   6  -2 -34    0.50   10.46
   6  -2 -34    0.45    8.51
  -6   2  34   -4.70    9.73
  -6   2  34  -17.95   16.01
   6  -3 -34    3.08   11.00
  -6   3  34  -13.85   15.93
   7  -1 -34    0.98   10.49
   7  -1 -34    9.11    9.19
  -7   1  34    8.81   16.03
  -7   1  34    0.42    9.33
   7  -2 -34    0.49    7.31
   7  -2 -34    1.52   10.60
  -7   2  34   13.51   16.13
  -7   2  34    2.23    9.80
   8  -1 -34    0.50   10.94
  -8   1  34    4.27    9.54
  -8   1  34    0.79   14.98
   5  -1 -35   25.69    9.12
  -5   1  35   -6.59   10.44
   5  -2 -35    0.46    7.37
  -5   2  35   -0.46   10.38
   6  -1 -35   -2.91    9.12
   6  -1 -35  -14.04   11.03
  -6   1  35   -2.16    9.78
  -6   1  35   26.11   15.59
   7  -1 -35   18.90   11.55
  -7   1  35    3.40   16.03
   0   0   0    0.00    0.00
;
_shelx_hkl_checksum              5330
_shelx_fab_checksum              46957
_shelx_fab_file
;
    0    2    0   -163.95      0.00
    1    2    0    308.98      0.00
    1    3    0     26.15      0.00
    2    3    0    142.94      0.00
    0    4    0     13.90      0.00
    1    4    0     55.68      0.00
    2    4    0     42.74      0.00
    3    4    0      9.14      0.00
    1    5    0    -56.51      0.00
    2    5    0     17.68      0.00
    3    5    0     10.97      0.00
    0    6    0     41.54      0.00
    1    6    0    -44.80      0.00
    2    6    0     72.37      0.00
    3    6    0     -0.60      0.00
    4    6    0      2.61      0.00
    1    7    0     13.80      0.00
    2    7    0    -26.09      0.00
    3    7    0     50.06      0.00
    4    7    0     29.30      0.00
    0    8    0     -4.95      0.00
    1    8    0    -12.27      0.00
    2    8    0     -8.61      0.00
    3    8    0    -12.18      0.00
    4    8    0      5.45      0.00
    5    8    0    -27.96      0.00
    1    9    0     19.36      0.00
    2    9    0     18.56      0.00
    3    9    0     -8.40      0.00
    4    9    0      8.23      0.00
    5    9    0      6.64      0.00
    0   10    0     27.08      0.00
    1   10    0    -15.26      0.00
    2   10    0     -7.99      0.00
    3   10    0     -8.33      0.00
    4   10    0      0.78      0.00
    5   10    0      5.44      0.00
    1   11    0      3.45      0.00
    2   11    0      5.60      0.00
    3   11    0      1.66      0.00
    4   11    0    -29.94      0.00
    5   11    0     -6.90      0.00
    6   11    0     10.07      0.00
    0   12    0    -27.68      0.00
    1   12    0     33.91      0.00
    2   12    0      2.58      0.00
    3   12    0      4.95      0.00
    4   12    0      3.53      0.00
    5   12    0     26.99      0.00
    6   12    0      5.21      0.00
    1   13    0    -12.48      0.00
    2   13    0     11.99      0.00
    3   13    0     15.62      0.00
    4   13    0     18.75      0.00
    5   13    0     11.68      0.00
    0   14    0     -6.79      0.00
    1   14    0    -18.12      0.00
    2   14    0     28.20      0.00
    3   14    0     -0.62      0.00
    4   14    0    -41.49      0.00
    5   14    0     24.19      0.00
    6   14    0    -18.82      0.00
    1   15    0     -7.59      0.00
    2   15    0     12.40      0.00
    3   15    0     -5.64      0.00
    4   15    0    -21.73      0.00
    5   15    0     -5.02      0.00
    6   15    0     22.72      0.00
    7   15    0    -21.52      0.00
    0   16    0     -7.48      0.00
    1   16    0    -53.32      0.00
    2   16    0     13.18      0.00
    3   16    0     22.84      0.00
    4   16    0     -4.07      0.00
    5   16    0     -1.90      0.00
    6   16    0    -17.30      0.00
    7   16    0     23.44      0.00
    1   17    0     78.37      0.00
    2   17    0    -33.00      0.00
    3   17    0    -18.70      0.00
    4   17    0    -12.18      0.00
    5   17    0     30.80      0.00
    6   17    0      4.32      0.00
    7   17    0    -27.04      0.00
    0   18    0   -218.04      0.00
    1   18    0   -103.77      0.00
    2   18    0   -114.70      0.00
    3   18    0      6.18      0.00
    4   18    0     28.63      0.00
    5   18    0     -4.23      0.00
    6   18    0     26.27      0.00
    7   18    0      5.83      0.00
    1   19    0    218.33      0.00
    2   19    0     81.49      0.00
    3   19    0    -10.77      0.00
    4   19    0    -13.46      0.00
    5   19    0    -13.38      0.00
    6   19    0     46.58      0.00
    7   19    0    -20.21      0.00
    0   20    0   -152.26      0.00
    1   20    0    -81.50      0.00
    2   20    0    -66.09      0.00
    3   20    0      3.19      0.00
    4   20    0    -24.88      0.00
    5   20    0    -33.97      0.00
    6   20    0    -18.84      0.00
    1    2    1     83.31      0.00
    0    3    1    -51.88      0.00
    1    3    1    159.72      0.00
    2    3    1     26.57      0.00
    1    4    1     15.64      0.00
    2    4    1     30.57      0.00
    3    4    1     29.75      0.00
    0    5    1      8.64      0.00
    1    5    1    -10.96      0.00
    2    5    1     34.68      0.00
    3    5    1     -2.49      0.00
    1    6    1     20.28      0.00
    2    6    1    -47.98      0.00
    3    6    1      3.05      0.00
    4    6    1     35.23      0.00
    0    7    1    -83.53      0.00
    1    7    1    -16.85      0.00
    2    7    1      7.23      0.00
    3    7    1     14.39      0.00
    4    7    1      9.04      0.00
    5    7    1    -26.76      0.00
    1    8    1      1.79      0.00
    2    8    1      1.74      0.00
    3    8    1      3.34      0.00
    4    8    1      8.14      0.00
    5    8    1     29.87      0.00
    0    9    1    -16.51      0.00
    1    9    1      4.60      0.00
    2    9    1     -8.43      0.00
    3    9    1      9.83      0.00
    4    9    1      6.30      0.00
    5    9    1     -0.77      0.00
    1   10    1      8.24      0.00
    2   10    1      1.52      0.00
    3   10    1     -4.55      0.00
    4   10    1      1.53      0.00
    5   10    1     -7.11      0.00
    6   10    1    -10.11      0.00
    0   11    1      9.72      0.00
    1   11    1      3.05      0.00
    2   11    1     -9.56      0.00
    3   11    1     -9.66      0.00
    4   11    1      4.70      0.00
    5   11    1     -4.80      0.00
    6   11    1     -5.69      0.00
    1   12    1    -28.34      0.00
    2   12    1    -29.83      0.00
    3   12    1      2.75      0.00
    4   12    1     -9.97      0.00
    5   12    1      5.91      0.00
    6   12    1     16.24      0.00
    0   13    1     21.89      0.00
    1   13    1     -0.95      0.00
    2   13    1     20.18      0.00
    3   13    1     11.86      0.00
    4   13    1     18.73      0.00
    5   13    1    -14.24      0.00
    1   14    1    -16.07      0.00
    2   14    1     18.61      0.00
    3   14    1      2.38      0.00
    4   14    1     19.55      0.00
    5   14    1      4.92      0.00
    6   14    1    -12.26      0.00
    7   14    1     15.31      0.00
    0   15    1     16.61      0.00
    1   15    1    -23.30      0.00
    2   15    1    -14.65      0.00
    3   15    1      5.61      0.00
    4   15    1     -5.65      0.00
    5   15    1    -16.23      0.00
    6   15    1     18.88      0.00
    7   15    1    -12.92      0.00
    1   16    1     -5.93      0.00
    2   16    1    -20.49      0.00
    3   16    1     -0.28      0.00
    4   16    1     -2.25      0.00
    5   16    1     -2.08      0.00
    6   16    1    -13.76      0.00
    7   16    1    -11.36      0.00
    0   17    1     99.70      0.00
    1   17    1     80.95      0.00
    2   17    1    -25.43      0.00
    3   17    1     13.74      0.00
    4   17    1      9.45      0.00
    5   17    1    -30.40      0.00
    6   17    1     -5.42      0.00
    7   17    1    -77.66      0.00
    1   18    1   -181.00      0.00
    2   18    1    -51.00      0.00
    3   18    1     16.82      0.00
    4   18    1      9.54      0.00
    5   18    1    -10.50      0.00
    6   18    1     25.29      0.00
    7   18    1      1.30      0.00
    0   19    1    126.21      0.00
    1   19    1    254.45      0.00
    2   19    1     52.37      0.00
    3   19    1    -11.30      0.00
    4   19    1    -12.19      0.00
    5   19    1     -2.16      0.00
    6   19    1     -9.85      0.00
    7   19    1    -16.94      0.00
    1   20    1    -88.12      0.00
    2   20    1    -82.52      0.00
    3   20    1      5.71      0.00
    4   20    1     16.17      0.00
    5   20    1    -16.11      0.00
    6   20    1    -12.27      0.00
    1    1    2   -630.53      0.00
    0    2    2     44.73      0.00
    1    2    2   -107.12      0.00
    2    2    2     72.81      0.00
    1    3    2      9.95      0.00
    2    3    2    -40.70      0.00
    3    3    2    -71.96      0.00
    0    4    2    -14.71      0.00
    1    4    2     49.14      0.00
    2    4    2    -33.74      0.00
    3    4    2    -20.39      0.00
    1    5    2      6.53      0.00
    2    5    2    -39.59      0.00
    3    5    2    -11.84      0.00
    0    6    2    -35.24      0.00
    1    6    2    -14.27      0.00
    2    6    2     28.62      0.00
    3    6    2    -12.35      0.00
    4    6    2      2.43      0.00
    1    7    2    -26.42      0.00
    2    7    2      9.97      0.00
    3    7    2     -3.78      0.00
    4    7    2     13.27      0.00
    0    8    2     -3.81      0.00
    1    8    2     -5.29      0.00
    2    8    2    -21.41      0.00
    3    8    2     -2.86      0.00
    4    8    2     -3.32      0.00
    5    8    2    -18.63      0.00
    1    9    2      8.50      0.00
    2    9    2     10.22      0.00
    3    9    2     -6.39      0.00
    4    9    2      7.38      0.00
    5    9    2     -6.54      0.00
    6    9    2     -4.61      0.00
    0   10    2      4.65      0.00
    1   10    2     -2.43      0.00
    2   10    2     -3.87      0.00
    3   10    2      3.21      0.00
    4   10    2     11.74      0.00
    5   10    2     11.12      0.00
    6   10    2    -16.72      0.00
    1   11    2      5.72      0.00
    2   11    2     -8.98      0.00
    3   11    2     -9.67      0.00
    4   11    2      4.04      0.00
    5   11    2    -13.20      0.00
    6   11    2      6.21      0.00
    0   12    2    -20.80      0.00
    1   12    2     11.77      0.00
    2   12    2      9.49      0.00
    3   12    2     -5.07      0.00
    4   12    2     -8.33      0.00
    5   12    2     19.84      0.00
    6   12    2    -10.15      0.00
    7   12    2      3.15      0.00
    1   13    2     17.31      0.00
    2   13    2     -0.70      0.00
    3   13    2     -7.65      0.00
    4   13    2    -20.45      0.00
    5   13    2    -10.58      0.00
    6   13    2      8.74      0.00
    0   14    2      6.17      0.00
    1   14    2    -35.42      0.00
    2   14    2     23.64      0.00
    3   14    2    -18.05      0.00
    4   14    2    -16.59      0.00
    5   14    2     21.80      0.00
    6   14    2     -3.02      0.00
    7   14    2     -2.52      0.00
    1   15    2     -0.46      0.00
    2   15    2    -12.01      0.00
    3   15    2    -12.52      0.00
    4   15    2     -3.75      0.00
    5   15    2     -9.43      0.00
    6   15    2     12.55      0.00
    7   15    2      0.28      0.00
    0   16    2     -1.61      0.00
    1   16    2     -4.39      0.00
    2   16    2      3.49      0.00
    3   16    2     17.91      0.00
    4   16    2     -1.42      0.00
    5   16    2     11.33      0.00
    6   16    2     -4.94      0.00
    7   16    2     15.01      0.00
    1   17    2     81.63      0.00
    2   17    2      0.64      0.00
    3   17    2      2.28      0.00
    4   17    2      7.57      0.00
    5   17    2     23.35      0.00
    6   17    2     -4.64      0.00
    7   17    2     40.64      0.00
    0   18    2    -60.57      0.00
    1   18    2    -32.15      0.00
    2   18    2    -19.62      0.00
    3   18    2     15.50      0.00
    4   18    2     -5.67      0.00
    5   18    2     -9.65      0.00
    6   18    2     58.96      0.00
    7   18    2     18.86      0.00
    1   19    2    224.97      0.00
    2   19    2    -25.22      0.00
    3   19    2     -5.02      0.00
    4   19    2      7.00      0.00
    5   19    2     19.72      0.00
    6   19    2     23.86      0.00
    7   19    2    -28.28      0.00
    0   20    2   -109.22      0.00
    1   20    2    -59.73      0.00
    2   20    2    -15.25      0.00
    3   20    2    -13.33      0.00
    4   20    2     18.21      0.00
    5   20    2    -43.39      0.00
    6   20    2    -14.96      0.00
    7   20    2      3.07      0.00
    0    1    3    127.33      0.00
    1    2    3   -106.16      0.00
    0    3    3    133.67      0.00
    1    3    3   -106.72      0.00
    2    3    3     -5.50      0.00
    1    4    3    -39.55      0.00
    2    4    3    -28.05      0.00
    3    4    3    -23.79      0.00
    0    5    3     -3.55      0.00
    1    5    3      8.08      0.00
    2    5    3    -82.83      0.00
    3    5    3     -7.55      0.00
    4    5    3     13.91      0.00
    1    6    3      9.27      0.00
    2    6    3     14.74      0.00
    3    6    3     -1.06      0.00
    4    6    3    -13.68      0.00
    5    6    3      7.53      0.00
    0    7    3     27.58      0.00
    1    7    3     18.04      0.00
    2    7    3     -4.81      0.00
    3    7    3     -8.41      0.00
    4    7    3     -9.47      0.00
    5    7    3    -13.58      0.00
    1    8    3     -5.30      0.00
    2    8    3      1.67      0.00
    3    8    3    -10.63      0.00
    4    8    3      1.92      0.00
    5    8    3    -21.24      0.00
    6    8    3      1.41      0.00
    0    9    3     18.35      0.00
    1    9    3    -10.05      0.00
    2    9    3     -3.45      0.00
    3    9    3     -1.13      0.00
    4    9    3     -0.79      0.00
    5    9    3      7.18      0.00
    6    9    3     20.38      0.00
    1   10    3      2.29      0.00
    2   10    3      0.54      0.00
    3   10    3     13.59      0.00
    4   10    3      6.44      0.00
    5   10    3      8.75      0.00
    6   10    3     -0.37      0.00
    0   11    3      1.64      0.00
    1   11    3     14.13      0.00
    2   11    3     -4.02      0.00
    3   11    3      5.31      0.00
    4   11    3    -11.59      0.00
    5   11    3    -10.40      0.00
    6   11    3     -2.26      0.00
    7   11    3      2.32      0.00
    1   12    3     11.06      0.00
    2   12    3     -4.70      0.00
    3   12    3      5.33      0.00
    4   12    3     14.32      0.00
    5   12    3     20.51      0.00
    6   12    3    -17.17      0.00
    7   12    3     10.93      0.00
    0   13    3     21.22      0.00
    1   13    3     -4.17      0.00
    2   13    3    -19.44      0.00
    3   13    3     -6.54      0.00
    4   13    3     -6.61      0.00
    5   13    3     -2.35      0.00
    6   13    3      0.74      0.00
    1   14    3    -37.26      0.00
    2   14    3     27.97      0.00
    3   14    3      4.41      0.00
    4   14    3     16.69      0.00
    5   14    3     -8.31      0.00
    6   14    3      1.95      0.00
    7   14    3    -13.24      0.00
    0   15    3    -10.92      0.00
    1   15    3    -15.31      0.00
    2   15    3    -11.60      0.00
    3   15    3     -9.25      0.00
    4   15    3     -5.81      0.00
    5   15    3     11.57      0.00
    6   15    3     23.02      0.00
    7   15    3     28.72      0.00
    1   16    3     10.07      0.00
    2   16    3     -0.37      0.00
    3   16    3     10.73      0.00
    4   16    3    -12.70      0.00
    5   16    3     -2.10      0.00
    6   16    3     13.48      0.00
    7   16    3    -26.07      0.00
    0   17    3     14.31      0.00
    1   17    3    -31.38      0.00
    2   17    3     13.71      0.00
    3   17    3     21.36      0.00
    4   17    3      5.54      0.00
    5   17    3      4.92      0.00
    6   17    3     -5.22      0.00
    7   17    3     -7.01      0.00
    1   18    3    -93.21      0.00
    2   18    3    -21.80      0.00
    3   18    3     25.79      0.00
    4   18    3     -2.33      0.00
    5   18    3     -8.64      0.00
    6   18    3     77.96      0.00
    7   18    3     -1.45      0.00
    0   19    3    169.75      0.00
    1   19    3    101.10      0.00
    2   19    3     -3.65      0.00
    3   19    3    -13.94      0.00
    4   19    3     -7.61      0.00
    5   19    3      4.67      0.00
    6   19    3     10.36      0.00
    7   19    3     10.21      0.00
    1   20    3    -49.25      0.00
    2   20    3     -8.69      0.00
    3   20    3    -19.09      0.00
    4   20    3      2.13      0.00
    5   20    3    -22.12      0.00
    6   20    3     -3.55      0.00
    0    0    4     27.37      0.00
    1    1    4      2.73      0.00
    0    2    4     75.16      0.00
    1    2    4     -6.74      0.00
    2    2    4    -18.62      0.00
    1    3    4     59.14      0.00
    2    3    4      9.90      0.00
    3    3    4    -41.97      0.00
    0    4    4    -86.56      0.00
    1    4    4    -32.87      0.00
    2    4    4     21.56      0.00
    3    4    4     17.19      0.00
    4    4    4      4.40      0.00
    1    5    4    -50.96      0.00
    2    5    4    -31.87      0.00
    3    5    4     26.38      0.00
    4    5    4     -9.25      0.00
    5    5    4     16.24      0.00
    0    6    4     28.70      0.00
    1    6    4     31.15      0.00
    2    6    4     -9.52      0.00
    3    6    4     15.13      0.00
    4    6    4      7.79      0.00
    5    6    4     -5.45      0.00
    1    7    4     -0.26      0.00
    2    7    4      8.00      0.00
    3    7    4    -14.14      0.00
    4    7    4      5.44      0.00
    5    7    4    -12.67      0.00
    6    7    4     -5.27      0.00
    0    8    4      5.67      0.00
    1    8    4     20.51      0.00
    2    8    4      6.24      0.00
    3    8    4     11.37      0.00
    4    8    4     -4.27      0.00
    5    8    4     -1.64      0.00
    6    8    4     -8.73      0.00
    1    9    4     12.86      0.00
    2    9    4    -14.90      0.00
    3    9    4      6.83      0.00
    4    9    4     -3.04      0.00
    5    9    4     -5.05      0.00
    6    9    4      2.25      0.00
    0   10    4     -4.89      0.00
    1   10    4     -0.86      0.00
    2   10    4      6.45      0.00
    3   10    4     -5.11      0.00
    4   10    4      4.30      0.00
    5   10    4      1.95      0.00
    6   10    4     -2.24      0.00
    7   10    4     -5.20      0.00
    1   11    4      3.22      0.00
    2   11    4      6.47      0.00
    3   11    4     -4.10      0.00
    4   11    4     -3.06      0.00
    5   11    4      1.00      0.00
    6   11    4     -5.33      0.00
    7   11    4    -11.72      0.00
    0   12    4    -15.33      0.00
    1   12    4     -3.46      0.00
    2   12    4     -1.05      0.00
    3   12    4      0.00      0.00
    4   12    4      4.69      0.00
    5   12    4    -33.61      0.00
    6   12    4      2.87      0.00
    7   12    4     -9.39      0.00
    1   13    4      1.21      0.00
    2   13    4     49.57      0.00
    3   13    4      1.25      0.00
    4   13    4     -1.19      0.00
    5   13    4     14.47      0.00
    6   13    4     13.86      0.00
    0   14    4     -0.82      0.00
    1   14    4      8.61      0.00
    2   14    4     11.09      0.00
    3   14    4     -4.53      0.00
    4   14    4     46.31      0.00
    5   14    4     16.58      0.00
    6   14    4     -4.82      0.00
    7   14    4      6.99      0.00
    8   14    4    -25.44      0.00
    1   15    4      7.49      0.00
    2   15    4     14.19      0.00
    3   15    4      0.06      0.00
    4   15    4     -8.23      0.00
    5   15    4     16.28      0.00
    6   15    4    -20.91      0.00
    7   15    4    -25.43      0.00
    8   15    4     16.35      0.00
    0   16    4    -25.51      0.00
    1   16    4     29.96      0.00
    2   16    4     23.82      0.00
    3   16    4     18.03      0.00
    4   16    4      0.80      0.00
    5   16    4      0.41      0.00
    6   16    4     21.15      0.00
    7   16    4     18.84      0.00
    1   17    4     -5.63      0.00
    2   17    4    -15.99      0.00
    3   17    4     -5.63      0.00
    4   17    4     -8.54      0.00
    5   17    4      4.75      0.00
    6   17    4    -24.73      0.00
    7   17    4    -13.38      0.00
    0   18    4    -68.86      0.00
    1   18    4    -10.24      0.00
    2   18    4    -45.21      0.00
    3   18    4      5.69      0.00
    4   18    4      4.21      0.00
    5   18    4    -20.25      0.00
    6   18    4    -60.37      0.00
    1   19    4     -2.25      0.00
    2   19    4    -28.78      0.00
    3   19    4     -0.21      0.00
    4   19    4     24.74      0.00
    5   19    4     -3.48      0.00
    6   19    4    -20.99      0.00
    0   20    4    -45.78      0.00
    1   20    4     19.01      0.00
    2   20    4    -10.47      0.00
    3   20    4     17.97      0.00
    4   20    4      0.93      0.00
    5   20    4      6.83      0.00
    6   20    4    -17.60      0.00
    0    1    5    -36.65      0.00
    1    2    5     82.72      0.00
    0    3    5     51.28      0.00
    1    3    5    -66.59      0.00
    2    3    5     61.95      0.00
    1    4    5     16.76      0.00
    2    4    5     55.70      0.00
    3    4    5    -56.21      0.00
    0    5    5     -2.60      0.00
    1    5    5      3.97      0.00
    2    5    5     33.10      0.00
    3    5    5     -7.29      0.00
    4    5    5     20.99      0.00
    1    6    5     26.63      0.00
    2    6    5      7.11      0.00
    3    6    5      4.58      0.00
    4    6    5      7.00      0.00
    5    6    5     32.12      0.00
    0    7    5     32.06      0.00
    1    7    5     13.68      0.00
    2    7    5      5.21      0.00
    3    7    5     12.85      0.00
    4    7    5     29.88      0.00
    5    7    5     -0.19      0.00
    6    7    5      3.59      0.00
    1    8    5      0.71      0.00
    2    8    5     11.18      0.00
    3    8    5    -15.99      0.00
    4    8    5    -25.91      0.00
    5    8    5      0.57      0.00
    6    8    5      9.73      0.00
    7    8    5     10.21      0.00
    0    9    5     -1.14      0.00
    1    9    5     -3.51      0.00
    2    9    5      9.58      0.00
    3    9    5    -17.01      0.00
    4    9    5      8.71      0.00
    5    9    5      1.96      0.00
    6    9    5     -4.52      0.00
    7    9    5      9.77      0.00
    1   10    5     -6.98      0.00
    2   10    5      2.87      0.00
    3   10    5      1.73      0.00
    4   10    5     -5.02      0.00
    5   10    5      4.52      0.00
    6   10    5     16.97      0.00
    7   10    5     11.50      0.00
    0   11    5    -19.77      0.00
    1   11    5     -1.39      0.00
    2   11    5      1.12      0.00
    3   11    5     14.24      0.00
    4   11    5    -24.56      0.00
    5   11    5      1.20      0.00
    6   11    5    -14.73      0.00
    7   11    5      6.80      0.00
    1   12    5     15.03      0.00
    2   12    5    -16.69      0.00
    3   12    5      2.80      0.00
    4   12    5      6.52      0.00
    5   12    5     -5.27      0.00
    6   12    5     26.75      0.00
    7   12    5     20.72      0.00
    8   12    5    -26.62      0.00
    0   13    5      5.02      0.00
    1   13    5     -9.19      0.00
    2   13    5    -14.95      0.00
    3   13    5    -12.69      0.00
    4   13    5    -12.98      0.00
    5   13    5    -14.42      0.00
    6   13    5      0.99      0.00
    7   13    5    -51.20      0.00
    1   14    5    -12.14      0.00
    2   14    5     -3.47      0.00
    3   14    5     -1.07      0.00
    4   14    5      4.71      0.00
    5   14    5     -6.84      0.00
    6   14    5     -9.28      0.00
    7   14    5     25.40      0.00
    0   15    5     -9.55      0.00
    1   15    5      0.15      0.00
    2   15    5    -17.76      0.00
    3   15    5      3.51      0.00
    4   15    5    -19.00      0.00
    5   15    5    -25.28      0.00
    6   15    5     10.02      0.00
    7   15    5     36.41      0.00
    1   16    5      9.63      0.00
    2   16    5      8.97      0.00
    3   16    5      2.80      0.00
    4   16    5      0.76      0.00
    5   16    5    -45.10      0.00
    6   16    5      1.78      0.00
    7   16    5    -10.92      0.00
    0   17    5    -12.30      0.00
    1   17    5     -4.65      0.00
    2   17    5     12.56      0.00
    3   17    5      9.16      0.00
    4   17    5      4.46      0.00
    5   17    5    -32.19      0.00
    6   17    5    -10.53      0.00
    1   18    5    -24.16      0.00
    2   18    5    -24.99      0.00
    3   18    5     11.36      0.00
    4   18    5      4.43      0.00
    5   18    5     -1.79      0.00
    6   18    5    -16.69      0.00
    0   19    5     19.17      0.00
    1   19    5     -7.07      0.00
    2   19    5      4.97      0.00
    3   19    5    -13.09      0.00
    4   19    5    -18.06      0.00
    5   19    5      7.88      0.00
    6   19    5      4.07      0.00
    1   20    5     -7.79      0.00
    2   20    5     16.71      0.00
    3   20    5    -17.70      0.00
    4   20    5     37.15      0.00
    5   20    5     26.70      0.00
    0    0    6    -89.99      0.00
    1    1    6     28.08      0.00
    0    2    6    -67.51      0.00
    1    2    6    -34.19      0.00
    2    2    6    -13.92      0.00
    1    3    6     63.60      0.00
    2    3    6    -54.24      0.00
    3    3    6     59.78      0.00
    0    4    6     59.42      0.00
    1    4    6    -62.38      0.00
    2    4    6     -0.59      0.00
    3    4    6     25.08      0.00
    4    4    6     33.60      0.00
    1    5    6    -23.55      0.00
    2    5    6     -9.30      0.00
    3    5    6     -3.93      0.00
    4    5    6     -2.10      0.00
    5    5    6     27.60      0.00
    0    6    6     39.12      0.00
    1    6    6      2.96      0.00
    2    6    6      4.61      0.00
    3    6    6     11.16      0.00
    4    6    6      0.09      0.00
    5    6    6    -11.63      0.00
    6    6    6     -5.34      0.00
    1    7    6     -1.11      0.00
    2    7    6     -0.25      0.00
    3    7    6     -3.10      0.00
    4    7    6     -6.10      0.00
    5    7    6    -15.27      0.00
    6    7    6     -0.31      0.00
    7    7    6    -13.10      0.00
    0    8    6     -5.73      0.00
    1    8    6      6.33      0.00
    2    8    6     -3.02      0.00
    3    8    6     -0.98      0.00
    4    8    6    -23.07      0.00
    5    8    6     -1.49      0.00
    6    8    6     -4.85      0.00
    7    8    6     -3.35      0.00
    1    9    6      1.33      0.00
    2    9    6     -8.52      0.00
    3    9    6     11.99      0.00
    4    9    6     -4.53      0.00
    5    9    6      3.80      0.00
    6    9    6     13.09      0.00
    7    9    6      9.70      0.00
    0   10    6     -0.32      0.00
    1   10    6     -6.81      0.00
    2   10    6      0.40      0.00
    3   10    6      2.14      0.00
    4   10    6     22.71      0.00
    5   10    6     -6.25      0.00
    6   10    6      5.02      0.00
    7   10    6     -7.04      0.00
    8   10    6     -3.59      0.00
    1   11    6    -14.51      0.00
    2   11    6      1.47      0.00
    3   11    6     12.59      0.00
    4   11    6    -12.31      0.00
    5   11    6      5.32      0.00
    6   11    6     -9.70      0.00
    7   11    6     -2.25      0.00
    8   11    6      8.58      0.00
    0   12    6      3.59      0.00
    1   12    6    -27.16      0.00
    2   12    6      1.51      0.00
    3   12    6     -3.06      0.00
    4   12    6      4.69      0.00
    5   12    6     10.58      0.00
    6   12    6      0.39      0.00
    7   12    6    -30.64      0.00
    8   12    6     23.01      0.00
    1   13    6     26.93      0.00
    2   13    6     35.72      0.00
    3   13    6      2.25      0.00
    4   13    6      4.05      0.00
    5   13    6    -37.07      0.00
    6   13    6    -16.09      0.00
    7   13    6    -24.13      0.00
    0   14    6    -22.28      0.00
    1   14    6    -18.15      0.00
    2   14    6      1.67      0.00
    3   14    6    -47.24      0.00
    4   14    6     -6.55      0.00
    5   14    6    -17.66      0.00
    6   14    6     14.67      0.00
    7   14    6     16.75      0.00
    1   15    6     -4.51      0.00
    2   15    6     15.90      0.00
    3   15    6    -12.25      0.00
    4   15    6    -21.23      0.00
    5   15    6     -7.03      0.00
    6   15    6      8.23      0.00
    7   15    6     36.92      0.00
    0   16    6     14.34      0.00
    1   16    6    -12.26      0.00
    2   16    6     14.11      0.00
    3   16    6     30.38      0.00
    4   16    6      6.74      0.00
    5   16    6      3.47      0.00
    6   16    6    -17.39      0.00
    7   16    6     -1.43      0.00
    1   17    6     10.27      0.00
    2   17    6     -4.53      0.00
    3   17    6     -7.63      0.00
    4   17    6    -14.14      0.00
    5   17    6     12.83      0.00
    6   17    6    -17.57      0.00
    7   17    6     10.44      0.00
    0   18    6     44.35      0.00
    1   18    6      7.44      0.00
    2   18    6     -4.73      0.00
    3   18    6    -23.52      0.00
    4   18    6      9.71      0.00
    5   18    6     59.89      0.00
    6   18    6      6.38      0.00
    1   19    6     -1.31      0.00
    2   19    6      0.26      0.00
    3   19    6     20.75      0.00
    4   19    6     -4.30      0.00
    5   19    6     26.29      0.00
    6   19    6    -12.24      0.00
    0   20    6    -14.15      0.00
    1   20    6     -7.12      0.00
    2   20    6     -0.02      0.00
    3   20    6      1.33      0.00
    4   20    6    -18.75      0.00
    0    1    7    -31.51      0.00
    1    2    7    -25.15      0.00
    0    3    7     25.17      0.00
    1    3    7    -54.58      0.00
    2    3    7    -72.11      0.00
    1    4    7      8.24      0.00
    2    4    7     30.40      0.00
    3    4    7    -10.45      0.00
    0    5    7    -78.04      0.00
    1    5    7     15.32      0.00
    2    5    7      5.09      0.00
    3    5    7      0.38      0.00
    4    5    7     12.68      0.00
    1    6    7     -3.50      0.00
    2    6    7      2.86      0.00
    3    6    7     -9.55      0.00
    4    6    7     -0.69      0.00
    5    6    7     -1.52      0.00
    0    7    7     19.62      0.00
    1    7    7     11.81      0.00
    2    7    7     -7.10      0.00
    3    7    7      3.29      0.00
    4    7    7     -9.34      0.00
    5    7    7      4.34      0.00
    6    7    7    -13.24      0.00
    1    8    7     -7.61      0.00
    2    8    7    -10.21      0.00
    3    8    7    -15.80      0.00
    4    8    7     -8.70      0.00
    5    8    7      5.94      0.00
    6    8    7      8.81      0.00
    7    8    7      7.42      0.00
    0    9    7    -14.89      0.00
    1    9    7     -5.55      0.00
    2    9    7     -5.64      0.00
    3    9    7     -5.25      0.00
    4    9    7      4.00      0.00
    5    9    7     -4.16      0.00
    6    9    7    -12.14      0.00
    7    9    7     -0.50      0.00
    8    9    7    -11.54      0.00
    1   10    7    -12.56      0.00
    2   10    7      2.85      0.00
    3   10    7     -1.28      0.00
    4   10    7      4.98      0.00
    5   10    7      9.90      0.00
    6   10    7     -4.57      0.00
    7   10    7      0.81      0.00
    8   10    7    -11.32      0.00
    0   11    7     14.58      0.00
    1   11    7     -5.95      0.00
    2   11    7     -5.78      0.00
    3   11    7     10.36      0.00
    4   11    7     -0.57      0.00
    5   11    7      1.50      0.00
    6   11    7     -6.81      0.00
    7   11    7     -7.64      0.00
    8   11    7     -7.27      0.00
    1   12    7    -16.43      0.00
    2   12    7    -18.72      0.00
    3   12    7     -2.82      0.00
    4   12    7     -2.81      0.00
    5   12    7      1.22      0.00
    6   12    7     21.36      0.00
    7   12    7     25.95      0.00
    8   12    7     -7.20      0.00
    0   13    7     31.96      0.00
    1   13    7     25.82      0.00
    2   13    7     -2.32      0.00
    3   13    7     -1.76      0.00
    4   13    7      8.04      0.00
    5   13    7     25.27      0.00
    6   13    7     22.98      0.00
    7   13    7     29.50      0.00
    1   14    7     24.28      0.00
    2   14    7    -54.88      0.00
    3   14    7     11.39      0.00
    4   14    7     15.09      0.00
    5   14    7     14.15      0.00
    6   14    7     11.27      0.00
    7   14    7      9.90      0.00
    0   15    7      0.52      0.00
    1   15    7    -10.60      0.00
    2   15    7     -5.64      0.00
    3   15    7      1.23      0.00
    4   15    7     -5.60      0.00
    5   15    7    -12.81      0.00
    6   15    7     -8.31      0.00
    7   15    7     -4.57      0.00
    1   16    7      5.95      0.00
    2   16    7     -1.43      0.00
    3   16    7     -0.13      0.00
    4   16    7     43.44      0.00
    5   16    7     10.22      0.00
    6   16    7     -6.84      0.00
    7   16    7      1.05      0.00
    0   17    7      2.66      0.00
    1   17    7      7.20      0.00
    2   17    7      3.64      0.00
    3   17    7     12.96      0.00
    4   17    7     11.48      0.00
    5   17    7    -13.31      0.00
    6   17    7    -18.30      0.00
    7   17    7     -3.08      0.00
    1   18    7      1.41      0.00
    2   18    7    -17.68      0.00
    3   18    7     39.84      0.00
    4   18    7    -13.22      0.00
    5   18    7    -12.03      0.00
    6   18    7    -10.85      0.00
    7   18    7      8.26      0.00
    0   19    7     -0.96      0.00
    1   19    7      8.92      0.00
    2   19    7      9.18      0.00
    3   19    7     -8.26      0.00
    4   19    7     18.75      0.00
    5   19    7     -3.48      0.00
    6   19    7      6.35      0.00
    1   20    7     26.08      0.00
    2   20    7     -4.90      0.00
    0    0    8    -60.90      0.00
    1    1    8     -6.61      0.00
    0    2    8     57.17      0.00
    1    2    8     45.90      0.00
    2    2    8     13.03      0.00
    1    3    8    -34.75      0.00
    2    3    8    -26.49      0.00
    3    3    8    -56.90      0.00
    0    4    8   -110.19      0.00
    1    4    8      6.08      0.00
    2    4    8    -19.50      0.00
    3    4    8      7.83      0.00
    4    4    8    -16.84      0.00
    1    5    8    -30.28      0.00
    2    5    8     16.64      0.00
    3    5    8      5.82      0.00
    4    5    8     12.36      0.00
    5    5    8      6.49      0.00
    0    6    8      2.42      0.00
    1    6    8      5.45      0.00
    2    6    8     23.34      0.00
    3    6    8     -3.50      0.00
    4    6    8    -12.04      0.00
    5    6    8     -6.57      0.00
    6    6    8    -13.68      0.00
    1    7    8      5.46      0.00
    2    7    8     -0.79      0.00
    3    7    8    -10.83      0.00
    4    7    8      2.39      0.00
    5    7    8      0.66      0.00
    6    7    8     13.98      0.00
    7    7    8     -1.57      0.00
    0    8    8      6.36      0.00
    1    8    8     -8.65      0.00
    2    8    8      2.30      0.00
    3    8    8     -0.17      0.00
    4    8    8     11.69      0.00
    5    8    8      6.94      0.00
    6    8    8     -3.09      0.00
    7    8    8      0.55      0.00
    8    8    8     -2.15      0.00
    1    9    8      1.43      0.00
    2    9    8      3.54      0.00
    3    9    8     -5.31      0.00
    4    9    8     -5.99      0.00
    5    9    8      5.63      0.00
    6    9    8    -10.27      0.00
    7    9    8     -0.93      0.00
    8    9    8      1.69      0.00
    0   10    8     -4.42      0.00
    1   10    8      4.04      0.00
    2   10    8     -5.69      0.00
    3   10    8     -3.06      0.00
    4   10    8     -4.21      0.00
    5   10    8      8.12      0.00
    6   10    8     -4.88      0.00
    7   10    8     10.54      0.00
    8   10    8      4.19      0.00
    1   11    8      1.84      0.00
    2   11    8      6.30      0.00
    3   11    8     -1.81      0.00
    4   11    8      3.26      0.00
    5   11    8     -0.54      0.00
    6   11    8      4.38      0.00
    7   11    8      3.82      0.00
    8   11    8     17.21      0.00
    0   12    8     -4.65      0.00
    1   12    8      8.32      0.00
    2   12    8     -7.99      0.00
    3   12    8     12.87      0.00
    4   12    8    -14.68      0.00
    5   12    8     -0.61      0.00
    6   12    8     -7.06      0.00
    7   12    8     -9.66      0.00
    8   12    8     13.67      0.00
    1   13    8     -6.15      0.00
    2   13    8     38.07      0.00
    3   13    8     -7.61      0.00
    4   13    8     -3.15      0.00
    5   13    8    -13.55      0.00
    6   13    8     14.18      0.00
    7   13    8    -12.84      0.00
    0   14    8    -74.96      0.00
    1   14    8     29.49      0.00
    2   14    8     24.19      0.00
    3   14    8     -0.86      0.00
    4   14    8     23.73      0.00
    5   14    8    -12.95      0.00
    6   14    8     -5.29      0.00
    7   14    8      1.95      0.00
    1   15    8     -6.41      0.00
    2   15    8     12.71      0.00
    3   15    8    -11.65      0.00
    4   15    8     -8.54      0.00
    5   15    8     20.81      0.00
    6   15    8     -2.99      0.00
    7   15    8     36.63      0.00
    0   16    8     -7.22      0.00
    1   16    8     16.72      0.00
    2   16    8     -0.80      0.00
    3   16    8     -0.09      0.00
    4   16    8      0.20      0.00
    5   16    8     10.06      0.00
    6   16    8     21.28      0.00
    7   16    8     18.49      0.00
    1   17    8      1.44      0.00
    2   17    8     14.90      0.00
    3   17    8    -16.78      0.00
    4   17    8    -13.35      0.00
    5   17    8     -1.61      0.00
    6   17    8     13.98      0.00
    7   17    8      7.38      0.00
    0   18    8      7.48      0.00
    1   18    8    -22.48      0.00
    2   18    8     31.24      0.00
    3   18    8     -2.75      0.00
    4   18    8    -82.25      0.00
    5   18    8      4.25      0.00
    6   18    8     23.25      0.00
    7   18    8     39.98      0.00
    1   19    8    -19.12      0.00
    2   19    8      4.44      0.00
    3   19    8    -19.34      0.00
    4   19    8     13.04      0.00
    5   19    8    -19.75      0.00
    6   19    8     -3.81      0.00
    0   20    8      6.74      0.00
    1   20    8     25.06      0.00
    2   20    8    -11.77      0.00
    0    1    9     -5.15      0.00
    1    2    9     -9.57      0.00
    0    3    9      2.85      0.00
    1    3    9    -13.39      0.00
    2    3    9     -2.03      0.00
    1    4    9     34.75      0.00
    2    4    9     17.27      0.00
    3    4    9      6.41      0.00
    0    5    9    -30.94      0.00
    1    5    9      4.09      0.00
    2    5    9      3.73      0.00
    3    5    9     12.45      0.00
    4    5    9     -0.99      0.00
    1    6    9     15.88      0.00
    2    6    9     -8.47      0.00
    3    6    9    -17.78      0.00
    4    6    9     -6.68      0.00
    5    6    9     -5.96      0.00
    0    7    9      4.16      0.00
    1    7    9    -10.18      0.00
    2    7    9      5.63      0.00
    3    7    9    -13.15      0.00
    4    7    9     -9.79      0.00
    5    7    9      2.30      0.00
    6    7    9     -3.94      0.00
    1    8    9     -7.00      0.00
    2    8    9    -19.44      0.00
    3    8    9     -0.79      0.00
    4    8    9      0.53      0.00
    5    8    9      8.57      0.00
    6    8    9      7.26      0.00
    7    8    9      6.71      0.00
    0    9    9     -5.11      0.00
    1    9    9      9.67      0.00
    2    9    9      4.91      0.00
    3    9    9     21.14      0.00
    4    9    9     14.24      0.00
    5    9    9      3.76      0.00
    6    9    9    -13.94      0.00
    7    9    9      3.34      0.00
    8    9    9    -11.46      0.00
    1   10    9      9.50      0.00
    2   10    9      9.98      0.00
    3   10    9      4.14      0.00
    4   10    9     -5.58      0.00
    5   10    9     -5.51      0.00
    6   10    9     -0.69      0.00
    7   10    9     -9.27      0.00
    8   10    9     -3.82      0.00
    0   11    9     14.23      0.00
    1   11    9      2.84      0.00
    2   11    9     -4.40      0.00
    3   11    9     -6.19      0.00
    4   11    9     11.06      0.00
    5   11    9     -0.10      0.00
    6   11    9     12.02      0.00
    7   11    9     14.55      0.00
    8   11    9      1.57      0.00
    1   12    9      1.75      0.00
    2   12    9    -14.22      0.00
    3   12    9    -10.24      0.00
    4   12    9      8.50      0.00
    5   12    9      5.71      0.00
    6   12    9    -13.27      0.00
    7   12    9     14.16      0.00
    8   12    9      1.56      0.00
    9   12    9    -29.24      0.00
    0   13    9      7.75      0.00
    1   13    9     16.83      0.00
    2   13    9     14.01      0.00
    3   13    9     30.71      0.00
    4   13    9      5.32      0.00
    5   13    9     22.53      0.00
    6   13    9    -12.27      0.00
    7   13    9      9.69      0.00
    8   13    9    -26.25      0.00
    1   14    9     14.06      0.00
    2   14    9    -36.76      0.00
    3   14    9      7.77      0.00
    4   14    9     -8.25      0.00
    5   14    9    -10.94      0.00
    6   14    9      3.05      0.00
    7   14    9    -16.04      0.00
    8   14    9      7.52      0.00
    0   15    9     -5.11      0.00
    1   15    9    -18.88      0.00
    2   15    9     -9.24      0.00
    3   15    9    -13.06      0.00
    4   15    9     -8.05      0.00
    5   15    9    -11.46      0.00
    6   15    9    -28.88      0.00
    7   15    9     -1.99      0.00
    8   15    9     37.49      0.00
    1   16    9    -11.33      0.00
    2   16    9     13.62      0.00
    3   16    9      1.85      0.00
    4   16    9      8.42      0.00
    5   16    9      9.01      0.00
    6   16    9     12.08      0.00
    7   16    9     15.43      0.00
    8   16    9     -3.61      0.00
    0   17    9    -16.80      0.00
    1   17    9      7.50      0.00
    2   17    9      2.64      0.00
    3   17    9     22.24      0.00
    4   17    9     -3.42      0.00
    5   17    9      9.82      0.00
    6   17    9     15.06      0.00
    7   17    9    -93.03      0.00
    1   18    9     -7.99      0.00
    2   18    9    -16.44      0.00
    3   18    9      5.84      0.00
    4   18    9     -5.04      0.00
    5   18    9     12.40      0.00
    6   18    9    -27.12      0.00
    7   18    9    -43.06      0.00
    0   19    9    -38.88      0.00
    1   19    9    -28.26      0.00
    2   19    9    -23.08      0.00
    3   19    9      0.31      0.00
    4   19    9     22.80      0.00
    5   19    9    -21.82      0.00
    6   19    9      1.51      0.00
    1   20    9    -36.84      0.00
    2   20    9      2.28      0.00
    1    1   10    -50.00      0.00
    0    2   10    108.58      0.00
    1    2   10     -7.45      0.00
    2    2   10    -27.20      0.00
    1    3   10      7.05      0.00
    2    3   10    -15.77      0.00
    3    3   10     15.31      0.00
    0    4   10     -0.37      0.00
    1    4   10     -9.42      0.00
    2    4   10     40.52      0.00
    3    4   10      6.38      0.00
    4    4   10     -9.32      0.00
    1    5   10     12.68      0.00
    2    5   10      1.93      0.00
    3    5   10     14.20      0.00
    4    5   10      5.96      0.00
    5    5   10     -3.04      0.00
    0    6   10     12.47      0.00
    1    6   10     -4.61      0.00
    2    6   10     -3.16      0.00
    3    6   10    -10.75      0.00
    4    6   10     -3.83      0.00
    5    6   10     -2.80      0.00
    6    6   10      2.05      0.00
    1    7   10     -1.01      0.00
    2    7   10      0.89      0.00
    3    7   10     -8.14      0.00
    4    7   10     -4.02      0.00
    5    7   10     11.14      0.00
    6    7   10      1.49      0.00
    7    7   10      5.19      0.00
    0    8   10      9.67      0.00
    1    8   10    -13.87      0.00
    2    8   10      6.35      0.00
    3    8   10      8.36      0.00
    4    8   10      3.09      0.00
    5    8   10      1.58      0.00
    6    8   10     15.66      0.00
    7    8   10    -11.69      0.00
    8    8   10     11.47      0.00
    1    9   10    -15.65      0.00
    2    9   10     17.21      0.00
    3    9   10      3.47      0.00
    4    9   10      3.55      0.00
    5    9   10      4.76      0.00
    6    9   10    -10.77      0.00
    7    9   10     -5.77      0.00
    8    9   10    -17.06      0.00
    9    9   10      9.41      0.00
    0   10   10      6.89      0.00
    1   10   10     -0.76      0.00
    2   10   10     -3.55      0.00
    3   10   10     -8.53      0.00
    4   10   10      4.39      0.00
    5   10   10     -7.45      0.00
    6   10   10     -5.19      0.00
    7   10   10      2.08      0.00
    8   10   10    -15.37      0.00
    1   11   10      3.94      0.00
    2   11   10    -12.16      0.00
    3   11   10     11.46      0.00
    4   11   10      8.04      0.00
    5   11   10      0.00      0.00
    6   11   10     -1.10      0.00
    7   11   10     10.31      0.00
    9   11   10    -67.50      0.00
    0   12   10     14.91      0.00
    1   12   10     -8.37      0.00
    2   12   10     -4.53      0.00
    3   12   10      4.20      0.00
    4   12   10     -4.73      0.00
    5   12   10     -7.99      0.00
    6   12   10    -16.19      0.00
    7   12   10    -10.69      0.00
    8   12   10     -4.61      0.00
    9   12   10    -12.48      0.00
    1   13   10      4.38      0.00
    2   13   10    -19.55      0.00
    3   13   10    -11.74      0.00
    4   13   10    -61.95      0.00
    5   13   10      2.07      0.00
    6   13   10     19.13      0.00
    7   13   10      9.94      0.00
    8   13   10     -5.66      0.00
    9   13   10     21.21      0.00
    0   14   10     12.64      0.00
    1   14   10      1.24      0.00
    2   14   10     -1.05      0.00
    3   14   10    -19.73      0.00
    4   14   10      2.99      0.00
    5   14   10     15.50      0.00
    6   14   10      3.49      0.00
    7   14   10      3.40      0.00
    8   14   10      6.04      0.00
    1   15   10    -13.68      0.00
    2   15   10      0.62      0.00
    3   15   10      5.69      0.00
    4   15   10     22.90      0.00
    5   15   10    -19.71      0.00
    6   15   10      3.09      0.00
    7   15   10     13.09      0.00
    8   15   10     11.38      0.00
    0   16   10     54.93      0.00
    1   16   10     76.85      0.00
    2   16   10    -15.45      0.00
    3   16   10     -8.91      0.00
    4   16   10     -2.90      0.00
    5   16   10     14.48      0.00
    6   16   10     -3.58      0.00
    7   16   10      5.70      0.00
    8   16   10    -12.81      0.00
    1   17   10      5.24      0.00
    2   17   10    -18.64      0.00
    3   17   10      1.28      0.00
    4   17   10      4.53      0.00
    5   17   10    -23.45      0.00
    6   17   10     -1.94      0.00
    7   17   10      7.49      0.00
    8   17   10     -4.98      0.00
    0   18   10    -52.78      0.00
    1   18   10    -13.44      0.00
    2   18   10     90.09      0.00
    3   18   10     -7.41      0.00
    4   18   10    -21.20      0.00
    5   18   10     -4.65      0.00
    6   18   10    -24.94      0.00
    7   18   10     11.93      0.00
    8   18   10     33.08      0.00
    1   19   10     -4.41      0.00
    2   19   10    -13.76      0.00
    3   19   10    -23.91      0.00
    4   19   10     14.37      0.00
    5   19   10      3.79      0.00
    1   20   10      4.26      0.00
    0    1   11      3.34      0.00
    1    2   11     32.94      0.00
    0    3   11    -20.72      0.00
    1    3   11      3.28      0.00
    2    3   11     -1.58      0.00
    1    4   11      1.27      0.00
    2    4   11    -11.82      0.00
    3    4   11      1.78      0.00
    0    5   11      2.34      0.00
    1    5   11      3.00      0.00
    2    5   11     30.62      0.00
    3    5   11     12.50      0.00
    4    5   11     14.05      0.00
    1    6   11      6.29      0.00
    2    6   11     -0.26      0.00
    3    6   11     -0.54      0.00
    4    6   11    -10.92      0.00
    5    6   11      6.06      0.00
    0    7   11     -8.02      0.00
    1    7   11      1.11      0.00
    2    7   11     -6.05      0.00
    3    7   11      0.77      0.00
    4    7   11      2.56      0.00
    5    7   11     -5.43      0.00
    6    7   11     -3.68      0.00
    1    8   11      7.03      0.00
    2    8   11     -0.81      0.00
    3    8   11      1.80      0.00
    4    8   11      1.31      0.00
    5    8   11     12.62      0.00
    6    8   11     -0.50      0.00
    7    8   11     13.00      0.00
    0    9   11      7.24      0.00
    1    9   11      6.13      0.00
    2    9   11     -2.67      0.00
    3    9   11     -1.15      0.00
    4    9   11     -1.59      0.00
    5    9   11     -0.09      0.00
    6    9   11     -5.50      0.00
    7    9   11     -8.11      0.00
    8    9   11      0.68      0.00
    1   10   11      1.61      0.00
    2   10   11    -21.78      0.00
    3   10   11     -0.45      0.00
    4   10   11     -0.23      0.00
    5   10   11     -3.09      0.00
    6   10   11    -16.17      0.00
    7   10   11    -11.95      0.00
    8   10   11    -24.99      0.00
    9   10   11      5.17      0.00
    0   11   11     -5.76      0.00
    1   11   11      9.55      0.00
    2   11   11     10.38      0.00
    3   11   11     -1.46      0.00
    4   11   11      3.08      0.00
    5   11   11     -7.34      0.00
    6   11   11     -6.45      0.00
    7   11   11    -10.47      0.00
    8   11   11      9.57      0.00
    9   11   11     -9.22      0.00
   10   11   11      5.94      0.00
    1   12   11     18.19      0.00
    2   12   11      4.93      0.00
    3   12   11    -31.21      0.00
    4   12   11     -0.67      0.00
    5   12   11     17.05      0.00
    6   12   11    -11.35      0.00
    7   12   11     -4.53      0.00
    8   12   11    -13.62      0.00
    9   12   11     -9.66      0.00
   10   12   11     -6.47      0.00
    0   13   11      0.28      0.00
    1   13   11     -2.65      0.00
    2   13   11    -25.37      0.00
    3   13   11     53.08      0.00
    4   13   11     17.18      0.00
    5   13   11      2.43      0.00
    6   13   11     -6.55      0.00
    7   13   11     -1.38      0.00
    8   13   11     -4.35      0.00
    9   13   11     45.01      0.00
   10   13   11     -7.40      0.00
    1   14   11      5.14      0.00
    2   14   11     -3.99      0.00
    3   14   11     12.13      0.00
    4   14   11     15.68      0.00
    5   14   11    -10.78      0.00
    6   14   11     -7.79      0.00
    7   14   11    -15.78      0.00
    8   14   11    -33.06      0.00
    0   15   11     -3.39      0.00
    1   15   11     11.52      0.00
    2   15   11      4.03      0.00
    3   15   11    -12.60      0.00
    4   15   11      6.01      0.00
    5   15   11    -20.86      0.00
    6   15   11     -4.21      0.00
    7   15   11     14.75      0.00
    8   15   11    -12.28      0.00
    1   16   11    -21.72      0.00
    2   16   11    -21.13      0.00
    3   16   11      8.45      0.00
    4   16   11     13.45      0.00
    5   16   11      1.93      0.00
    6   16   11     -3.22      0.00
    7   16   11    -43.87      0.00
    8   16   11      0.20      0.00
    0   17   11     -9.79      0.00
    1   17   11     -8.00      0.00
    2   17   11     -9.56      0.00
    3   17   11      8.99      0.00
    4   17   11     -5.72      0.00
    5   17   11      0.07      0.00
    6   17   11     16.26      0.00
    7   17   11     -2.42      0.00
    8   17   11    -10.39      0.00
    1   18   11     28.21      0.00
    2   18   11    -19.83      0.00
    3   18   11    -16.75      0.00
    4   18   11     -5.95      0.00
    5   18   11      6.56      0.00
    6   18   11     42.63      0.00
    7   18   11     17.88      0.00
    8   18   11     39.53      0.00
    0   19   11     23.65      0.00
    1   19   11     29.22      0.00
    2   19   11      8.86      0.00
    3   19   11     -3.11      0.00
    4   19   11    -35.85      0.00
    5   19   11     -2.55      0.00
    1    1   12    -17.39      0.00
    0    2   12     12.43      0.00
    1    2   12     -5.50      0.00
    2    2   12     -0.40      0.00
    1    3   12      5.86      0.00
    2    3   12      0.13      0.00
    3    3   12    -12.72      0.00
    0    4   12    -18.14      0.00
    1    4   12     -4.66      0.00
    2    4   12     -7.47      0.00
    3    4   12     -5.41      0.00
    4    4   12     11.13      0.00
    1    5   12     -8.36      0.00
    2    5   12      4.84      0.00
    3    5   12     -2.92      0.00
    4    5   12    -11.31      0.00
    5    5   12    -11.43      0.00
    0    6   12     -7.90      0.00
    1    6   12      3.60      0.00
    2    6   12     -7.81      0.00
    3    6   12      1.71      0.00
    4    6   12      3.53      0.00
    5    6   12      4.99      0.00
    6    6   12    -15.33      0.00
    1    7   12     -1.10      0.00
    2    7   12     -9.42      0.00
    3    7   12     -7.23      0.00
    4    7   12     -0.46      0.00
    5    7   12     -4.99      0.00
    6    7   12     10.90      0.00
    7    7   12     19.18      0.00
    0    8   12      0.61      0.00
    1    8   12      1.18      0.00
    2    8   12      2.83      0.00
    3    8   12      0.02      0.00
    4    8   12     -1.94      0.00
    5    8   12      9.98      0.00
    6    8   12     -4.95      0.00
    7    8   12     -8.76      0.00
    8    8   12     -3.94      0.00
    1    9   12      8.65      0.00
    2    9   12      5.34      0.00
    3    9   12     -5.32      0.00
    4    9   12     33.36      0.00
    5    9   12      0.30      0.00
    6    9   12      3.54      0.00
    7    9   12      1.63      0.00
    8    9   12      0.30      0.00
    9    9   12     -6.00      0.00
    0   10   12    -12.74      0.00
    1   10   12      6.23      0.00
    2   10   12      1.90      0.00
    3   10   12     -4.83      0.00
    4   10   12     -4.71      0.00
    5   10   12      3.01      0.00
    6   10   12     -5.39      0.00
    7   10   12    -10.46      0.00
    8   10   12      9.41      0.00
    9   10   12      1.71      0.00
   10   10   12     13.36      0.00
    1   11   12      9.10      0.00
    2   11   12      1.56      0.00
    3   11   12     -9.08      0.00
    4   11   12    -18.29      0.00
    5   11   12     -5.08      0.00
    6   11   12     21.17      0.00
    7   11   12     11.29      0.00
    8   11   12     64.84      0.00
    9   11   12     -6.81      0.00
   10   11   12     -3.23      0.00
    0   12   12     -4.00      0.00
    1   12   12      3.64      0.00
    2   12   12     10.93      0.00
    3   12   12      2.01      0.00
    4   12   12     -2.39      0.00
    5   12   12    -55.14      0.00
    7   12   12    -15.04      0.00
    8   12   12     -9.66      0.00
    9   12   12     11.13      0.00
   10   12   12     14.92      0.00
    1   13   12    -34.77      0.00
    2   13   12    -15.30      0.00
    3   13   12    -13.86      0.00
    4   13   12    -22.27      0.00
    5   13   12     17.67      0.00
    6   13   12     17.12      0.00
    7   13   12     -0.03      0.00
    8   13   12    -11.66      0.00
    9   13   12    -14.87      0.00
   10   13   12    -10.71      0.00
    0   14   12    -28.66      0.00
    1   14   12      6.34      0.00
    2   14   12     20.56      0.00
    3   14   12      9.07      0.00
    4   14   12     28.42      0.00
    5   14   12      8.73      0.00
    6   14   12    -11.53      0.00
    7   14   12     -0.75      0.00
    8   14   12    -11.77      0.00
    9   14   12     -2.39      0.00
    1   15   12      3.69      0.00
    2   15   12    -21.31      0.00
    3   15   12     11.82      0.00
    4   15   12    -61.27      0.00
    5   15   12    -10.33      0.00
    6   15   12     20.12      0.00
    7   15   12     -9.00      0.00
    8   15   12      5.96      0.00
    0   16   12     20.19      0.00
    1   16   12      2.76      0.00
    2   16   12     -0.28      0.00
    3   16   12    -32.16      0.00
    4   16   12      5.22      0.00
    5   16   12      4.69      0.00
    6   16   12    -14.15      0.00
    7   16   12      0.68      0.00
    8   16   12     25.82      0.00
    1   17   12      3.71      0.00
    2   17   12     18.02      0.00
    3   17   12     -8.66      0.00
    4   17   12    -19.08      0.00
    5   17   12     62.56      0.00
    6   17   12      5.86      0.00
    7   17   12     -9.42      0.00
    8   17   12     -7.29      0.00
    0   18   12     -3.79      0.00
    1   18   12    -18.52      0.00
    2   18   12     10.16      0.00
    3   18   12     12.17      0.00
    4   18   12    -13.93      0.00
    5   18   12     37.57      0.00
    6   18   12     -9.84      0.00
    7   18   12    -30.27      0.00
    8   18   12     -7.17      0.00
    1   19   12    -19.78      0.00
    2   19   12    -10.77      0.00
    3   19   12      2.94      0.00
    4   19   12    -12.45      0.00
    0    1   13    -15.96      0.00
    1    2   13     -5.61      0.00
    0    3   13     -6.00      0.00
    1    3   13     -6.94      0.00
    2    3   13    -18.53      0.00
    1    4   13      5.07      0.00
    2    4   13     12.42      0.00
    3    4   13     -1.40      0.00
    0    5   13     16.13      0.00
    1    5   13      4.12      0.00
    2    5   13      8.67      0.00
    3    5   13     12.84      0.00
    4    5   13     -7.05      0.00
    1    6   13    -11.66      0.00
    2    6   13      0.75      0.00
    3    6   13     -1.48      0.00
    4    6   13    -18.11      0.00
    5    6   13     -9.88      0.00
    0    7   13      2.04      0.00
    1    7   13     -0.10      0.00
    2    7   13     -3.80      0.00
    3    7   13    -13.87      0.00
    4    7   13     -6.30      0.00
    5    7   13     -4.21      0.00
    6    7   13     -0.38      0.00
    1    8   13     -4.68      0.00
    2    8   13     -2.19      0.00
    3    8   13     -2.95      0.00
    4    8   13     18.87      0.00
    5    8   13      8.45      0.00
    6    8   13      8.39      0.00
    7    8   13     -2.25      0.00
    0    9   13     -6.05      0.00
    1    9   13     -2.49      0.00
    2    9   13     -3.96      0.00
    3    9   13      4.07      0.00
    4    9   13    -10.10      0.00
    5    9   13      1.54      0.00
    6    9   13    -20.38      0.00
    7    9   13     11.34      0.00
    8    9   13     10.27      0.00
    1   10   13    -10.78      0.00
    2   10   13      4.84      0.00
    3   10   13     10.33      0.00
    4   10   13     -7.91      0.00
    5   10   13     11.02      0.00
    6   10   13     -3.07      0.00
    7   10   13     -0.10      0.00
    8   10   13     -5.63      0.00
    9   10   13      4.87      0.00
    0   11   13     -2.59      0.00
    1   11   13     11.93      0.00
    2   11   13      1.52      0.00
    3   11   13     -3.95      0.00
    4   11   13    -16.48      0.00
    5   11   13     19.18      0.00
    6   11   13     -4.37      0.00
    7   11   13     -7.28      0.00
    8   11   13     11.78      0.00
    9   11   13    -12.34      0.00
   10   11   13    -30.03      0.00
    1   12   13     -1.59      0.00
    2   12   13      3.82      0.00
    3   12   13     -2.43      0.00
    4   12   13     30.92      0.00
    6   12   13     22.51      0.00
    7   12   13     37.93      0.00
    8   12   13      2.54      0.00
    9   12   13     13.17      0.00
   10   12   13    -19.11      0.00
    0   13   13     -1.64      0.00
    1   13   13     -4.71      0.00
    2   13   13      1.73      0.00
    3   13   13     -3.01      0.00
    4   13   13     10.47      0.00
    5   13   13     -1.60      0.00
    6   13   13      6.13      0.00
    7   13   13     12.08      0.00
    8   13   13     21.07      0.00
    9   13   13      0.04      0.00
   10   13   13     -0.01      0.00
    1   14   13      1.90      0.00
    2   14   13      6.35      0.00
    3   14   13     -8.69      0.00
    4   14   13      2.72      0.00
    5   14   13     16.19      0.00
    6   14   13    -38.89      0.00
    7   14   13    -13.50      0.00
    8   14   13    -29.39      0.00
    9   14   13     21.82      0.00
    0   15   13     -5.78      0.00
    1   15   13      4.87      0.00
    2   15   13    -17.77      0.00
    3   15   13     68.40      0.00
    4   15   13     -8.48      0.00
    5   15   13      3.33      0.00
    6   15   13     27.19      0.00
    7   15   13    -21.67      0.00
    8   15   13     27.59      0.00
    9   15   13     89.24      0.00
    1   16   13     -5.96      0.00
    2   16   13      2.98      0.00
    3   16   13    -11.49      0.00
    4   16   13     25.95      0.00
    5   16   13    -31.21      0.00
    6   16   13    -20.02      0.00
    7   16   13     99.61      0.00
    8   16   13      1.97      0.00
    9   16   13      9.66      0.00
    0   17   13    -10.56      0.00
    1   17   13     25.37      0.00
    2   17   13    -23.58      0.00
    3   17   13    -17.81      0.00
    4   17   13     38.24      0.00
    5   17   13     -3.94      0.00
    6   17   13     -1.33      0.00
    7   17   13    -28.84      0.00
    8   17   13    -21.59      0.00
    1   18   13     10.14      0.00
    2   18   13      7.38      0.00
    3   18   13      7.85      0.00
    4   18   13     18.28      0.00
    5   18   13    -10.56      0.00
    6   18   13    -15.47      0.00
    7   18   13    -15.60      0.00
    8   18   13    -11.22      0.00
    0   19   13     -9.51      0.00
    1   19   13     29.10      0.00
    2   19   13      1.63      0.00
    3   19   13     13.43      0.00
    0    0   14    -18.96      0.00
    1    1   14     15.11      0.00
    0    2   14     -8.37      0.00
    1    2   14     -1.94      0.00
    2    2   14      4.23      0.00
    1    3   14    -16.29      0.00
    2    3   14     -1.67      0.00
    3    3   14     -1.15      0.00
    0    4   14     -9.39      0.00
    1    4   14     -2.41      0.00
    2    4   14     -9.85      0.00
    3    4   14     -1.86      0.00
    4    4   14      5.64      0.00
    1    5   14      7.53      0.00
    2    5   14     -5.12      0.00
    3    5   14     -4.28      0.00
    4    5   14     -0.82      0.00
    5    5   14     -3.51      0.00
    0    6   14     -7.96      0.00
    1    6   14     17.28      0.00
    2    6   14     -5.49      0.00
    3    6   14      5.12      0.00
    4    6   14     -3.20      0.00
    5    6   14      3.56      0.00
    6    6   14      8.98      0.00
    1    7   14     -2.57      0.00
    2    7   14     -8.36      0.00
    3    7   14     -1.37      0.00
    4    7   14     -4.62      0.00
    5    7   14     -7.46      0.00
    6    7   14      5.14      0.00
    7    7   14      2.92      0.00
    0    8   14     -6.17      0.00
    1    8   14      4.66      0.00
    2    8   14     -0.92      0.00
    3    8   14     -4.89      0.00
    4    8   14     14.35      0.00
    5    8   14    -14.45      0.00
    6    8   14     -6.39      0.00
    7    8   14    -15.21      0.00
    1    9   14      2.44      0.00
    2    9   14      2.75      0.00
    3    9   14      3.61      0.00
    4    9   14      6.38      0.00
    5    9   14      5.63      0.00
    6    9   14     12.68      0.00
    7    9   14     -9.83      0.00
    8    9   14     10.41      0.00
    9    9   14      9.98      0.00
    0   10   14    -27.57      0.00
    1   10   14      9.38      0.00
    2   10   14      2.87      0.00
    3   10   14     -4.11      0.00
    4   10   14     -0.82      0.00
    5   10   14    -11.95      0.00
    6   10   14      7.45      0.00
    7   10   14     -4.65      0.00
    8   10   14     -2.28      0.00
    9   10   14    -17.36      0.00
   10   10   14    -10.21      0.00
    1   11   14     18.01      0.00
    2   11   14    -21.72      0.00
    3   11   14     -1.79      0.00
    4   11   14     -2.24      0.00
    5   11   14     -6.89      0.00
    6   11   14     30.01      0.00
    7   11   14     -4.76      0.00
    8   11   14      5.40      0.00
    9   11   14      2.76      0.00
   10   11   14    -11.71      0.00
    0   12   14     12.15      0.00
    1   12   14    -21.29      0.00
    2   12   14     -0.40      0.00
    3   12   14     30.55      0.00
    5   12   14     -9.95      0.00
    6   12   14    -17.34      0.00
    7   12   14    -37.34      0.00
    8   12   14      2.57      0.00
    9   12   14     30.34      0.00
   10   12   14    -19.34      0.00
   11   12   14     13.37      0.00
    1   13   14      6.24      0.00
    2   13   14     -5.58      0.00
    3   13   14    -16.31      0.00
    4   13   14     17.12      0.00
    5   13   14     -4.94      0.00
    6   13   14     13.18      0.00
    7   13   14    -22.80      0.00
    8   13   14    -17.09      0.00
    9   13   14     -2.15      0.00
   10   13   14      9.01      0.00
   11   13   14     -6.82      0.00
    0   14   14     29.61      0.00
    1   14   14     12.68      0.00
    2   14   14     -7.97      0.00
    3   14   14    -16.11      0.00
    4   14   14     18.65      0.00
    5   14   14     27.19      0.00
    6   14   14      3.15      0.00
    7   14   14      5.68      0.00
    8   14   14    -13.62      0.00
    9   14   14      0.86      0.00
   10   14   14     30.34      0.00
   11   14   14     -9.09      0.00
    1   15   14     34.59      0.00
    2   15   14      6.26      0.00
    3   15   14     -3.99      0.00
    4   15   14    -32.38      0.00
    5   15   14     -6.56      0.00
    6   15   14     28.82      0.00
    7   15   14     -9.35      0.00
    8   15   14      7.45      0.00
    0   16   14      9.49      0.00
    1   16   14    -15.49      0.00
    2   16   14     23.05      0.00
    3   16   14     15.57      0.00
    4   16   14    -35.51      0.00
    5   16   14      9.81      0.00
    6   16   14    -26.52      0.00
    7   16   14     19.96      0.00
    8   16   14    -17.58      0.00
    1   17   14    -46.09      0.00
    2   17   14    -25.33      0.00
    3   17   14     99.95      0.00
    4   17   14     -1.85      0.00
    5   17   14     -8.35      0.00
    6   17   14     -1.04      0.00
    7   17   14    -22.12      0.00
    8   17   14     41.70      0.00
    0   18   14    -23.20      0.00
    1   18   14      9.29      0.00
    2   18   14     -1.54      0.00
    3   18   14    -27.43      0.00
    4   18   14      1.37      0.00
    5   18   14     16.36      0.00
    6   18   14     25.19      0.00
    7   18   14     31.81      0.00
    8   18   14      9.86      0.00
    0    1   15     -0.81      0.00
    1    2   15     -4.53      0.00
    0    3   15     -1.01      0.00
    1    3   15     -8.50      0.00
    2    3   15     -9.16      0.00
    1    4   15     -2.08      0.00
    2    4   15    -11.25      0.00
    3    4   15     -4.23      0.00
    0    5   15      9.35      0.00
    1    5   15      8.48      0.00
    2    5   15    -13.96      0.00
    3    5   15      4.20      0.00
    4    5   15     12.61      0.00
    1    6   15     -7.05      0.00
    2    6   15      9.70      0.00
    3    6   15     -2.30      0.00
    4    6   15     -5.71      0.00
    5    6   15      8.57      0.00
    0    7   15      7.03      0.00
    1    7   15      3.15      0.00
    2    7   15      6.74      0.00
    3    7   15     -4.13      0.00
    4    7   15      5.09      0.00
    5    7   15     -5.90      0.00
    6    7   15      4.11      0.00
    1    8   15      3.49      0.00
    2    8   15     -3.33      0.00
    3    8   15     -4.54      0.00
    4    8   15      5.62      0.00
    5    8   15      2.89      0.00
    6    8   15      1.16      0.00
    0    9   15      4.61      0.00
    1    9   15      3.80      0.00
    2    9   15      7.57      0.00
    3    9   15    -12.70      0.00
    4    9   15      0.20      0.00
    5    9   15     -6.95      0.00
    6    9   15    -12.78      0.00
    7    9   15     -3.97      0.00
    8    9   15     -1.55      0.00
    1   10   15     -9.11      0.00
    2   10   15     -0.73      0.00
    3   10   15      6.53      0.00
    4   10   15      4.01      0.00
    5   10   15      8.03      0.00
    6   10   15     -6.04      0.00
    7   10   15     13.33      0.00
    8   10   15      1.59      0.00
    9   10   15     -4.93      0.00
    0   11   15     -2.30      0.00
    1   11   15      5.23      0.00
    2   11   15     15.59      0.00
    3   11   15      7.85      0.00
    4   11   15    -22.37      0.00
    5   11   15    -25.52      0.00
    6   11   15     -5.96      0.00
    7   11   15     -1.33      0.00
    8   11   15      1.87      0.00
    9   11   15      7.94      0.00
   10   11   15    -12.88      0.00
    1   12   15    -19.07      0.00
    2   12   15    -21.89      0.00
    4   12   15     10.53      0.00
    5   12   15     23.78      0.00
    6   12   15     20.26      0.00
    7   12   15     -7.96      0.00
    8   12   15     -9.39      0.00
    9   12   15     10.66      0.00
   10   12   15    -26.43      0.00
   11   12   15     11.96      0.00
    0   13   15      4.87      0.00
    1   13   15      1.35      0.00
    2   13   15     -5.24      0.00
    3   13   15     22.86      0.00
    4   13   15     18.95      0.00
    5   13   15     -1.62      0.00
    6   13   15    -16.70      0.00
    7   13   15     27.28      0.00
    8   13   15     -0.34      0.00
    9   13   15     11.81      0.00
   10   13   15    -11.99      0.00
   11   13   15     11.33      0.00
    1   14   15     20.48      0.00
    2   14   15     17.95      0.00
    3   14   15     -5.35      0.00
    4   14   15    -17.56      0.00
    5   14   15     -6.39      0.00
    6   14   15     20.83      0.00
    7   14   15     -9.19      0.00
    8   14   15     -0.22      0.00
    9   14   15    -12.52      0.00
   10   14   15    -12.83      0.00
   11   14   15    -27.71      0.00
    0   15   15    -29.18      0.00
    1   15   15    -13.60      0.00
    2   15   15     -4.37      0.00
    3   15   15     25.89      0.00
    4   15   15    -22.16      0.00
    5   15   15      5.98      0.00
    6   15   15      7.61      0.00
    7   15   15    -19.42      0.00
    1   16   15     17.64      0.00
    2   16   15     -3.90      0.00
    3   16   15    -22.54      0.00
    4   16   15    -13.70      0.00
    5   16   15     -3.04      0.00
    6   16   15     17.82      0.00
    7   16   15     34.75      0.00
    0   17   15     70.69      0.00
    1   17   15     32.66      0.00
    2   17   15    -26.31      0.00
    3   17   15    -23.65      0.00
    4   17   15      1.40      0.00
    5   17   15     -9.37      0.00
    6   17   15    -10.40      0.00
    7   17   15     21.65      0.00
    1   18   15    -12.65      0.00
    2   18   15     19.21      0.00
    3   18   15    -42.51      0.00
    4   18   15      9.79      0.00
    5   18   15     14.04      0.00
    6   18   15     38.14      0.00
    7   18   15    -16.52      0.00
    1    1   16     11.45      0.00
    0    2   16      3.21      0.00
    1    2   16     -2.90      0.00
    2    2   16     43.47      0.00
    1    3   16     17.24      0.00
    2    3   16    -11.73      0.00
    3    3   16      6.89      0.00
    0    4   16      5.81      0.00
    1    4   16    -14.83      0.00
    2    4   16     -2.27      0.00
    3    4   16     -0.05      0.00
    4    4   16     14.29      0.00
    1    5   16      8.42      0.00
    2    5   16     16.37      0.00
    3    5   16      3.08      0.00
    4    5   16      6.16      0.00
    5    5   16     14.06      0.00
    0    6   16     15.46      0.00
    1    6   16      4.07      0.00
    2    6   16     -4.05      0.00
    3    6   16      3.11      0.00
    4    6   16      3.10      0.00
    5    6   16     -1.62      0.00
    6    6   16     -0.97      0.00
    1    7   16      4.88      0.00
    2    7   16      5.42      0.00
    3    7   16     18.37      0.00
    4    7   16     -3.57      0.00
    5    7   16     -6.93      0.00
    6    7   16     13.54      0.00
    0    8   16      8.51      0.00
    1    8   16      7.23      0.00
    2    8   16      4.02      0.00
    3    8   16     -3.58      0.00
    4    8   16      0.87      0.00
    5    8   16      8.68      0.00
    7    8   16     -2.85      0.00
    8    8   16     -6.12      0.00
    1    9   16     -2.16      0.00
    2    9   16     -5.24      0.00
    3    9   16      5.73      0.00
    4    9   16     -2.30      0.00
    6    9   16     -1.80      0.00
    7    9   16      1.22      0.00
    8    9   16      9.24      0.00
    9    9   16     -2.74      0.00
    0   10   16    -12.64      0.00
    1   10   16      7.76      0.00
    2   10   16      2.89      0.00
    3   10   16     -9.45      0.00
    4   10   16      9.11      0.00
    5   10   16     -2.93      0.00
    6   10   16     14.70      0.00
    7   10   16     -0.93      0.00
    8   10   16     -0.98      0.00
    9   10   16     -3.65      0.00
   10   10   16    -10.93      0.00
    1   11   16     -3.75      0.00
    2   11   16    -32.72      0.00
    3   11   16     17.26      0.00
    4   11   16    -11.49      0.00
    5   11   16     -0.86      0.00
    6   11   16     16.26      0.00
    7   11   16     10.45      0.00
    8   11   16      8.13      0.00
    9   11   16     20.52      0.00
   10   11   16    -23.60      0.00
   11   11   16     -5.95      0.00
    0   12   16    -15.09      0.00
    1   12   16    -13.76      0.00
    2   12   16     -7.14      0.00
    3   12   16      7.86      0.00
    4   12   16     -1.59      0.00
    5   12   16     29.78      0.00
    6   12   16     -1.14      0.00
    7   12   16    -10.45      0.00
    8   12   16      1.54      0.00
    9   12   16     26.90      0.00
   10   12   16      1.17      0.00
   11   12   16     19.37      0.00
    1   13   16     21.33      0.00
    2   13   16     12.61      0.00
    3   13   16     -2.80      0.00
    4   13   16     11.70      0.00
    5   13   16    -16.81      0.00
    6   13   16    -77.97      0.00
    7   13   16     23.20      0.00
    8   13   16     -1.51      0.00
    9   13   16     -0.40      0.00
   10   13   16      4.68      0.00
   11   13   16     -8.30      0.00
    0   14   16    -23.57      0.00
    1   14   16     -6.24      0.00
    2   14   16     -1.25      0.00
    3   14   16    -78.78      0.00
    4   14   16     -4.36      0.00
    5   14   16     17.33      0.00
    6   14   16      5.81      0.00
    7   14   16     12.95      0.00
    8   14   16     25.54      0.00
    9   14   16    -59.69      0.00
   10   14   16    -11.08      0.00
   11   14   16     18.97      0.00
    1   15   16     -4.84      0.00
    2   15   16     -8.87      0.00
    3   15   16    -19.16      0.00
    4   15   16     -1.17      0.00
    5   15   16     16.34      0.00
    6   15   16     -3.19      0.00
    0   16   16     10.20      0.00
    1   16   16     20.15      0.00
    2   16   16     -8.89      0.00
    3   16   16     22.61      0.00
    4   16   16    -10.26      0.00
    5   16   16    -31.20      0.00
    6   16   16     -8.53      0.00
    1   17   16    -14.49      0.00
    2   17   16    -23.76      0.00
    3   17   16     -4.89      0.00
    4   17   16     18.82      0.00
    5   17   16      3.39      0.00
    6   17   16    -43.99      0.00
    0   18   16    -27.47      0.00
    1   18   16    -15.59      0.00
    2   18   16     18.86      0.00
    3   18   16    -19.83      0.00
    4   18   16     -5.99      0.00
    5   18   16     40.83      0.00
    6   18   16     -2.66      0.00
    0    1   17      8.85      0.00
    1    2   17      0.64      0.00
    0    3   17     -0.96      0.00
    1    3   17     -4.14      0.00
    2    3   17      4.55      0.00
    1    4   17      6.04      0.00
    2    4   17    -10.77      0.00
    3    4   17     -0.22      0.00
    0    5   17     10.45      0.00
    1    5   17      5.16      0.00
    2    5   17    -21.25      0.00
    3    5   17      9.06      0.00
    4    5   17      8.10      0.00
    1    6   17     -1.34      0.00
    2    6   17     10.55      0.00
    3    6   17     -3.52      0.00
    4    6   17      6.23      0.00
    5    6   17     -8.88      0.00
    0    7   17     25.12      0.00
    1    7   17      7.13      0.00
    2    7   17    -14.82      0.00
    3    7   17     -8.49      0.00
    4    7   17      2.56      0.00
    5    7   17      4.39      0.00
    1    8   17      7.06      0.00
    2    8   17     -5.35      0.00
    3    8   17      2.07      0.00
    4    8   17    -14.38      0.00
    6    8   17      0.63      0.00
    7    8   17      1.62      0.00
    0    9   17     -9.32      0.00
    1    9   17      4.60      0.00
    2    9   17      1.63      0.00
    3    9   17      4.92      0.00
    4    9   17      4.89      0.00
    5    9   17      3.57      0.00
    6    9   17      0.95      0.00
    7    9   17     11.45      0.00
    8    9   17     -2.12      0.00
    1   10   17     -0.71      0.00
    2   10   17    -10.47      0.00
    3   10   17      4.96      0.00
    4   10   17      5.76      0.00
    5   10   17    -11.47      0.00
    6   10   17     -8.89      0.00
    7   10   17      3.99      0.00
    8   10   17    -15.26      0.00
    9   10   17     -9.06      0.00
    0   11   17     31.85      0.00
    1   11   17     37.65      0.00
    2   11   17     16.89      0.00
    3   11   17     15.51      0.00
    4   11   17      3.25      0.00
    5   11   17    -10.78      0.00
    6   11   17     -2.64      0.00
    7   11   17     14.42      0.00
    8   11   17     -6.84      0.00
    9   11   17    -13.25      0.00
   10   11   17      0.55      0.00
    1   12   17    -13.88      0.00
    2   12   17     -4.95      0.00
    3   12   17     -3.94      0.00
    4   12   17     -8.75      0.00
    5   12   17     12.37      0.00
    6   12   17      0.68      0.00
    7   12   17    -74.68      0.00
    8   12   17    -21.88      0.00
    9   12   17      0.73      0.00
   10   12   17      1.64      0.00
   11   12   17     33.91      0.00
    0   13   17     -6.63      0.00
    1   13   17     12.00      0.00
    2   13   17     -8.83      0.00
    3   13   17     27.59      0.00
    4   13   17     -2.02      0.00
    5   13   17    -54.54      0.00
    6   13   17     33.58      0.00
    7   13   17      3.64      0.00
    8   13   17    -16.81      0.00
    9   13   17      6.32      0.00
   10   13   17     -4.15      0.00
   11   13   17      2.99      0.00
    1   14   17      9.41      0.00
    2   14   17    -13.53      0.00
    3   14   17     16.29      0.00
    4   14   17     -1.00      0.00
    5   14   17     -6.38      0.00
    6   14   17     12.55      0.00
    7   14   17      3.24      0.00
    8   14   17      6.55      0.00
    9   14   17     -8.55      0.00
   10   14   17     -5.03      0.00
   11   14   17      2.26      0.00
    0   15   17    -45.31      0.00
    1   15   17     -5.72      0.00
    2   15   17     10.21      0.00
    3   15   17      7.02      0.00
    4   15   17      1.70      0.00
    5   15   17    -10.96      0.00
    1   16   17    -24.59      0.00
    2   16   17    -18.46      0.00
    3   16   17     26.12      0.00
    4   16   17      3.97      0.00
    5   16   17     30.82      0.00
    0   17   17    -10.66      0.00
    1   17   17     -2.13      0.00
    2   17   17     26.23      0.00
    3   17   17     15.91      0.00
    4   17   17      8.38      0.00
    5   17   17    -27.78      0.00
    1   18   17     15.65      0.00
    2   18   17     -2.33      0.00
    3   18   17     15.51      0.00
    4   18   17    -15.69      0.00
    5   18   17    -39.54      0.00
    1    1   18     -1.44      0.00
    0    2   18    -15.41      0.00
    1    2   18     -2.33      0.00
    2    2   18     13.77      0.00
    1    3   18    -12.42      0.00
    2    3   18     -9.78      0.00
    3    3   18      6.32      0.00
    0    4   18      4.59      0.00
    1    4   18      2.43      0.00
    2    4   18    -21.40      0.00
    3    4   18     -8.99      0.00
    4    4   18      3.61      0.00
    1    5   18      6.52      0.00
    2    5   18      0.47      0.00
    3    5   18      9.85      0.00
    4    5   18     19.54      0.00
    5    5   18     10.22      0.00
    0    6   18     -9.61      0.00
    1    6   18     -8.57      0.00
    2    6   18     18.98      0.00
    3    6   18     -8.51      0.00
    4    6   18     -6.38      0.00
    5    6   18    -12.29      0.00
    1    7   18     -5.29      0.00
    2    7   18     -8.77      0.00
    3    7   18      0.03      0.00
    4    7   18     -6.15      0.00
    6    7   18     -0.43      0.00
    7    7   18     -4.93      0.00
    0    8   18     -7.93      0.00
    1    8   18      9.71      0.00
    2    8   18     10.38      0.00
    3    8   18     -5.47      0.00
    5    8   18     21.28      0.00
    6    8   18     19.78      0.00
    7    8   18     -2.91      0.00
    8    8   18     -3.88      0.00
    1    9   18    -16.67      0.00
    2    9   18     -0.03      0.00
    3    9   18    -11.16      0.00
    4    9   18      9.59      0.00
    5    9   18    -12.69      0.00
    6    9   18    -16.46      0.00
    7    9   18      2.55      0.00
    8    9   18      4.29      0.00
    9    9   18      9.21      0.00
    0   10   18     19.23      0.00
    1   10   18     -8.22      0.00
    2   10   18    -12.47      0.00
    3   10   18     38.34      0.00
    4   10   18    -18.62      0.00
    5   10   18     -1.53      0.00
    6   10   18     18.50      0.00
    7   10   18    -10.50      0.00
    8   10   18      4.07      0.00
    9   10   18     15.93      0.00
   10   10   18      3.32      0.00
    1   11   18    -24.29      0.00
    2   11   18     -0.08      0.00
    3   11   18     -0.86      0.00
    4   11   18     -5.64      0.00
    5   11   18      4.53      0.00
    6   11   18     -7.89      0.00
    7   11   18      5.40      0.00
    8   11   18    -14.94      0.00
    9   11   18     -9.61      0.00
   10   11   18    -20.02      0.00
   11   11   18      6.67      0.00
    0   12   18     17.28      0.00
    1   12   18      8.90      0.00
    2   12   18    -21.45      0.00
    3   12   18    -17.61      0.00
    4   12   18     -2.38      0.00
    5   12   18     32.73      0.00
    6   12   18     -3.67      0.00
    7   12   18     -2.84      0.00
    8   12   18      7.84      0.00
    9   12   18      7.64      0.00
   10   12   18     -4.26      0.00
   11   12   18      2.58      0.00
   12   12   18    -24.28      0.00
    1   13   18     23.30      0.00
    2   13   18     -5.79      0.00
    3   13   18      9.84      0.00
    4   13   18     10.48      0.00
    5   13   18     19.12      0.00
    6   13   18     -3.87      0.00
    7   13   18     -5.42      0.00
    8   13   18      5.88      0.00
    9   13   18      9.15      0.00
   10   13   18    -14.66      0.00
   11   13   18      3.33      0.00
   12   13   18      2.87      0.00
    0   14   18     -0.79      0.00
    1   14   18    -28.86      0.00
    2   14   18      7.57      0.00
    3   14   18     -8.63      0.00
    4   14   18      0.91      0.00
    5   14   18      3.65      0.00
    6   14   18    -12.98      0.00
    7   14   18     20.88      0.00
    8   14   18     14.31      0.00
    9   14   18      8.40      0.00
   10   14   18     13.30      0.00
   11   14   18     -1.75      0.00
    1   15   18      1.73      0.00
    2   15   18     -8.04      0.00
    3   15   18    -24.65      0.00
    4   15   18      6.98      0.00
   10   15   18      8.47      0.00
   11   15   18    -27.81      0.00
    0   16   18     65.72      0.00
    1   16   18     31.28      0.00
    2   16   18     -0.22      0.00
    3   16   18    -11.34      0.00
    4   16   18     32.40      0.00
    1   17   18     -6.12      0.00
    2   17   18     21.38      0.00
    3   17   18    -28.43      0.00
    4   17   18     -1.18      0.00
    0   18   18     27.88      0.00
    1   18   18     13.97      0.00
    2   18   18    -38.30      0.00
    3   18   18      5.72      0.00
    4   18   18     12.94      0.00
    0    1   19     -0.13      0.00
    1    2   19     -4.23      0.00
    0    3   19     -5.52      0.00
    1    3   19      6.76      0.00
    2    3   19     -7.42      0.00
    1    4   19      5.31      0.00
    2    4   19      9.03      0.00
    3    4   19     -0.89      0.00
    0    5   19    -20.54      0.00
    1    5   19      1.66      0.00
    2    5   19    -12.37      0.00
    3    5   19    -14.95      0.00
    4    5   19     -3.34      0.00
    1    6   19      6.11      0.00
    2    6   19     -3.34      0.00
    3    6   19     -4.29      0.00
    4    6   19     -1.48      0.00
    0    7   19    -15.53      0.00
    1    7   19     -4.95      0.00
    2    7   19     -1.41      0.00
    3    7   19    -16.70      0.00
    5    7   19     18.37      0.00
    6    7   19      7.95      0.00
    1    8   19     -6.06      0.00
    2    8   19      2.68      0.00
    3    8   19      7.70      0.00
    4    8   19    -20.37      0.00
    5    8   19      1.97      0.00
    6    8   19    -12.87      0.00
    7    8   19     14.78      0.00
    0    9   19    -14.97      0.00
    1    9   19      0.42      0.00
    2    9   19     -3.53      0.00
    3    9   19     34.90      0.00
    4    9   19     20.62      0.00
    5    9   19      0.31      0.00
    6    9   19      6.57      0.00
    7    9   19      5.09      0.00
    8    9   19     -6.40      0.00
    1   10   19      8.19      0.00
    2   10   19    -11.72      0.00
    3   10   19      3.08      0.00
    4   10   19     -2.92      0.00
    5   10   19     -5.84      0.00
    6   10   19    -22.10      0.00
    7   10   19     -4.00      0.00
    8   10   19    -14.86      0.00
    9   10   19     -5.83      0.00
    0   11   19     13.09      0.00
    1   11   19    -20.74      0.00
    2   11   19     17.10      0.00
    3   11   19      1.20      0.00
    4   11   19      5.82      0.00
    5   11   19     -7.52      0.00
    6   11   19     15.57      0.00
    7   11   19     55.59      0.00
    8   11   19     18.84      0.00
    9   11   19     -2.10      0.00
   10   11   19     -2.08      0.00
    1   12   19     -7.62      0.00
    2   12   19     -8.97      0.00
    3   12   19    -10.31      0.00
    4   12   19      5.17      0.00
    5   12   19    -51.35      0.00
    6   12   19      4.34      0.00
    7   12   19     -6.16      0.00
    8   12   19      7.63      0.00
    9   12   19      0.75      0.00
   10   12   19     38.64      0.00
   11   12   19      8.26      0.00
    0   13   19    -18.00      0.00
    1   13   19     27.51      0.00
    2   13   19     16.32      0.00
    3   13   19     13.53      0.00
    4   13   19      0.45      0.00
    5   13   19     -5.81      0.00
    6   13   19      8.63      0.00
    7   13   19     -6.69      0.00
    8   13   19     19.30      0.00
    9   13   19    -17.87      0.00
   10   13   19    -15.46      0.00
   11   13   19      8.78      0.00
   12   13   19     10.56      0.00
    1   14   19     -6.75      0.00
    2   14   19      8.22      0.00
    3   14   19     15.00      0.00
    4   14   19     15.76      0.00
    5   14   19      5.71      0.00
    6   14   19      2.60      0.00
    7   14   19    -29.14      0.00
    8   14   19     17.71      0.00
    9   14   19      6.58      0.00
   10   14   19      6.90      0.00
   11   14   19    -18.62      0.00
    0   15   19    -25.32      0.00
    1   15   19     13.52      0.00
    2   15   19      6.15      0.00
    8   15   19     22.66      0.00
    9   15   19     17.11      0.00
   10   15   19     20.61      0.00
    1   16   19      4.96      0.00
    2   16   19    -11.06      0.00
    3   16   19    -38.18      0.00
    0   17   19    -11.64      0.00
    1   17   19    -25.64      0.00
    2   17   19     -0.47      0.00
    3   17   19      2.43      0.00
    1   18   19      9.65      0.00
    2   18   19    -28.99      0.00
    3   18   19     13.23      0.00
    1    1   20    -13.44      0.00
    0    2   20     -1.24      0.00
    1    2   20     11.06      0.00
    2    2   20     -2.42      0.00
    1    3   20    -11.61      0.00
    2    3   20      2.31      0.00
    3    3   20     13.70      0.00
    0    4   20      0.74      0.00
    1    4   20     12.16      0.00
    2    4   20      4.23      0.00
    3    4   20     10.80      0.00
    4    4   20      7.67      0.00
    1    5   20      6.16      0.00
    2    5   20      1.75      0.00
    3    5   20     -3.24      0.00
    4    5   20     13.99      0.00
    0    6   20      7.94      0.00
    1    6   20     -3.42      0.00
    2    6   20     -2.41      0.00
    3    6   20      1.54      0.00
    5    6   20      4.67      0.00
    6    6   20      2.71      0.00
    1    7   20     -1.18      0.00
    2    7   20      0.43      0.00
    3    7   20     -2.96      0.00
    4    7   20      2.43      0.00
    5    7   20      1.40      0.00
    6    7   20     12.91      0.00
    0    8   20      1.78      0.00
    1    8   20      3.28      0.00
    2    8   20      2.39      0.00
    3    8   20     -3.75      0.00
    4    8   20      5.62      0.00
    5    8   20     -4.24      0.00
    6    8   20      8.99      0.00
    7    8   20     16.19      0.00
    8    8   20    -40.93      0.00
    1    9   20    -10.47      0.00
    2    9   20    -14.82      0.00
    3    9   20     -4.59      0.00
    4    9   20    -10.63      0.00
    5    9   20      8.40      0.00
    6    9   20     12.14      0.00
    7    9   20    -12.44      0.00
    8    9   20     -4.66      0.00
    9    9   20      3.94      0.00
    0   10   20     22.56      0.00
    1   10   20    -11.98      0.00
    2   10   20      7.58      0.00
    3   10   20     -1.32      0.00
    4   10   20    -23.83      0.00
    5   10   20    -10.04      0.00
    6   10   20     -3.41      0.00
    7   10   20    -13.85      0.00
    8   10   20      5.22      0.00
    9   10   20     16.13      0.00
   10   10   20      5.03      0.00
    1   11   20      3.22      0.00
    2   11   20      9.02      0.00
    3   11   20     -7.75      0.00
    4   11   20    -11.98      0.00
    5   11   20     10.15      0.00
    6   11   20     28.79      0.00
    7   11   20      1.19      0.00
    8   11   20     -1.58      0.00
    9   11   20    -12.06      0.00
   10   11   20    -19.66      0.00
   11   11   20     -6.65      0.00
    0   12   20     -8.35      0.00
    1   12   20     24.05      0.00
    2   12   20     -5.93      0.00
    3   12   20      2.28      0.00
    4   12   20     12.62      0.00
    5   12   20    -14.07      0.00
    6   12   20     14.47      0.00
    7   12   20     11.58      0.00
    8   12   20      2.33      0.00
    9   12   20    -15.91      0.00
   10   12   20      8.21      0.00
   11   12   20    -25.84      0.00
   12   12   20     -4.67      0.00
    1   13   20     -9.60      0.00
    2   13   20     -5.38      0.00
    3   13   20      3.87      0.00
    4   13   20     -4.19      0.00
    5   13   20     -6.57      0.00
    6   13   20      6.43      0.00
    7   13   20     19.34      0.00
    8   13   20      9.57      0.00
    9   13   20      0.51      0.00
   10   13   20    -13.09      0.00
   11   13   20      7.39      0.00
    0   14   20     -2.67      0.00
    1   14   20    -30.62      0.00
    2   14   20     -3.64      0.00
    3   14   20     11.98      0.00
    4   14   20      1.28      0.00
    5   14   20      2.77      0.00
    6   14   20    -20.38      0.00
    7   14   20     16.45      0.00
    8   14   20     10.83      0.00
    9   14   20     17.32      0.00
   10   14   20      9.32      0.00
    1   15   20     -0.41      0.00
    7   15   20    -12.36      0.00
    8   15   20      9.45      0.00
    9   15   20     -3.24      0.00
   10   15   20     -5.67      0.00
    0   16   20      8.79      0.00
    1   16   20     12.90      0.00
    2   16   20     19.14      0.00
    1   17   20      3.17      0.00
    2   17   20     48.71      0.00
    0    1   21     24.44      0.00
    1    2   21      1.24      0.00
    0    3   21     -5.82      0.00
    1    3   21      9.78      0.00
    2    3   21      1.59      0.00
    1    4   21      6.64      0.00
    2    4   21     -4.39      0.00
    3    4   21      1.70      0.00
    0    5   21    -10.71      0.00
    1    5   21      5.97      0.00
    2    5   21     16.28      0.00
    3    5   21     -4.71      0.00
    1    6   21      2.93      0.00
    2    6   21    -14.52      0.00
    3    6   21      6.98      0.00
    4    6   21     15.47      0.00
    5    6   21      6.94      0.00
    0    7   21    -19.73      0.00
    1    7   21      1.14      0.00
    2    7   21     -8.63      0.00
    3    7   21     -8.18      0.00
    4    7   21      4.72      0.00
    5    7   21     16.31      0.00
    6    7   21     19.19      0.00
    1    8   21      1.07      0.00
    2    8   21      7.49      0.00
    3    8   21     -1.70      0.00
    4    8   21     12.15      0.00
    5    8   21    -12.57      0.00
    6    8   21     -6.98      0.00
    7    8   21      3.71      0.00
    0    9   21     15.18      0.00
    1    9   21      6.99      0.00
    2    9   21     10.13      0.00
    3    9   21     15.15      0.00
    4    9   21    -14.43      0.00
    5    9   21      6.71      0.00
    6    9   21      4.74      0.00
    7    9   21     14.34      0.00
    8    9   21     -1.70      0.00
    1   10   21     -5.89      0.00
    2   10   21      0.04      0.00
    3   10   21     11.36      0.00
    4   10   21     10.17      0.00
    5   10   21     -6.03      0.00
    6   10   21    -18.98      0.00
    7   10   21      8.19      0.00
    8   10   21      5.80      0.00
    9   10   21     21.62      0.00
    0   11   21      8.05      0.00
    1   11   21     -3.67      0.00
    2   11   21      9.82      0.00
    3   11   21     -3.92      0.00
    4   11   21      0.11      0.00
    5   11   21     -7.16      0.00
    6   11   21     -1.55      0.00
    7   11   21     17.28      0.00
    8   11   21     -0.72      0.00
    9   11   21      3.05      0.00
   10   11   21      8.33      0.00
    1   12   21    -13.15      0.00
    2   12   21    -10.03      0.00
    3   12   21      0.30      0.00
    4   12   21    -17.08      0.00
    5   12   21     -5.45      0.00
    6   12   21     -1.07      0.00
    7   12   21     -2.87      0.00
    8   12   21    -17.48      0.00
    9   12   21     17.95      0.00
   10   12   21     19.44      0.00
   11   12   21    -22.11      0.00
    0   13   21     11.04      0.00
    1   13   21      8.46      0.00
    2   13   21     -6.63      0.00
    3   13   21      2.03      0.00
    4   13   21      8.02      0.00
    5   13   21     -8.22      0.00
    6   13   21     17.29      0.00
    7   13   21    -51.50      0.00
    8   13   21    -17.65      0.00
    9   13   21      4.69      0.00
   10   13   21     -0.37      0.00
   11   13   21     -7.91      0.00
    1   14   21     -2.03      0.00
    2   14   21     13.97      0.00
    3   14   21     -2.26      0.00
    4   14   21     -4.91      0.00
    5   14   21      8.31      0.00
    6   14   21    -15.04      0.00
    7   14   21      8.03      0.00
    8   14   21      8.29      0.00
    9   14   21    -17.28      0.00
   10   14   21     -6.30      0.00
    0   15   21     14.76      0.00
    5   15   21     14.50      0.00
    6   15   21     22.14      0.00
    7   15   21      8.59      0.00
    8   15   21     -8.97      0.00
    9   15   21    -10.85      0.00
    0   17   21      4.21      0.00
    1   17   21     35.07      0.00
    1    1   22    -16.81      0.00
    0    2   22      1.02      0.00
    1    2   22      8.24      0.00
    2    2   22      6.74      0.00
    1    3   22     -3.18      0.00
    2    3   22     22.09      0.00
    3    3   22      3.47      0.00
    0    4   22      6.62      0.00
    1    4   22     13.94      0.00
    2    4   22     12.54      0.00
    3    4   22     14.57      0.00
    4    4   22     14.44      0.00
    1    5   22     -4.15      0.00
    2    5   22      2.51      0.00
    3    5   22     -1.73      0.00
    4    5   22    -13.06      0.00
    5    5   22     -6.29      0.00
    0    6   22     -6.94      0.00
    1    6   22    -18.02      0.00
    2    6   22     -1.25      0.00
    3    6   22     -9.99      0.00
    4    6   22     13.09      0.00
    5    6   22     -4.36      0.00
    6    6   22    -14.18      0.00
    1    7   22      1.78      0.00
    2    7   22      6.42      0.00
    3    7   22      2.44      0.00
    4    7   22    -12.10      0.00
    5    7   22     -2.81      0.00
    6    7   22     18.42      0.00
    7    7   22     18.15      0.00
    0    8   22    -18.82      0.00
    1    8   22     12.42      0.00
    2    8   22      5.33      0.00
    3    8   22    -11.95      0.00
    4    8   22      5.84      0.00
    5    8   22      4.17      0.00
    6    8   22     16.45      0.00
    7    8   22    -14.67      0.00
    8    8   22    -11.69      0.00
    1    9   22     11.51      0.00
    2    9   22     20.89      0.00
    3    9   22     10.44      0.00
    4    9   22      8.44      0.00
    5    9   22     -7.35      0.00
    6    9   22      4.54      0.00
    7    9   22     -3.35      0.00
    8    9   22     -9.80      0.00
    9    9   22     -0.52      0.00
    0   10   22     -3.84      0.00
    1   10   22    -17.20      0.00
    2   10   22      1.87      0.00
    3   10   22     -3.30      0.00
    4   10   22      0.82      0.00
    5   10   22    -14.28      0.00
    6   10   22     -9.01      0.00
    7   10   22      1.34      0.00
    8   10   22     16.57      0.00
    9   10   22     -4.43      0.00
   10   10   22    -15.92      0.00
    1   11   22     -0.51      0.00
    2   11   22    -11.89      0.00
    3   11   22    -12.00      0.00
    4   11   22     17.72      0.00
    5   11   22      4.55      0.00
    6   11   22     17.14      0.00
    7   11   22      7.90      0.00
    8   11   22      0.29      0.00
    9   11   22    -34.16      0.00
   10   11   22      7.55      0.00
   11   11   22     14.73      0.00
    0   12   22      4.51      0.00
    1   12   22    -14.48      0.00
    2   12   22     10.35      0.00
    3   12   22     22.14      0.00
    4   12   22     13.34      0.00
    5   12   22    -18.54      0.00
    6   12   22     -9.21      0.00
    7   12   22     -1.33      0.00
    8   12   22     26.33      0.00
    9   12   22     -5.75      0.00
   10   12   22    -22.83      0.00
   11   12   22     13.31      0.00
    1   13   22     27.06      0.00
    2   13   22     -7.60      0.00
    3   13   22    -19.26      0.00
    4   13   22     10.10      0.00
    5   13   22      7.51      0.00
    6   13   22     14.58      0.00
    7   13   22     -8.69      0.00
    8   13   22     -6.34      0.00
    9   13   22      7.83      0.00
   10   13   22    -11.56      0.00
    1   14   22      0.11      0.00
    2   14   22     10.68      0.00
    3   14   22     -2.85      0.00
    4   14   22      0.54      0.00
    5   14   22     15.91      0.00
    6   14   22    -29.76      0.00
    7   14   22      9.53      0.00
    8   14   22     14.21      0.00
    9   14   22      3.18      0.00
    4   15   22    -34.02      0.00
    5   15   22     -7.29      0.00
    6   15   22      8.95      0.00
    7   15   22    -19.96      0.00
    8   15   22     -2.58      0.00
    0    1   23      3.08      0.00
    1    2   23      2.64      0.00
    0    3   23     -5.62      0.00
    1    3   23    -13.98      0.00
    2    3   23     -4.12      0.00
    1    4   23      6.72      0.00
    2    4   23      2.50      0.00
    3    4   23     -4.29      0.00
    0    5   23     11.14      0.00
    1    5   23     -1.00      0.00
    2    5   23     -2.73      0.00
    3    5   23      3.37      0.00
    4    5   23    -15.49      0.00
    1    6   23     24.01      0.00
    2    6   23    -29.53      0.00
    3    6   23      1.26      0.00
    4    6   23     10.30      0.00
    5    6   23     -7.33      0.00
    0    7   23     26.35      0.00
    1    7   23      9.85      0.00
    2    7   23    -11.01      0.00
    3    7   23     10.88      0.00
    4    7   23     22.90      0.00
    5    7   23    -11.19      0.00
    6    7   23      8.37      0.00
    1    8   23     -8.04      0.00
    2    8   23     16.25      0.00
    3    8   23      6.52      0.00
    4    8   23    -11.98      0.00
    5    8   23     -1.74      0.00
    6    8   23    -13.94      0.00
    7    8   23    -22.78      0.00
    0    9   23     -3.30      0.00
    1    9   23    -16.89      0.00
    2    9   23     11.06      0.00
    3    9   23     -9.37      0.00
    4    9   23     -6.45      0.00
    5    9   23    -17.31      0.00
    6    9   23      2.75      0.00
    7    9   23    -10.82      0.00
    8    9   23     -4.97      0.00
    1   10   23     -1.41      0.00
    2   10   23     -4.28      0.00
    3   10   23     -8.30      0.00
    4   10   23      0.61      0.00
    5   10   23      6.06      0.00
    6   10   23     -4.01      0.00
    7   10   23    -11.46      0.00
    8   10   23     -2.49      0.00
    9   10   23     16.80      0.00
    0   11   23      8.02      0.00
    1   11   23    -12.48      0.00
    2   11   23     -6.95      0.00
    3   11   23      3.92      0.00
    4   11   23     -5.50      0.00
    5   11   23     18.18      0.00
    6   11   23     12.67      0.00
    7   11   23      0.40      0.00
    8   11   23    -69.64      0.00
    9   11   23      5.39      0.00
   10   11   23      3.43      0.00
    1   12   23     -3.48      0.00
    2   12   23     -3.93      0.00
    3   12   23     15.40      0.00
    4   12   23     -0.78      0.00
    5   12   23     19.52      0.00
    6   12   23      2.18      0.00
    7   12   23     22.62      0.00
    8   12   23     -3.33      0.00
    9   12   23      3.16      0.00
   10   12   23      5.62      0.00
    1   13   23     -4.56      0.00
    2   13   23     10.98      0.00
    3   13   23      3.63      0.00
    4   13   23    -36.98      0.00
    5   13   23      4.80      0.00
    6   13   23     -5.30      0.00
    7   13   23    -11.25      0.00
    8   13   23    -18.47      0.00
    9   13   23    -25.83      0.00
    2   14   23      8.80      0.00
    3   14   23    -12.29      0.00
    4   14   23    -12.61      0.00
    5   14   23     -2.35      0.00
    6   14   23     -5.67      0.00
    7   14   23     -3.52      0.00
    8   14   23     22.00      0.00
    3   15   23     -2.75      0.00
    4   15   23     -2.56      0.00
    5   15   23      8.53      0.00
    6   15   23     10.25      0.00
    7   15   23     12.65      0.00
    0    2   24     16.59      0.00
    1    2   24     -2.12      0.00
    2    2   24    -23.74      0.00
    1    3   24     -2.56      0.00
    2    3   24     -9.40      0.00
    3    3   24      3.16      0.00
    0    4   24      4.29      0.00
    1    4   24     -2.64      0.00
    2    4   24    -10.59      0.00
    3    4   24    -38.24      0.00
    4    4   24      3.78      0.00
    1    5   24    -18.86      0.00
    2    5   24     16.19      0.00
    3    5   24      3.19      0.00
    4    5   24      0.26      0.00
    5    5   24     -7.99      0.00
    0    6   24      6.96      0.00
    1    6   24      3.25      0.00
    2    6   24    -12.55      0.00
    3    6   24     10.80      0.00
    4    6   24     -7.65      0.00
    5    6   24     14.68      0.00
    6    6   24      8.13      0.00
    1    7   24     -4.91      0.00
    2    7   24      0.59      0.00
    3    7   24      9.41      0.00
    4    7   24      9.08      0.00
    5    7   24     -4.53      0.00
    6    7   24      5.65      0.00
    7    7   24    -15.05      0.00
    0    8   24     -8.59      0.00
    1    8   24      6.50      0.00
    2    8   24    -15.94      0.00
    3    8   24    -16.49      0.00
    4    8   24     -6.53      0.00
    5    8   24     -8.35      0.00
    6    8   24     -8.17      0.00
    7    8   24      0.14      0.00
    8    8   24     17.85      0.00
    1    9   24     -6.89      0.00
    2    9   24      8.87      0.00
    3    9   24      2.91      0.00
    4    9   24     37.86      0.00
    5    9   24     -9.37      0.00
    6    9   24     -3.39      0.00
    7    9   24     23.56      0.00
    8    9   24     -3.59      0.00
    9    9   24     11.74      0.00
    0   10   24    -32.38      0.00
    1   10   24     10.47      0.00
    2   10   24     11.92      0.00
    3   10   24      0.80      0.00
    4   10   24     -0.10      0.00
    5   10   24     11.67      0.00
    6   10   24     11.04      0.00
    7   10   24      0.06      0.00
    8   10   24     14.08      0.00
    9   10   24     -3.47      0.00
   10   10   24     -8.60      0.00
    1   11   24      4.10      0.00
    2   11   24     15.15      0.00
    3   11   24    -14.80      0.00
    4   11   24     -6.17      0.00
    5   11   24     -4.43      0.00
    6   11   24     17.39      0.00
    7   11   24    -77.44      0.00
    8   11   24    -10.56      0.00
    9   11   24      3.99      0.00
   10   11   24     -2.04      0.00
    0   12   24    -18.78      0.00
    1   12   24      8.36      0.00
    2   12   24     -6.31      0.00
    3   12   24    -12.30      0.00
    4   12   24      8.72      0.00
    5   12   24    -52.55      0.00
    6   12   24      3.82      0.00
    7   12   24    -13.05      0.00
    8   12   24     -3.76      0.00
    9   12   24     33.35      0.00
    1   13   24    -39.13      0.00
    2   13   24      3.51      0.00
    3   13   24    -14.09      0.00
    4   13   24      1.05      0.00
    5   13   24     -8.82      0.00
    6   13   24     -1.75      0.00
    7   13   24     11.46      0.00
    8   13   24    -14.14      0.00
    2   14   24     -3.20      0.00
    3   14   24     -5.91      0.00
    4   14   24      0.44      0.00
    5   14   24      7.22      0.00
    6   14   24     11.08      0.00
    7   14   24     18.49      0.00
    2   15   24     11.00      0.00
    3   15   24      9.43      0.00
    4   15   24     15.02      0.00
    5   15   24     28.12      0.00
    6   15   24     14.35      0.00
    1    2   25     -4.79      0.00
    1    3   25     -8.75      0.00
    2    3   25     -8.87      0.00
    1    4   25      8.41      0.00
    2    4   25     10.87      0.00
    3    4   25      1.84      0.00
    0    5   25    -68.80      0.00
    1    5   25     12.38      0.00
    2    5   25     -6.59      0.00
    3    5   25     -3.58      0.00
    4    5   25      6.67      0.00
    1    6   25      2.43      0.00
    2    6   25     -0.87      0.00
    3    6   25      3.39      0.00
    4    6   25     -3.02      0.00
    5    6   25     13.44      0.00
    0    7   25      1.60      0.00
    1    7   25     25.02      0.00
    2    7   25     19.94      0.00
    3    7   25      7.34      0.00
    4    7   25    -13.47      0.00
    5    7   25     -9.65      0.00
    6    7   25     -5.83      0.00
    1    8   25     -5.59      0.00
    2    8   25     14.50      0.00
    3    8   25      3.82      0.00
    4    8   25    -43.24      0.00
    5    8   25    -21.16      0.00
    6    8   25     -3.99      0.00
    7    8   25      0.10      0.00
    0    9   25     43.52      0.00
    1    9   25    -19.24      0.00
    2    9   25    -17.85      0.00
    3    9   25    -33.28      0.00
    4    9   25     -0.81      0.00
    5    9   25     17.58      0.00
    6    9   25      2.43      0.00
    7    9   25     -9.76      0.00
    8    9   25      6.89      0.00
    1   10   25      8.17      0.00
    2   10   25     -2.39      0.00
    3   10   25      6.04      0.00
    4   10   25    -11.31      0.00
    5   10   25    -11.73      0.00
    6   10   25     10.89      0.00
    7   10   25      7.19      0.00
    8   10   25      4.05      0.00
    9   10   25      5.38      0.00
    0   11   25     -6.61      0.00
    1   11   25      0.59      0.00
    2   11   25    -13.77      0.00
    3   11   25     -7.22      0.00
    4   11   25      6.27      0.00
    5   11   25     -2.67      0.00
    6   11   25      4.59      0.00
    7   11   25     -4.02      0.00
    8   11   25      9.48      0.00
    9   11   25      9.71      0.00
    1   12   25     16.97      0.00
    2   12   25     -4.03      0.00
    3   12   25     40.29      0.00
    4   12   25     -4.59      0.00
    5   12   25     17.64      0.00
    6   12   25      4.83      0.00
    7   12   25      4.94      0.00
    8   12   25     14.20      0.00
    0   13   25     23.18      0.00
    1   13   25      9.08      0.00
    2   13   25     22.85      0.00
    3   13   25     -3.51      0.00
    4   13   25     -7.87      0.00
    5   13   25     14.89      0.00
    6   13   25     -9.02      0.00
    7   13   25    -10.28      0.00
    2   14   25     20.76      0.00
    3   14   25     10.73      0.00
    4   14   25     -3.80      0.00
    5   14   25      9.21      0.00
    6   14   25     16.98      0.00
    3   15   25    -15.56      0.00
    4   15   25    -14.06      0.00
    0    2   26      2.00      0.00
    1    2   26     21.71      0.00
    2    2   26     -9.15      0.00
    1    3   26     21.18      0.00
    2    3   26     -0.48      0.00
    3    3   26      3.33      0.00
    0    4   26     -1.66      0.00
    1    4   26     -0.46      0.00
    2    4   26      5.07      0.00
    3    4   26    -22.72      0.00
    4    4   26     -6.38      0.00
    1    5   26      6.11      0.00
    2    5   26      6.12      0.00
    3    5   26      3.29      0.00
    4    5   26      1.50      0.00
    5    5   26     23.44      0.00
    0    6   26     28.69      0.00
    1    6   26    -22.47      0.00
    2    6   26     -4.11      0.00
    3    6   26      7.89      0.00
    4    6   26      0.33      0.00
    5    6   26     -0.34      0.00
    6    6   26     -8.25      0.00
    1    7   26     13.58      0.00
    2    7   26      4.16      0.00
    3    7   26    -13.82      0.00
    4    7   26    -20.78      0.00
    5    7   26     -4.92      0.00
    6    7   26     16.10      0.00
    7    7   26      1.29      0.00
    0    8   26     44.35      0.00
    1    8   26    -62.51      0.00
    2    8   26    -28.63      0.00
    3    8   26     10.39      0.00
    4    8   26      3.67      0.00
    5    8   26     11.47      0.00
    6    8   26     18.42      0.00
    7    8   26     12.22      0.00
    8    8   26     -1.58      0.00
    1    9   26    -15.29      0.00
    2    9   26     -3.04      0.00
    3    9   26     21.76      0.00
    4    9   26    -12.78      0.00
    5    9   26    -11.16      0.00
    6    9   26      8.36      0.00
    7    9   26    -20.08      0.00
    8    9   26      2.52      0.00
    9    9   26      4.41      0.00
    0   10   26     10.74      0.00
    1   10   26     15.30      0.00
    2   10   26     -6.14      0.00
    3   10   26      1.67      0.00
    4   10   26      8.92      0.00
    5   10   26     -9.02      0.00
    6   10   26     56.27      0.00
    7   10   26     -1.13      0.00
    8   10   26     -1.06      0.00
    9   10   26     -6.71      0.00
    1   11   26     -4.82      0.00
    2   11   26      3.40      0.00
    3   11   26    -12.45      0.00
    4   11   26     66.08      0.00
    5   11   26    -23.18      0.00
    6   11   26     -1.01      0.00
    7   11   26     -9.10      0.00
    8   11   26     -0.69      0.00
    0   12   26     29.07      0.00
    1   12   26    -23.85      0.00
    2   12   26      7.08      0.00
    3   12   26    -10.26      0.00
    4   12   26     -8.81      0.00
    5   12   26     11.83      0.00
    6   12   26     26.09      0.00
    7   12   26     10.84      0.00
    1   13   26     -7.27      0.00
    2   13   26     16.65      0.00
    3   13   26     -9.54      0.00
    4   13   26      1.38      0.00
    5   13   26    -12.63      0.00
    6   13   26      5.43      0.00
    3   14   26     -2.44      0.00
    4   14   26    -26.32      0.00
    1    2   27     -0.50      0.00
    0    3   27     11.35      0.00
    1    3   27     -8.54      0.00
    2    3   27     12.44      0.00
    1    4   27      1.13      0.00
    2    4   27    -20.76      0.00
    3    4   27      9.15      0.00
    0    5   27     -9.68      0.00
    1    5   27    -17.08      0.00
    2    5   27    -10.03      0.00
    3    5   27      5.27      0.00
    4    5   27     -2.31      0.00
    1    6   27     -5.85      0.00
    2    6   27      0.61      0.00
    3    6   27     21.73      0.00
    4    6   27      5.77      0.00
    5    6   27      1.15      0.00
    0    7   27      4.94      0.00
    1    7   27     17.14      0.00
    2    7   27    -19.75      0.00
    3    7   27     10.31      0.00
    4    7   27    -10.83      0.00
    5    7   27     28.63      0.00
    6    7   27     11.39      0.00
    1    8   27    -34.31      0.00
    2    8   27     16.79      0.00
    3    8   27     22.59      0.00
    4    8   27     -0.46      0.00
    5    8   27    -10.99      0.00
    6    8   27      5.93      0.00
    7    8   27    -15.22      0.00
    0    9   27      3.51      0.00
    1    9   27    -38.01      0.00
    2    9   27      9.59      0.00
    3    9   27     14.34      0.00
    4    9   27     27.67      0.00
    5    9   27      0.21      0.00
    6    9   27     11.65      0.00
    7    9   27     -8.84      0.00
    8    9   27     -2.73      0.00
    1   10   27    -13.03      0.00
    2   10   27     17.83      0.00
    3   10   27     -4.61      0.00
    4   10   27    -25.37      0.00
    5   10   27    -15.44      0.00
    6   10   27     18.62      0.00
    7   10   27     -9.54      0.00
    8   10   27      2.26      0.00
    0   11   27    -82.30      0.00
    1   11   27    -27.38      0.00
    2   11   27      8.88      0.00
    3   11   27      5.01      0.00
    4   11   27     -8.28      0.00
    5   11   27    -14.92      0.00
    6   11   27     -4.06      0.00
    7   11   27     -2.87      0.00
    1   12   27      1.22      0.00
    2   12   27     -1.42      0.00
    3   12   27     12.87      0.00
    4   12   27     14.31      0.00
    5   12   27     18.91      0.00
    6   12   27     -4.35      0.00
    0   13   27    -14.51      0.00
    1   13   27     19.43      0.00
    2   13   27     12.79      0.00
    3   13   27    -14.82      0.00
    4   13   27     -5.26      0.00
    0    2   28    -51.07      0.00
    1    2   28      4.11      0.00
    2    2   28      6.79      0.00
    1    3   28      6.42      0.00
    2    3   28      0.79      0.00
    3    3   28     10.23      0.00
    0    4   28      8.71      0.00
    1    4   28     12.39      0.00
    2    4   28     -3.48      0.00
    3    4   28      4.07      0.00
    4    4   28    -35.46      0.00
    1    5   28      3.15      0.00
    2    5   28     -7.78      0.00
    3    5   28    -33.22      0.00
    4    5   28     -6.37      0.00
    5    5   28     22.48      0.00
    0    6   28     14.19      0.00
    1    6   28     -0.52      0.00
    2    6   28     -5.49      0.00
    3    6   28      1.52      0.00
    4    6   28    -20.66      0.00
    5    6   28     -8.60      0.00
    6    6   28     15.83      0.00
    1    7   28     14.13      0.00
    2    7   28     -0.87      0.00
    3    7   28     12.91      0.00
    4    7   28     -5.25      0.00
    5    7   28    -11.57      0.00
    6    7   28      7.50      0.00
    7    7   28     -3.06      0.00
    0    8   28    -11.53      0.00
    1    8   28      3.04      0.00
    2    8   28     16.22      0.00
    3    8   28     30.60      0.00
    4    8   28      4.21      0.00
    5    8   28     13.46      0.00
    6    8   28     70.25      0.00
    7    8   28      7.70      0.00
    8    8   28     -4.79      0.00
    1    9   28    -23.43      0.00
    2    9   28     73.35      0.00
    3    9   28     15.31      0.00
    4    9   28     11.81      0.00
    5    9   28    -16.59      0.00
    6    9   28     -4.81      0.00
    7    9   28    -26.55      0.00
    8    9   28      3.91      0.00
    0   10   28    146.08      0.00
    1   10   28    194.78      0.00
    2   10   28    -16.79      0.00
    3   10   28    -45.90      0.00
    4   10   28      4.18      0.00
    5   10   28    -24.18      0.00
    6   10   28     10.66      0.00
    7   10   28      5.65      0.00
    1   11   28      5.13      0.00
    2   11   28     -2.53      0.00
    3   11   28      5.39      0.00
    4   11   28     -7.51      0.00
    5   11   28    -20.54      0.00
    6   11   28     -7.81      0.00
    0   12   28      9.04      0.00
    1   12   28    -20.46      0.00
    2   12   28      5.38      0.00
    3   12   28    -12.05      0.00
    4   12   28    -16.02      0.00
    1   13   28     -1.94      0.00
    2   13   28     13.40      0.00
    0    3   29     22.39      0.00
    1    3   29     12.51      0.00
    2    3   29     -2.36      0.00
    1    4   29    -11.96      0.00
    2    4   29    -10.34      0.00
    3    4   29     -2.94      0.00
    0    5   29      8.83      0.00
    1    5   29     25.00      0.00
    2    5   29     10.61      0.00
    3    5   29      6.13      0.00
    4    5   29      3.95      0.00
    1    6   29     -5.14      0.00
    2    6   29    -35.86      0.00
    3    6   29     26.88      0.00
    4    6   29     12.38      0.00
    5    6   29     10.40      0.00
    0    7   29    -38.10      0.00
    1    7   29     -3.01      0.00
    2    7   29      7.42      0.00
    3    7   29     16.27      0.00
    4    7   29    -12.65      0.00
    5    7   29     17.57      0.00
    6    7   29    -17.78      0.00
    1    8   29     23.57      0.00
    2    8   29     24.05      0.00
    3    8   29    -36.58      0.00
    4    8   29    -67.18      0.00
    5    8   29    -33.67      0.00
    6    8   29      1.79      0.00
    7    8   29      1.08      0.00
    0    9   29    163.33      0.00
    1    9   29   -249.24      0.00
    2    9   29    -39.72      0.00
    3    9   29     13.57      0.00
    4    9   29      5.95      0.00
    5    9   29    -16.98      0.00
    6    9   29     -7.31      0.00
    7    9   29    -15.02      0.00
    1   10   29    -36.47      0.00
    2   10   29    -55.49      0.00
    3   10   29     17.53      0.00
    4   10   29     -8.52      0.00
    5   10   29    -16.42      0.00
    6   10   29     12.40      0.00
    0   11   29     -4.54      0.00
    1   11   29     -2.67      0.00
    2   11   29    -18.81      0.00
    3   11   29      0.10      0.00
    4   11   29      7.86      0.00
    1   12   29     -0.42      0.00
    2   12   29    -11.41      0.00
    3   12   29     -6.40      0.00
    1   13   29     53.69      0.00
    1    3   30      2.39      0.00
    2    3   30      0.02      0.00
    3    3   30      4.62      0.00
    0    4   30     -9.38      0.00
    1    4   30      8.57      0.00
    2    4   30     -8.14      0.00
    3    4   30     -6.04      0.00
    4    4   30     16.06      0.00
    1    5   30     -9.36      0.00
    2    5   30      0.40      0.00
    3    5   30     22.89      0.00
    4    5   30    -18.12      0.00
    5    5   30     26.74      0.00
    0    6   30    -44.58      0.00
    1    6   30     -1.85      0.00
    2    6   30     11.03      0.00
    3    6   30     20.43      0.00
    4    6   30      9.40      0.00
    5    6   30    -72.09      0.00
    6    6   30      1.10      0.00
    1    7   30     -1.58      0.00
    2    7   30     17.47      0.00
    3    7   30     -3.27      0.00
    4    7   30    -37.63      0.00
    5    7   30     -2.84      0.00
    6    7   30    -10.19      0.00
    7    7   30    -29.95      0.00
    1    8   30    -62.66      0.00
    3    8   30     20.72      0.00
    4    8   30      6.50      0.00
    5    8   30     12.38      0.00
    6    8   30     26.30      0.00
    7    8   30    -10.30      0.00
    1    9   30    -51.38      0.00
    2    9   30     -0.94      0.00
    3    9   30     15.24      0.00
    4    9   30     18.08      0.00
    5    9   30     -1.33      0.00
    6    9   30     -2.14      0.00
    0   10   30     -0.18      0.00
    1   10   30     60.04      0.00
    2   10   30    -17.55      0.00
    3   10   30     -2.96      0.00
    4   10   30     -3.53      0.00
    1   11   30    -19.62      0.00
    2   11   30      0.06      0.00
    3   11   30     -6.73      0.00
    1   12   30     -7.19      0.00
    0    3   31     -5.23      0.00
    1    3   31     19.43      0.00
    2    3   31     13.98      0.00
    1    4   31      4.11      0.00
    2    4   31    -10.52      0.00
    3    4   31     -2.79      0.00
    0    5   31     -6.48      0.00
    1    5   31    -12.85      0.00
    2    5   31     25.19      0.00
    3    5   31      9.47      0.00
    4    5   31    -78.71      0.00
    1    6   31      6.12      0.00
    2    6   31    -51.53      0.00
    3    6   31      7.88      0.00
    4    6   31     33.24      0.00
    5    6   31    -17.97      0.00
    0    7   31     33.45      0.00
    1    7   31     35.90      0.00
    2    7   31     -4.09      0.00
    3    7   31     12.80      0.00
    4    7   31      0.62      0.00
    5    7   31     25.09      0.00
    6    7   31     -4.79      0.00
    1    8   31    -27.84      0.00
    2    8   31     16.38      0.00
    3    8   31     25.45      0.00
    4    8   31      8.88      0.00
    5    8   31      5.76      0.00
    0    9   31     40.33      0.00
    1    9   31     10.62      0.00
    2    9   31      6.84      0.00
    3    9   31     19.61      0.00
    4    9   31     -1.40      0.00
    1   10   31     12.68      0.00
    2   10   31     14.17      0.00
    3   10   31      7.83      0.00
    1   11   31     21.73      0.00
    2   11   31     18.56      0.00
    0    4   32     23.83      0.00
    1    4   32     13.22      0.00
    2    4   32    -62.95      0.00
    3    4   32     11.11      0.00
    4    4   32     29.49      0.00
    1    5   32     13.16      0.00
    2    5   32     19.39      0.00
    3    5   32      6.04      0.00
    4    5   32     13.01      0.00
    5    5   32     22.05      0.00
    0    6   32     16.15      0.00
    1    6   32      7.74      0.00
    2    6   32     -1.41      0.00
    3    6   32    -19.62      0.00
    4    6   32      9.39      0.00
    5    6   32      1.40      0.00
    6    6   32     23.39      0.00
    1    7   32    -10.22      0.00
    2    7   32     16.64      0.00
    3    7   32      9.87      0.00
    4    7   32     -5.00      0.00
    5    7   32      1.48      0.00
    0    8   32     40.08      0.00
    1    8   32     -9.54      0.00
    2    8   32    -15.80      0.00
    3    8   32    -12.49      0.00
    4    8   32     -5.44      0.00
    1    9   32    -14.83      0.00
    2    9   32    -16.27      0.00
    3    9   32     -2.50      0.00
    1   10   32     -0.69      0.00
    2   10   32     11.37      0.00
    1    4   33      8.85      0.00
    2    4   33      2.36      0.00
    3    4   33     18.10      0.00
    0    5   33      2.25      0.00
    1    5   33    -14.22      0.00
    2    5   33     -9.57      0.00
    3    5   33     -2.75      0.00
    4    5   33     19.83      0.00
    1    6   33    -11.55      0.00
    2    6   33     13.53      0.00
    3    6   33    -11.11      0.00
    4    6   33     -9.16      0.00
    1    7   33     14.75      0.00
    2    7   33    -14.17      0.00
    3    7   33     19.98      0.00
    4    7   33     -4.14      0.00
    1    8   33      5.04      0.00
    2    8   33     -1.80      0.00
    3    8   33     -2.56      0.00
    1    9   33    -12.99      0.00
    0    4   34      7.08      0.00
    1    4   34     16.56      0.00
    2    4   34    -22.87      0.00
    1    5   34     10.55      0.00
    2    5   34     -1.54      0.00
    3    5   34    -20.80      0.00
    4    5   34     13.54      0.00
    1    6   34      1.77      0.00
    2    6   34     23.79      0.00
    3    6   34      4.79      0.00
    1    7   34    -10.70      0.00
    2    7   34     -3.73      0.00
    1    8   34      9.51      0.00
    1    5   35    -19.37      0.00
    2    5   35     12.04      0.00
    1    6   35     12.62      0.00
    1    7   35    -20.85      0.00
    1    1    0   -236.76      0.00
    2    2    0    185.49      0.00
    3    3    0    142.43      0.00
    4    4    0    -71.73      0.00
    4    5    0     -0.27      0.00
    5    5    0     45.13      0.00
    5    6    0     33.38      0.00
    6    6    0     30.26      0.00
    5    7    0    -51.35      0.00
    6    7    0    -11.46      0.00
    7    7    0     -9.68      0.00
    6    8    0      1.78      0.00
    7    8    0    -20.05      0.00
    8    8    0    -52.23      0.00
    6    9    0    -16.53      0.00
    7    9    0     16.72      0.00
    8    9    0      2.05      0.00
    9    9    0      5.18      0.00
    6   10    0     34.91      0.00
    7   10    0     21.16      0.00
    8   10    0     30.19      0.00
    9   10    0     11.85      0.00
   10   10    0    -18.58      0.00
    7   11    0    -28.58      0.00
    8   11    0    -29.83      0.00
    9   11    0     51.72      0.00
   10   11    0    -30.73      0.00
   11   11    0   -113.73      0.00
    7   12    0    -14.17      0.00
    8   12    0     28.71      0.00
    9   12    0    -13.95      0.00
   10   12    0    -40.54      0.00
   11   12    0    -22.20      0.00
   12   12    0     30.77      0.00
    6   13    0    -64.48      0.00
    7   13    0     12.40      0.00
    8   13    0     23.40      0.00
    9   13    0    -36.65      0.00
   10   13    0     -3.59      0.00
   11   13    0     -9.37      0.00
   12   13    0     13.26      0.00
   13   13    0    -14.07      0.00
    7   14    0    -37.65      0.00
    8   14    0    -50.75      0.00
    9   14    0      6.53      0.00
   10   14    0     -9.20      0.00
   11   14    0     -1.61      0.00
   12   14    0     -0.12      0.00
   13   14    0     28.57      0.00
   14   14    0     26.39      0.00
    8   15    0      1.55      0.00
    9   15    0      1.96      0.00
   10   15    0      0.28      0.00
   11   15    0     15.10      0.00
   12   15    0    -13.86      0.00
   13   15    0      0.28      0.00
   14   15    0     23.93      0.00
   15   15    0    -41.35      0.00
    8   16    0     30.64      0.00
    9   16    0    -11.70      0.00
   10   16    0    -24.11      0.00
   11   16    0    -12.58      0.00
   12   16    0     36.28      0.00
   13   16    0    -14.94      0.00
   14   16    0     12.04      0.00
    8   17    0     18.91      0.00
    9   17    0      0.44      0.00
   10   17    0    -17.45      0.00
   11   17    0      6.63      0.00
   12   17    0      5.28      0.00
   13   17    0     -8.37      0.00
    8   18    0    -23.76      0.00
    9   18    0      4.88      0.00
   10   18    0     32.97      0.00
   11   18    0     -6.54      0.00
   12   18    0    -10.33      0.00
    8   19    0    -37.71      0.00
    9   19    0     -0.31      0.00
   10   19    0    -13.73      0.00
    7   20    0     -3.96      0.00
    8   20    0     33.76      0.00
    0    1    1   -438.33      0.00
    4    5    1    -26.78      0.00
    5    6    1      3.52      0.00
    6    7    1     10.45      0.00
    6    8    1     16.52      0.00
    7    8    1    -13.59      0.00
    6    9    1      9.26      0.00
    7    9    1     -2.74      0.00
    8    9    1     18.34      0.00
    7   10    1    -17.64      0.00
    8   10    1    -14.14      0.00
    9   10    1    -17.94      0.00
    7   11    1     15.63      0.00
    8   11    1     -9.05      0.00
    9   11    1      3.53      0.00
   10   11    1     30.55      0.00
    7   12    1      5.39      0.00
    8   12    1    -11.61      0.00
    9   12    1    -10.06      0.00
   10   12    1     14.16      0.00
   11   12    1      4.72      0.00
    6   13    1     -1.66      0.00
    7   13    1     27.89      0.00
    8   13    1     -6.64      0.00
    9   13    1    -15.42      0.00
   10   13    1     -2.98      0.00
   11   13    1      4.62      0.00
   12   13    1      6.01      0.00
    8   14    1    -26.03      0.00
    9   14    1     -3.68      0.00
   10   14    1      6.34      0.00
   11   14    1    -15.94      0.00
   12   14    1    -18.05      0.00
   13   14    1     -4.57      0.00
    8   15    1     13.63      0.00
    9   15    1      2.29      0.00
   10   15    1     -7.70      0.00
   11   15    1     15.84      0.00
   12   15    1     -2.31      0.00
   13   15    1     -2.63      0.00
   14   15    1     -2.49      0.00
    8   16    1     19.03      0.00
    9   16    1     -6.94      0.00
   10   16    1     -5.42      0.00
   11   16    1    -23.82      0.00
   12   16    1     -1.98      0.00
   13   16    1      1.62      0.00
   14   16    1      1.61      0.00
    8   17    1    -21.24      0.00
    9   17    1      7.02      0.00
   10   17    1     -7.67      0.00
   11   17    1    -16.51      0.00
   12   17    1    -20.26      0.00
   13   17    1     -2.49      0.00
    8   18    1      9.47      0.00
    9   18    1      1.93      0.00
   10   18    1      5.33      0.00
   11   18    1     13.90      0.00
    8   19    1    -15.97      0.00
    9   19    1    -10.15      0.00
   10   19    1     -5.28      0.00
    7   20    1      0.25      0.00
    8   20    1     11.09      0.00
    0    0    2    606.35      0.00
    4    4    2    -93.52      0.00
    4    5    2    -17.82      0.00
    5    5    2     -2.13      0.00
    5    6    2     17.44      0.00
    6    6    2     -9.71      0.00
    5    7    2    -45.40      0.00
    6    7    2      4.57      0.00
    7    7    2     17.25      0.00
    6    8    2     14.94      0.00
    7    8    2     -0.78      0.00
    8    8    2    -39.54      0.00
    7    9    2     25.69      0.00
    8    9    2    -24.92      0.00
    9    9    2    -43.83      0.00
    7   10    2      2.84      0.00
    8   10    2      8.94      0.00
    9   10    2      3.65      0.00
   10   10    2      9.04      0.00
    7   11    2    -34.62      0.00
    8   11    2     17.17      0.00
    9   11    2     20.16      0.00
   10   11    2      7.87      0.00
   11   11    2      4.63      0.00
    8   12    2     16.99      0.00
    9   12    2     -7.86      0.00
   10   12    2      0.52      0.00
   11   12    2     -4.60      0.00
   12   12    2     17.62      0.00
    7   13    2     25.83      0.00
    8   13    2      5.28      0.00
    9   13    2     14.74      0.00
   10   13    2     -5.11      0.00
   11   13    2      1.64      0.00
   12   13    2      4.30      0.00
   13   13    2    -15.87      0.00
    8   14    2      4.35      0.00
    9   14    2      0.31      0.00
   10   14    2      1.79      0.00
   11   14    2      2.17      0.00
   12   14    2      5.12      0.00
   13   14    2     10.28      0.00
   14   14    2      9.62      0.00
    8   15    2    -11.48      0.00
    9   15    2     19.51      0.00
   10   15    2     22.63      0.00
   11   15    2      9.08      0.00
   12   15    2      0.25      0.00
   13   15    2     -6.95      0.00
   14   15    2     12.60      0.00
   15   15    2      8.36      0.00
    8   16    2     22.88      0.00
    9   16    2      5.84      0.00
   10   16    2     10.30      0.00
   11   16    2     -6.14      0.00
   12   16    2      8.12      0.00
   13   16    2     -8.07      0.00
   14   16    2      6.98      0.00
    8   17    2     30.72      0.00
    9   17    2      9.33      0.00
   10   17    2      1.04      0.00
   11   17    2     -1.01      0.00
   12   17    2     10.59      0.00
   13   17    2     -7.63      0.00
    8   18    2      3.05      0.00
    9   18    2      4.75      0.00
   10   18    2      6.75      0.00
   11   18    2     -1.01      0.00
    8   19    2    -23.66      0.00
    9   19    2    -14.30      0.00
   10   19    2     -2.17      0.00
    8   20    2     15.74      0.00
    6    7    3      2.68      0.00
    7    8    3    -18.08      0.00
    7    9    3     10.75      0.00
    8    9    3     24.10      0.00
    7   10    3      1.33      0.00
    8   10    3     -7.61      0.00
    9   10    3     -9.29      0.00
    8   11    3    -21.69      0.00
    9   11    3    -11.35      0.00
   10   11    3      9.02      0.00
    8   12    3     33.02      0.00
    9   12    3     25.00      0.00
   10   12    3      4.03      0.00
   11   12    3      4.03      0.00
    7   13    3    -22.58      0.00
    8   13    3      0.95      0.00
    9   13    3     23.15      0.00
   10   13    3     -6.11      0.00
   11   13    3     -0.35      0.00
   12   13    3     19.76      0.00
    8   14    3     -9.33      0.00
    9   14    3      9.84      0.00
   10   14    3     -8.24      0.00
   11   14    3     25.90      0.00
   12   14    3    -16.35      0.00
   13   14    3    -11.92      0.00
    8   15    3     -1.98      0.00
    9   15    3     16.44      0.00
   10   15    3     11.49      0.00
   11   15    3      1.07      0.00
   12   15    3     -4.93      0.00
   13   15    3      3.96      0.00
   14   15    3      9.73      0.00
    8   16    3     -2.66      0.00
    9   16    3     22.53      0.00
   10   16    3     -7.58      0.00
   11   16    3      4.46      0.00
   12   16    3     20.83      0.00
   13   16    3     13.14      0.00
   14   16    3      2.87      0.00
    8   17    3     -9.46      0.00
    9   17    3      7.65      0.00
   10   17    3      8.87      0.00
   11   17    3     11.21      0.00
   12   17    3      3.52      0.00
   13   17    3     -4.78      0.00
    8   18    3      2.20      0.00
    9   18    3     -4.60      0.00
   10   18    3      0.14      0.00
   11   18    3     -2.14      0.00
    8   19    3     -0.51      0.00
    9   19    3     -2.53      0.00
   10   19    3     -7.34      0.00
    7   20    3     38.85      0.00
    8   20    3     13.18      0.00
    6    6    4     12.89      0.00
    7    7    4     24.08      0.00
    7    8    4     -6.18      0.00
    8    8    4    -18.96      0.00
    7    9    4    -17.91      0.00
    8    9    4      9.40      0.00
    9    9    4     11.03      0.00
    8   10    4     17.46      0.00
    9   10    4     13.20      0.00
   10   10    4    -35.75      0.00
    8   11    4     -2.17      0.00
    9   11    4     -5.47      0.00
   10   11    4     19.16      0.00
   11   11    4      3.01      0.00
    8   12    4     -1.55      0.00
    9   12    4    -10.11      0.00
   10   12    4    -17.97      0.00
   11   12    4     -8.88      0.00
   12   12    4      8.77      0.00
    7   13    4      3.84      0.00
    8   13    4     30.71      0.00
    9   13    4     -6.04      0.00
   10   13    4     16.67      0.00
   11   13    4    -16.24      0.00
   12   13    4     -2.60      0.00
   13   13    4     16.10      0.00
    9   14    4     -0.72      0.00
   10   14    4     -7.93      0.00
   11   14    4      2.95      0.00
   12   14    4    -10.62      0.00
   13   14    4      0.25      0.00
   14   14    4    -15.07      0.00
    9   15    4     -0.43      0.00
   10   15    4    -15.30      0.00
   11   15    4      1.19      0.00
   12   15    4     -2.68      0.00
   13   15    4      2.58      0.00
   14   15    4     10.33      0.00
   15   15    4     14.33      0.00
    8   16    4    -37.77      0.00
    9   16    4    -16.13      0.00
   10   16    4     -6.69      0.00
   11   16    4    -14.94      0.00
   12   16    4      3.85      0.00
   13   16    4    -18.81      0.00
   14   16    4      4.50      0.00
    8   17    4    -28.80      0.00
    9   17    4    -21.23      0.00
   10   17    4      2.71      0.00
   11   17    4    -10.61      0.00
   12   17    4     26.90      0.00
   13   17    4      4.53      0.00
    7   18    4    -24.09      0.00
    8   18    4     39.86      0.00
    9   18    4     -2.83      0.00
   10   18    4      8.20      0.00
   11   18    4      5.18      0.00
    7   19    4     -1.06      0.00
    8   19    4     -7.51      0.00
    9   19    4     13.97      0.00
   10   19    4     14.65      0.00
    7   20    4    -11.30      0.00
    8    9    5     14.83      0.00
    8   10    5     -8.01      0.00
    9   10    5      1.46      0.00
    8   11    5     -9.10      0.00
    9   11    5     -5.52      0.00
   10   11    5    -25.25      0.00
    9   12    5    -10.13      0.00
   10   12    5      7.19      0.00
   11   12    5     -3.53      0.00
    8   13    5    -36.69      0.00
    9   13    5      5.45      0.00
   10   13    5     -1.75      0.00
   11   13    5    -22.01      0.00
   12   13    5     -1.60      0.00
    8   14    5    -33.26      0.00
    9   14    5     13.54      0.00
   10   14    5     10.98      0.00
   11   14    5     23.32      0.00
   12   14    5     19.09      0.00
   13   14    5    -21.07      0.00
    8   15    5     -4.10      0.00
    9   15    5    -17.76      0.00
   10   15    5      7.25      0.00
   11   15    5     -7.89      0.00
   12   15    5    -17.09      0.00
   13   15    5      1.78      0.00
   14   15    5     -0.98      0.00
    8   16    5    -24.06      0.00
    9   16    5      2.49      0.00
   10   16    5    -14.85      0.00
   11   16    5    -23.72      0.00
   12   16    5     -8.66      0.00
   13   16    5     -0.28      0.00
   14   16    5     -5.72      0.00
    7   17    5     19.06      0.00
    8   17    5     10.69      0.00
    9   17    5     -8.18      0.00
   10   17    5    -12.91      0.00
   11   17    5      6.47      0.00
   12   17    5     -0.14      0.00
   13   17    5      2.73      0.00
    7   18    5     -3.26      0.00
    8   18    5     -2.31      0.00
    9   18    5      5.01      0.00
   10   18    5      3.48      0.00
   11   18    5     -2.70      0.00
    7   19    5    -14.46      0.00
    8   19    5    -10.95      0.00
    9   19    5      8.76      0.00
    6   20    5     -1.82      0.00
    7   20    5     -6.10      0.00
    8    8    6     -8.54      0.00
    8    9    6     -0.43      0.00
    9    9    6      5.79      0.00
    9   10    6      0.98      0.00
   10   10    6    -20.32      0.00
    9   11    6     16.14      0.00
   10   11    6     -1.80      0.00
   11   11    6    -11.98      0.00
    9   12    6      3.47      0.00
   10   12    6      5.11      0.00
   11   12    6    -10.56      0.00
   12   12    6     28.39      0.00
    8   13    6     35.05      0.00
    9   13    6      0.89      0.00
   10   13    6     12.69      0.00
   11   13    6      4.38      0.00
   12   13    6    -14.42      0.00
   13   13    6    -16.29      0.00
    8   14    6    -28.34      0.00
    9   14    6     -2.40      0.00
   10   14    6      2.20      0.00
   11   14    6     -8.19      0.00
   12   14    6    -15.66      0.00
   13   14    6    -33.89      0.00
   14   14    6     -7.04      0.00
    8   15    6    -12.46      0.00
    9   15    6      8.68      0.00
   10   15    6      2.41      0.00
   11   15    6    -13.11      0.00
   12   15    6      1.06      0.00
   13   15    6      0.44      0.00
   14   15    6      5.99      0.00
   15   15    6     13.60      0.00
    8   16    6     14.49      0.00
    9   16    6      1.09      0.00
   10   16    6     21.04      0.00
   11   16    6      8.49      0.00
   12   16    6      4.75      0.00
   13   16    6     -8.85      0.00
   14   16    6     -7.79      0.00
    8   17    6     17.01      0.00
    9   17    6      0.52      0.00
   10   17    6    -11.91      0.00
   11   17    6     -6.92      0.00
   12   17    6     19.94      0.00
    7   18    6      8.14      0.00
    8   18    6      1.71      0.00
    9   18    6      4.55      0.00
   10   18    6    -21.21      0.00
   11   18    6    -10.74      0.00
    7   19    6    -15.03      0.00
    8   19    6     -3.18      0.00
    9   19    6     -9.23      0.00
    5   20    6    -14.09      0.00
    6   20    6     -2.97      0.00
    7   20    6     -9.02      0.00
    9   10    7      1.38      0.00
    9   11    7      5.98      0.00
   10   11    7     18.96      0.00
    9   12    7     15.66      0.00
   10   12    7    -20.28      0.00
   11   12    7      0.30      0.00
    8   13    7     -8.86      0.00
    9   13    7     -5.55      0.00
   10   13    7      0.77      0.00
   11   13    7    -20.33      0.00
   12   13    7     -2.49      0.00
    8   14    7     10.80      0.00
    9   14    7      2.24      0.00
   10   14    7      1.22      0.00
   11   14    7    -22.14      0.00
   12   14    7     35.97      0.00
   13   14    7     26.57      0.00
    8   15    7    -15.21      0.00
    9   15    7     -3.79      0.00
   10   15    7      0.42      0.00
   11   15    7      0.54      0.00
   12   15    7     15.25      0.00
   13   15    7      1.32      0.00
   14   15    7      1.88      0.00
    8   16    7     13.86      0.00
    9   16    7     -4.42      0.00
   10   16    7     25.26      0.00
   11   16    7     14.48      0.00
   12   16    7     -9.62      0.00
   13   16    7    -13.22      0.00
    8   17    7     10.95      0.00
    9   17    7      8.74      0.00
   10   17    7     -5.87      0.00
   11   17    7     10.83      0.00
   12   17    7      1.09      0.00
    8   18    7     24.33      0.00
    9   18    7      3.50      0.00
   10   18    7     -8.40      0.00
   11   18    7     -6.16      0.00
    7   19    7     15.42      0.00
    8   19    7     32.27      0.00
    9   19    7    -10.85      0.00
    3   20    7      3.30      0.00
    4   20    7     42.44      0.00
    5   20    7     16.46      0.00
    6   20    7    -17.75      0.00
    7   20    7      3.35      0.00
    9    9    8      7.21      0.00
    9   10    8      2.33      0.00
   10   10    8      8.90      0.00
    9   11    8      1.29      0.00
   10   11    8      4.63      0.00
   11   11    8    -13.28      0.00
    9   12    8     -5.18      0.00
   10   12    8     19.73      0.00
   11   12    8     -8.29      0.00
   12   12    8     12.49      0.00
    8   13    8    -43.58      0.00
    9   13    8      6.67      0.00
   10   13    8     18.76      0.00
   11   13    8    -20.12      0.00
   12   13    8     12.53      0.00
   13   13    8     15.77      0.00
    8   14    8      0.64      0.00
    9   14    8      2.84      0.00
   10   14    8     27.91      0.00
   11   14    8     13.76      0.00
   12   14    8     18.73      0.00
   13   14    8     -9.84      0.00
   14   14    8     -6.11      0.00
    8   15    8    -11.59      0.00
    9   15    8      6.05      0.00
   10   15    8     11.77      0.00
   11   15    8    -11.04      0.00
   12   15    8    -19.41      0.00
   13   15    8      4.09      0.00
   14   15    8     17.98      0.00
    8   16    8    -32.98      0.00
    9   16    8    -18.98      0.00
   10   16    8      4.35      0.00
   11   16    8     -9.05      0.00
   12   16    8     27.36      0.00
   13   16    8      3.63      0.00
    8   17    8    -13.01      0.00
    9   17    8    -14.56      0.00
   10   17    8      8.31      0.00
   11   17    8     10.89      0.00
   12   17    8     -4.72      0.00
    8   18    8     15.34      0.00
    9   18    8     -7.05      0.00
   10   18    8     12.72      0.00
   11   18    8     -0.71      0.00
    7   19    8    -14.12      0.00
    8   19    8     13.04      0.00
    9   19    8      6.90      0.00
    3   20    8     12.22      0.00
    4   20    8      7.82      0.00
    5   20    8     -6.87      0.00
    6   20    8    -11.36      0.00
    9   10    9     19.27      0.00
    9   11    9      9.17      0.00
   10   11    9      0.22      0.00
   10   12    9    -11.60      0.00
   11   12    9     23.16      0.00
    9   13    9     15.91      0.00
   10   13    9    -13.62      0.00
   11   13    9     22.01      0.00
   12   13    9    -11.11      0.00
    9   14    9      8.68      0.00
   10   14    9    -22.81      0.00
   11   14    9    -22.54      0.00
   12   14    9     25.75      0.00
   13   14    9      4.11      0.00
    9   15    9      1.37      0.00
   10   15    9    -12.37      0.00
   11   15    9     -1.35      0.00
   12   15    9      7.53      0.00
   13   15    9    -14.40      0.00
   14   15    9    -10.22      0.00
    9   16    9     -4.03      0.00
   10   16    9      9.72      0.00
   11   16    9    -16.33      0.00
   12   16    9      3.82      0.00
   13   16    9    -14.45      0.00
    8   17    9    -15.22      0.00
    9   17    9    -13.15      0.00
   10   17    9     11.75      0.00
   11   17    9      2.77      0.00
   12   17    9     -4.96      0.00
    8   18    9     34.42      0.00
    9   18    9     -1.26      0.00
   10   18    9     -3.68      0.00
    7   19    9      5.38      0.00
    8   19    9      0.30      0.00
    3   20    9      1.76      0.00
    4   20    9     -0.86      0.00
    5   20    9     15.62      0.00
    6   20    9      2.96      0.00
    0    0   10      7.43      0.00
    9   10   10     -6.80      0.00
   10   10   10    -13.44      0.00
    8   11   10     26.91      0.00
   10   11   10     22.93      0.00
   11   11   10    -20.63      0.00
   10   12   10     43.20      0.00
   11   12   10      2.82      0.00
   12   12   10    -20.26      0.00
   10   13   10    -16.86      0.00
   11   13   10    -18.49      0.00
   12   13   10     -6.58      0.00
   13   13   10     -5.36      0.00
    9   14   10     14.30      0.00
   10   14   10     -8.49      0.00
   11   14   10    -13.67      0.00
   12   14   10    -12.31      0.00
   13   14   10     -3.67      0.00
   14   14   10     37.87      0.00
    9   15   10    -17.24      0.00
   10   15   10    -25.94      0.00
   11   15   10    -14.44      0.00
   12   15   10     22.03      0.00
   13   15   10      4.88      0.00
   14   15   10      0.61      0.00
    9   16   10      2.13      0.00
   10   16   10     24.54      0.00
   11   16   10      2.68      0.00
   12   16   10     22.18      0.00
   13   16   10    -10.65      0.00
    9   17   10    -23.22      0.00
   10   17   10     26.92      0.00
   11   17   10     -5.94      0.00
   12   17   10    -20.90      0.00
    9   18   10    -20.96      0.00
   10   18   10    -13.81      0.00
    6   19   10    -25.77      0.00
    7   19   10     15.74      0.00
    8   19   10      6.54      0.00
    0   20   10     27.61      0.00
    2   20   10    -19.82      0.00
    3   20   10     16.28      0.00
    4   20   10     25.39      0.00
    5   20   10     -3.03      0.00
   11   12   11     25.39      0.00
   11   13   11      1.59      0.00
   12   13   11    -25.68      0.00
    9   14   11     17.95      0.00
   10   14   11    -33.00      0.00
   11   14   11      1.37      0.00
   12   14   11     -1.33      0.00
   13   14   11     -3.54      0.00
    9   15   11    -10.03      0.00
   10   15   11      8.53      0.00
   11   15   11     26.80      0.00
   12   15   11     12.52      0.00
   13   15   11     -3.35      0.00
   14   15   11     -2.45      0.00
    9   16   11      5.37      0.00
   10   16   11     16.26      0.00
   11   16   11    -10.37      0.00
   12   16   11      4.72      0.00
   13   16   11      8.92      0.00
    9   17   11      7.87      0.00
   10   17   11      9.63      0.00
   11   17   11      2.34      0.00
    9   18   11     -0.03      0.00
   10   18   11     21.08      0.00
    6   19   11     29.82      0.00
    7   19   11      0.11      0.00
    8   19   11      0.53      0.00
    1   20   11      2.44      0.00
    2   20   11      7.44      0.00
    3   20   11     29.58      0.00
    4   20   11     -2.61      0.00
    5   20   11     -6.12      0.00
    0    0   12     12.79      0.00
   11   11   12      8.00      0.00
    6   12   12     21.16      0.00
   11   12   12     -3.10      0.00
   12   12   12    -24.47      0.00
   11   13   12    -21.70      0.00
   12   13   12     11.53      0.00
   13   13   12     32.97      0.00
   10   14   12      1.10      0.00
   11   14   12      5.91      0.00
   12   14   12      0.65      0.00
   13   14   12    -10.30      0.00
   14   14   12    -13.13      0.00
    9   15   12     -9.41      0.00
   10   15   12     -6.91      0.00
   11   15   12     -4.30      0.00
   12   15   12    -11.06      0.00
   13   15   12     -9.68      0.00
    9   16   12    -16.47      0.00
   10   16   12     -3.72      0.00
   11   16   12    -20.37      0.00
   12   16   12    -18.93      0.00
    9   17   12    -14.13      0.00
   10   17   12     -9.96      0.00
   11   17   12     -6.78      0.00
    9   18   12    -17.53      0.00
    5   19   12    -11.25      0.00
    6   19   12     -8.75      0.00
    7   19   12    -11.12      0.00
    0   20   12      4.94      0.00
    1   20   12    -16.81      0.00
    2   20   12     -3.74      0.00
    3   20   12      9.13      0.00
    4   20   12     23.37      0.00
    5   12   13     -8.47      0.00
   11   12   13     27.01      0.00
   11   13   13     15.13      0.00
   12   13   13     18.63      0.00
   10   14   13     -5.91      0.00
   11   14   13     35.24      0.00
   12   14   13    -18.08      0.00
   13   14   13     -2.33      0.00
   10   15   13     -0.62      0.00
   11   15   13      7.85      0.00
   12   15   13      8.77      0.00
   13   15   13      0.97      0.00
   10   16   13    -12.67      0.00
   11   16   13     -1.45      0.00
   12   16   13     18.60      0.00
    9   17   13    -23.62      0.00
   10   17   13     25.94      0.00
   11   17   13    -13.35      0.00
    9   18   13      3.06      0.00
    4   19   13    -31.81      0.00
    5   19   13    -26.61      0.00
    6   19   13    -11.47      0.00
    7   19   13    -16.79      0.00
    1   20   13     -0.70      0.00
    2   20   13    -21.77      0.00
    3   20   13    -15.33      0.00
    8    8   14     -0.28      0.00
   11   11   14     24.48      0.00
    4   12   14      5.97      0.00
   12   12   14    -25.69      0.00
   12   13   14     -5.70      0.00
   13   13   14     24.73      0.00
   12   14   14      9.83      0.00
   13   14   14      6.28      0.00
   14   14   14    -15.78      0.00
    9   15   14     -3.51      0.00
   10   15   14     24.14      0.00
   11   15   14      9.23      0.00
   12   15   14     -8.23      0.00
   13   15   14      1.78      0.00
    9   16   14    -28.03      0.00
   10   16   14     -7.76      0.00
   11   16   14     -8.74      0.00
   12   16   14    -17.26      0.00
    9   17   14      0.41      0.00
   10   17   14    -16.12      0.00
    1   19   14     22.82      0.00
    2   19   14     -1.43      0.00
    3   19   14      0.70      0.00
    4   19   14      8.23      0.00
    5   19   14     18.60      0.00
    6   19   14    -40.83      0.00
    0   20   14     25.17      0.00
    1   20   14     -1.76      0.00
    7    8   15      0.31      0.00
    3   12   15      0.35      0.00
   12   13   15    -24.95      0.00
   12   14   15     -8.74      0.00
   13   14   15     -1.24      0.00
    8   15   15    -37.96      0.00
    9   15   15     12.96      0.00
   10   15   15    -20.75      0.00
   11   15   15     -9.37      0.00
   12   15   15     -1.39      0.00
    8   16   15     -5.80      0.00
    9   16   15     -4.24      0.00
   10   16   15      6.69      0.00
   11   16   15     12.96      0.00
    8   17   15     -0.54      0.00
    9   17   15      9.75      0.00
   10   17   15    -10.02      0.00
    8   18   15     -4.10      0.00
    0   19   15    -25.60      0.00
    1   19   15     -3.29      0.00
    2   19   15     -6.19      0.00
    3   19   15     41.74      0.00
    4   19   15     11.90      0.00
    5   19   15    -22.96      0.00
    0    0   16    -31.29      0.00
    7    7   16    -17.26      0.00
    6    8   16     10.67      0.00
    5    9   16    -17.52      0.00
   12   12   16    -31.69      0.00
   12   13   16    -27.59      0.00
   13   13   16      7.38      0.00
   12   14   16      5.15      0.00
   13   14   16     12.53      0.00
    7   15   16     -4.32      0.00
    8   15   16     -1.77      0.00
    9   15   16     -8.85      0.00
   10   15   16     21.05      0.00
   11   15   16      6.54      0.00
   12   15   16     29.35      0.00
    7   16   16    -29.44      0.00
    8   16   16     11.93      0.00
    9   16   16     10.16      0.00
   10   16   16      2.91      0.00
   11   16   16      0.57      0.00
    7   17   16     -0.10      0.00
    8   17   16      1.00      0.00
    9   17   16      6.29      0.00
    7   18   16     -8.59      0.00
    1   19   16     15.64      0.00
    2   19   16     16.89      0.00
    3   19   16     -6.22      0.00
    4   19   16    -12.88      0.00
    6    7   17    -10.70      0.00
    5    8   17    -12.29      0.00
   12   13   17     10.19      0.00
   12   14   17     -0.14      0.00
   13   14   17     -3.81      0.00
    6   15   17     -5.95      0.00
    7   15   17    -11.77      0.00
    8   15   17     -3.54      0.00
    9   15   17     -5.49      0.00
   10   15   17     13.36      0.00
   11   15   17    -27.37      0.00
   12   15   17     14.22      0.00
    6   16   17     17.31      0.00
    7   16   17      1.18      0.00
    8   16   17      3.77      0.00
    9   16   17     18.17      0.00
   10   16   17     -5.59      0.00
    6   17   17    -13.28      0.00
    7   17   17     -6.99      0.00
    8   17   17     -3.29      0.00
    9   17   17     -5.55      0.00
    6   18   17      6.19      0.00
    0   19   17     19.14      0.00
    1   19   17     -8.34      0.00
    2   19   17      9.55      0.00
    3   19   17    -20.05      0.00
    0    0   18      2.18      0.00
    6    6   18      9.58      0.00
    5    7   18      8.11      0.00
    4    8   18    -15.99      0.00
   13   13   18     -5.56      0.00
   12   14   18      8.31      0.00
    5   15   18     -8.15      0.00
    6   15   18      3.26      0.00
    7   15   18     20.47      0.00
    8   15   18     -7.96      0.00
    9   15   18    -26.69      0.00
    5   16   18      0.14      0.00
    6   16   18      8.01      0.00
    7   16   18      1.98      0.00
    8   16   18     -5.07      0.00
    9   16   18    -27.37      0.00
   10   16   18     -1.85      0.00
    5   17   18      6.30      0.00
    6   17   18     17.30      0.00
    7   17   18    -26.43      0.00
    8   17   18     -3.79      0.00
    5   18   18     13.41      0.00
    5    6   19    -17.73      0.00
    4    7   19     -2.64      0.00
   12   14   19     -3.56      0.00
    3   15   19     21.34      0.00
    4   15   19    -17.61      0.00
    5   15   19      8.06      0.00
    6   15   19    -13.86      0.00
    7   15   19     -6.32      0.00
   11   15   19    -11.48      0.00
    4   16   19     19.47      0.00
    5   16   19     14.26      0.00
    6   16   19      7.12      0.00
    7   16   19      9.60      0.00
    8   16   19     13.57      0.00
    9   16   19      2.80      0.00
    4   17   19    -11.54      0.00
    5   17   19     16.93      0.00
    6   17   19      2.83      0.00
    7   17   19     -4.16      0.00
    4   18   19     -3.64      0.00
    0    0   20     17.59      0.00
    5    5   20    -26.47      0.00
    4    6   20    -12.02      0.00
    7    7   20    -35.07      0.00
   12   13   20      1.32      0.00
   11   14   20      8.55      0.00
    2   15   20    -35.96      0.00
    3   15   20    -14.25      0.00
    4   15   20     29.10      0.00
    5   15   20     10.10      0.00
    6   15   20    -38.69      0.00
    3   16   20      0.70      0.00
    4   16   20     29.94      0.00
    5   16   20     -9.17      0.00
    6   16   20     11.34      0.00
    7   16   20    -11.60      0.00
    8   16   20    -15.81      0.00
    3   17   20      6.90      0.00
    4   17   20    -24.33      0.00
    5   17   20    -28.38      0.00
    6   17   20     13.07      0.00
    0   18   20     13.49      0.00
    1   18   20     -4.33      0.00
    2   18   20     15.67      0.00
    3   18   20      5.79      0.00
    4    5   21     -0.82      0.00
   12   13   21      5.77      0.00
   11   14   21     -8.08      0.00
    1   15   21     10.02      0.00
    2   15   21      5.75      0.00
    3   15   21     -6.34      0.00
    4   15   21     -2.16      0.00
    1   16   21    -11.02      0.00
    2   16   21    -14.14      0.00
    3   16   21     19.00      0.00
    4   16   21    -12.82      0.00
    5   16   21      7.83      0.00
    6   16   21    -22.41      0.00
    7   16   21    -14.70      0.00
    8   16   21    -15.08      0.00
    2   17   21    -31.38      0.00
    3   17   21    -10.81      0.00
    4   17   21     -7.77      0.00
    5   17   21     -2.55      0.00
    0    0   22     46.85      0.00
   12   12   22     14.18      0.00
   11   13   22     -0.72      0.00
    0   14   22    -12.77      0.00
   10   14   22     -3.99      0.00
    1   15   22     -1.98      0.00
    2   15   22     13.79      0.00
    3   15   22     -3.74      0.00
    9   15   22     12.29      0.00
    0   16   22      5.88      0.00
    1   16   22    -23.28      0.00
    2   16   22    -23.37      0.00
    3   16   22     -2.69      0.00
    4   16   22      3.13      0.00
    5   16   22     -9.28      0.00
    6   16   22     -2.73      0.00
    7   16   22     -0.23      0.00
    1   17   22     -7.63      0.00
    2   17   22     -3.20      0.00
    3   17   22      6.41      0.00
    4   17   22     14.73      0.00
   11   12   23    -17.04      0.00
    0   13   23     -3.44      0.00
   10   13   23      3.68      0.00
   11   13   23     15.05      0.00
    1   14   23      5.32      0.00
    9   14   23    -10.10      0.00
    0   15   23      6.00      0.00
    1   15   23     -8.53      0.00
    2   15   23      7.36      0.00
    8   15   23      5.16      0.00
    1   16   23      2.49      0.00
    2   16   23      4.38      0.00
    3   16   23     27.80      0.00
    4   16   23      3.88      0.00
    5   16   23    -23.07      0.00
    0   17   23      8.05      0.00
    1   17   23     -4.47      0.00
    0    0   24     -3.48      0.00
    1    1   24    -19.88      0.00
   11   11   24     25.60      0.00
   10   12   24     11.71      0.00
   11   12   24     -2.38      0.00
    9   13   24      9.72      0.00
   10   13   24      4.67      0.00
    0   14   24    -25.85      0.00
    1   14   24      1.93      0.00
    8   14   24      4.23      0.00
    1   15   24      9.24      0.00
    7   15   24    -12.61      0.00
    0   16   24      2.47      0.00
    1   16   24    -16.51      0.00
    2   16   24     -6.22      0.00
    3   16   24     -3.90      0.00
    4   16   24    -13.07      0.00
    0    1   25    -18.99      0.00
    0    3   25     27.22      0.00
   10   11   25      7.06      0.00
    9   12   25      4.85      0.00
   10   12   25     15.68      0.00
    8   13   25     13.57      0.00
    9   13   25    -10.18      0.00
    1   14   25     -0.79      0.00
    7   14   25      4.96      0.00
    0   15   25     16.14      0.00
    1   15   25     12.48      0.00
    2   15   25    -16.65      0.00
    5   15   25     12.71      0.00
    1   16   25      1.31      0.00
    0    0   26     50.36      0.00
    1    1   26     16.90      0.00
   10   10   26    -12.57      0.00
    9   11   26      8.49      0.00
   10   11   26    -20.79      0.00
    8   12   26     16.31      0.00
    9   12   26     -4.94      0.00
    7   13   26      4.92      0.00
    8   13   26     -1.61      0.00
    0   14   26     11.97      0.00
    1   14   26    -27.01      0.00
    2   14   26    -11.66      0.00
    5   14   26    -25.97      0.00
    6   14   26     11.70      0.00
    1   15   26      2.93      0.00
    2   15   26     -5.30      0.00
    3   15   26      6.29      0.00
    4   15   26     18.98      0.00
    0    1   27     -1.59      0.00
    9   10   27      0.58      0.00
    8   11   27     22.06      0.00
    9   11   27      7.56      0.00
   10   11   27    -11.35      0.00
    7   12   27    -24.42      0.00
    8   12   27     -7.89      0.00
    5   13   27      2.47      0.00
    6   13   27     -5.90      0.00
    7   13   27    -22.26      0.00
    1   14   27     -7.24      0.00
    2   14   27     -3.29      0.00
    3   14   27     17.84      0.00
    4   14   27    -10.85      0.00
    5   14   27     24.39      0.00
    0    0   28     23.77      0.00
    1    1   28    -15.67      0.00
    9    9   28    -21.41      0.00
    8   10   28      6.27      0.00
    9   10   28     -2.45      0.00
   10   10   28    -17.85      0.00
    7   11   28      4.86      0.00
    8   11   28     13.67      0.00
    9   11   28      6.05      0.00
    5   12   28      0.69      0.00
    6   12   28     -2.52      0.00
    7   12   28     -0.85      0.00
    3   13   28     21.55      0.00
    4   13   28     17.75      0.00
    5   13   28    -19.83      0.00
    6   13   28      4.38      0.00
    0   14   28     12.40      0.00
    1   14   28     -9.72      0.00
    2   14   28     -5.76      0.00
    3   14   28      8.74      0.00
    0    1   29      8.75      0.00
    1    2   29    -10.83      0.00
    8    9   29     -2.89      0.00
    7   10   29    -19.00      0.00
    8   10   29     -2.24      0.00
    9   10   29     -2.74      0.00
    5   11   29     -5.51      0.00
    6   11   29      5.39      0.00
    7   11   29     -3.36      0.00
    8   11   29      6.46      0.00
    4   12   29     -2.91      0.00
    5   12   29      3.73      0.00
    6   12   29      1.14      0.00
    0   13   29    -41.29      0.00
    2   13   29      4.01      0.00
    3   13   29    -24.52      0.00
    4   13   29      2.70      0.00
    0    0   30     32.29      0.00
    1    1   30     -3.23      0.00
    0    2   30    -14.42      0.00
    1    2   30      2.29      0.00
    2    2   30     19.82      0.00
    0    8   30    -36.92      0.00
    2    8   30     13.11      0.00
    8    8   30    -13.31      0.00
    7    9   30     -8.68      0.00
    8    9   30    -25.30      0.00
    9    9   30     -2.58      0.00
    5   10   30      4.55      0.00
    6   10   30      7.24      0.00
    7   10   30     -9.10      0.00
    8   10   30      1.88      0.00
    4   11   30    -16.10      0.00
    5   11   30     15.40      0.00
    6   11   30     20.81      0.00
    0   12   30     52.45      0.00
    2   12   30    -25.12      0.00
    3   12   30      7.99      0.00
    4   12   30      3.76      0.00
    0    1   31     12.47      0.00
    1    2   31    -10.15      0.00
    6    8   31    -14.89      0.00
    7    8   31      3.33      0.00
    5    9   31     -4.14      0.00
    6    9   31      7.15      0.00
    7    9   31     17.17      0.00
    8    9   31     32.52      0.00
    4   10   31      6.55      0.00
    5   10   31     18.05      0.00
    6   10   31     17.69      0.00
    0   11   31     15.80      0.00
    3   11   31     -1.10      0.00
    4   11   31     16.51      0.00
    5   11   31     12.05      0.00
    1   12   31     -1.41      0.00
    0    0   32     58.04      0.00
    1    1   32    -18.47      0.00
    0    2   32    -12.68      0.00
    1    2   32      2.10      0.00
    2    2   32     12.46      0.00
    1    3   32      5.58      0.00
    2    3   32      5.16      0.00
    3    3   32      2.13      0.00
    6    7   32      9.88      0.00
    7    7   32     -5.25      0.00
    5    8   32     -5.73      0.00
    6    8   32    -12.12      0.00
    7    8   32     -0.98      0.00
    4    9   32    -18.67      0.00
    5    9   32     -2.66      0.00
    6    9   32      6.30      0.00
    0   10   32    -55.43      0.00
    3   10   32     31.12      0.00
    4   10   32    -15.46      0.00
    5   10   32      6.85      0.00
    1   11   32      2.66      0.00
    2   11   32      1.98      0.00
    0    1   33      4.08      0.00
    1    2   33     20.22      0.00
    0    3   33    -35.67      0.00
    1    3   33    -12.01      0.00
    2    3   33      1.62      0.00
    5    6   33     21.63      0.00
    0    7   33      2.31      0.00
    5    7   33    -30.16      0.00
    6    7   33     -6.33      0.00
    4    8   33    -11.76      0.00
    5    8   33      2.88      0.00
    6    8   33     13.21      0.00
    0    9   33     -7.06      0.00
    2    9   33     15.38      0.00
    3    9   33     -0.43      0.00
    4    9   33    -19.58      0.00
    1   10   33     -2.41      0.00
    0    0   34      3.69      0.00
    1    1   34     -3.75      0.00
    0    2   34      0.56      0.00
    1    2   34    -15.82      0.00
    2    2   34      7.39      0.00
    1    3   34      3.50      0.00
    2    3   34     -9.94      0.00
    3    3   34     49.36      0.00
    3    4   34      0.57      0.00
    4    4   34    -32.61      0.00
    5    5   34    -12.66      0.00
    0    6   34     -4.56      0.00
    4    6   34     -4.81      0.00
    5    6   34     -3.27      0.00
    6    6   34     -8.41      0.00
    3    7   34     33.47      0.00
    4    7   34      9.43      0.00
    5    7   34    -19.40      0.00
    0    8   34     -6.58      0.00
    2    8   34      8.84      0.00
    3    8   34     -7.64      0.00
    4    8   34      4.66      0.00
    0    1   35     -4.36      0.00
    1    2   35    -19.07      0.00
    0    3   35     -4.10      0.00
    1    3   35     22.77      0.00
    2    3   35     -8.90      0.00
    1    4   35      4.06      0.00
    2    4   35     -1.13      0.00
    3    4   35     -0.29      0.00
    0    5   35    -14.71      0.00
    3    5   35    -33.64      0.00
    4    5   35      7.72      0.00
    2    6   35     -4.81      0.00
    3    6   35     -0.10      0.00
    4    6   35      1.98      0.00
    0    7   35     19.23      0.00
    2    7   35    -28.56      0.00
    3    7   35    -11.74      0.00
    0    0    0      0.00      0.00
# SQUEEZE RESULTS (Version =  70515)
# Note: Data are Listed for all Voids in the P1 Unit Cell
# i.e. Centre of Gravity, Solvent Accessible Volume,
# Recovered number of Electrons in the Void and
# Details about the Squeezed Material
loop_
  _platon_squeeze_void_nr
  _platon_squeeze_void_average_x
  _platon_squeeze_void_average_y
  _platon_squeeze_void_average_z
  _platon_squeeze_void_volume
  _platon_squeeze_void_count_electrons
  _platon_squeeze_void_content
   1 -0.011  0.395 -0.003      8650      3835 ' '
# Missing Reflections Below sin(th)/lambda = 0.25
loop_
  _platon_missing_refln_index_h
  _platon_missing_refln_index_k
  _platon_missing_refln_index_l
  _platon_missing_refln_theta
    1    1    0     1.460
    2    2    0     2.922
    3    3    0     4.385
    4    4    0     5.851
    4    5    0     6.626
    5    5    0     7.321
    5    6    0     8.091
    6    6    0     8.795
    5    7    0     8.918
    6    7    0     9.563
    0    1    1     1.193
    4    5    1     6.653
    5    6    1     8.113
    6    7    1     9.582
    0    0    2     1.194
    4    4    2     5.972
    4    5    2     6.734
    5    5    2     7.419
    5    6    2     8.180
    6    6    2     8.877
    5    7    2     8.999
    6    7    2     9.639
    6    7    3     9.733
    6    6    4     9.119
    0    0   10     5.983
    0    0   12     7.185
    0    0   16     9.600
_platon_squeeze_void_probe_radius                  1.20
_platon_squeeze_details
)
TITL g2yy_6xnewP 4/m n c    R = 0.35
CELL   19.1146   19.1146   33.0470     90.00     90.00     90.00
SPGR P4/mnc
# Solvent Accessible Volume =    8719.1
# Electrons Found in S.A.V. =    3765.3
# Note: Atoms in Void as Cxxx and Qxxx all others
C101 0.704 0.141 0.499 !       3.28 eA-3
Q102 0.959 0.219-0.001 !       3.15 eA-3
Q103 0.115 1.000 0.003 !       3.15 eA-3
C104 0.190 0.783 0.360 !       3.13 eA-3
C105 0.875 0.484-0.001 !       3.05 eA-3
Q106 0.389 0.297 0.499 !       3.01 eA-3
C107 0.361 0.187 0.495 !       2.92 eA-3
C108 0.576 0.063 0.001 !       2.91 eA-3
Q109 0.108 0.078-0.001 !       2.88 eA-3
C110 0.374 0.689 0.352 !       2.87 eA-3
C111 0.016 0.375-0.005 !       2.84 eA-3
C112 0.155 0.296 0.260 !       2.82 eA-3
C113 0.144 0.192 0.221 !       2.79 eA-3
C114 0.629 0.019 0.062 !       2.69 eA-3
Q115 0.321 0.996 0.039 !       2.69 eA-3
C116 0.234 0.904 0.485 !       2.67 eA-3
C117 0.006 0.969 0.188 !       2.66 eA-3
Q118 0.177 0.886 0.107 !       2.66 eA-3
C119 0.609 0.141 0.499 !       2.66 eA-3
C120 0.720 0.782 0.443 !       2.64 eA-3
C121 0.096 0.532 0.034 !       2.58 eA-3
C122 0.014 0.420 0.017 !       2.57 eA-3
C123 0.536 0.094 0.001 !       2.56 eA-3
C124 0.317 0.297-0.002 !       2.55 eA-3
C125 0.827 0.226 0.470 !       2.54 eA-3
Q126 0.094 0.731 0.016 !       2.51 eA-3
C127 0.363 0.788 0.031 !       2.50 eA-3
C128 0.831 0.692 0.016 !       2.48 eA-3
Q129 0.718 0.673 0.446 !       2.47 eA-3
C130 0.547 0.034 0.471 !       2.46 eA-3
Q131 0.745 0.112 0.030 !       2.45 eA-3
C132 0.622 0.185 0.423 !       2.44 eA-3
Q133 0.858 0.640 0.311 !       2.43 eA-3
C134 0.452 0.218 0.197 !       2.43 eA-3
C135 0.655 0.920 0.468 !       2.43 eA-3
C136 0.597 0.877 0.473 !       2.42 eA-3
C137 0.210 0.356 0.312 !       2.42 eA-3
C138 0.059 0.359 0.028 !       2.41 eA-3
C139 0.114 0.911 0.240 !       2.40 eA-3
C140 0.318 0.013 0.342 !       2.39 eA-3
C141 0.375 0.246 0.084 !       2.39 eA-3
Q142 0.510 0.188 0.497 !       2.39 eA-3
C143 0.203 0.621 0.053 !       2.37 eA-3
C144 0.761 0.204 0.098 !       2.36 eA-3
C145 0.720 0.866 0.485 !       2.36 eA-3
C146 0.144 0.563 0.086 !       2.36 eA-3
C147 0.631 0.953 0.016 !       2.36 eA-3
C148 0.823 0.224 0.328 !       2.35 eA-3
C149 0.908 0.580 0.400 !       2.35 eA-3
C150 0.531 0.969 0.496 !       2.35 eA-3
C151 0.403 0.624 0.230 !       2.35 eA-3
C152 0.421 0.016 0.390 !       2.35 eA-3
C153 0.690 0.094 0.497 !       2.32 eA-3
C154 0.655 0.031 0.506 !       2.31 eA-3
C155 0.684 0.715 0.069 !       2.31 eA-3
C156 0.475 0.968 0.055 !       2.30 eA-3
C157 0.463 0.799 0.030 !       2.29 eA-3
C158 0.252 0.188 0.499 !       2.29 eA-3
C159 0.692 0.986 0.402 !       2.28 eA-3
Q160 0.308 0.939 0.016 !       2.27 eA-3
C161 0.454 0.718 0.038 !       2.27 eA-3
C162 0.331 0.627 0.013 !       2.25 eA-3
C163 0.843 0.535 0.085 !       2.25 eA-3
Q164 0.687 0.030 0.055 !       2.24 eA-3
C165 0.914 0.469 0.421 !       2.22 eA-3
C166 0.644 0.125 0.039 !       2.22 eA-3
C167 0.772 0.752 0.063 !       2.21 eA-3
C168 0.934 0.484 0.091 !       2.21 eA-3
C169 0.066 0.516 0.909 !       2.21 eA-3
C170 0.472 0.919 0.084 !       2.20 eA-3
C171 0.325 0.033 0.443 !       2.19 eA-3
C172 0.435 0.924 0.420 !       2.19 eA-3
C173 0.030 0.579 0.040 !       2.19 eA-3
C174 0.867 0.471 0.444 !       2.18 eA-3
C175 0.893 0.422 0.004 !       2.18 eA-3
C176 0.529 0.486 0.263 !       2.17 eA-3
Q177 0.859 0.109 0.002 !       2.16 eA-3
C178 0.937 0.469 0.000 !       2.16 eA-3
C179 0.241 0.637 0.122 !       2.14 eA-3
C180 0.297 0.904 0.109 !       2.14 eA-3
Q181 0.617 0.203 0.497 !       2.13 eA-3
Q182 0.924 0.372 0.083 !       2.13 eA-3
C183 0.315 0.248 0.100 !       2.12 eA-3
C184 0.795 0.693 0.271 !       2.12 eA-3
C185 0.372 0.970 0.465 !       2.11 eA-3
C186 0.284 0.425 0.397 !       2.11 eA-3
C187 0.330 0.017 0.492 !       2.11 eA-3
C188 0.194 0.464 0.179 !       2.10 eA-3
C189 0.155 0.920 0.231 !       2.10 eA-3
C190 0.429 0.213 0.110 !       2.10 eA-3
Q191 0.294 0.373 0.448 !       2.10 eA-3
C192 0.059 0.766 0.327 !       2.10 eA-3
C193 0.299 0.856 0.429 !       2.09 eA-3
C194 0.239 0.287 0.460 !       2.09 eA-3
C195 0.501 0.689 0.156 !       2.09 eA-3
C196 0.254 0.750 0.123 !       2.08 eA-3
C197 0.201 0.891 0.068 !       2.08 eA-3
C198 0.866 0.624 0.438 !       2.08 eA-3
Q199 0.742 0.187-0.002 !       2.07 eA-3
)
;
_shelx_shelxl_version_number     2014/7
_olex2_submission_special_instructions 'No special instructions were received'
loop_
_space_group_symop_operation_xyz
'x, y, z'
'-x, -y, z'
'-y, x, z'
'y, -x, z'
'-x+1/2, y+1/2, -z+1/2'
'x+1/2, -y+1/2, -z+1/2'
'y+1/2, x+1/2, -z+1/2'
'-y+1/2, -x+1/2, -z+1/2'
'-x, -y, -z'
'x, y, -z'
'y, -x, -z'
'-y, x, -z'
'x-1/2, -y-1/2, z-1/2'
'-x-1/2, y-1/2, z-1/2'
'-y-1/2, -x-1/2, z-1/2'
'y-1/2, x-1/2, z-1/2'
loop_
_atom_site_label
_atom_site_type_symbol
_atom_site_fract_x
_atom_site_fract_y
_atom_site_fract_z
_atom_site_U_iso_or_equiv
_atom_site_adp_type
_atom_site_occupancy
_atom_site_site_symmetry_order
_atom_site_calc_flag
_atom_site_refinement_flags_posn
_atom_site_refinement_flags_adp
_atom_site_refinement_flags_occupancy
_atom_site_disorder_assembly
_atom_site_disorder_group
Zr1 Zr 0.12295(19) 0.0458(2) 0.0000 0.0304(15) Uani 1 2 d S TU P . .
Zr2 Zr 0.0000 0.0000 0.07365(12) 0.0181(17) Uani 1 4 d S TU P . .
O5 O -0.0289(7) 0.0928(7) 0.1098(4) 0.079(5) Uiso 1 1 d . U . . .
O2 O 0.1746(8) 0.0623(7) -0.0606(4) 0.094(5) Uiso 1 1 d . U . . .
O4 O 0.0390(7) 0.0858(7) 0.0359(4) 0.102(5) Uiso 1 1 d . U . . .
O3 O 0.1655(12) 0.1504(12) 0.0000 0.113(8) Uiso 1 2 d S TU P . .
O1 O 0.2243(12) -0.0165(13) 0.0000 0.136(9) Uiso 1 2 d S TU P . .
C11 C -0.0250(11) 0.4162(8) 0.2225(5) 0.103(8) Uiso 1 1 d D U . . .
C3 C -0.0427(10) 0.1954(14) 0.1700(9) 0.159(10) Uiso 1 1 d D U . . .
H3 H -0.0254 0.1508 0.1749 0.191 Uiso 1 1 calc R . . . .
C12 C -0.02788(19) 0.47212(19) 0.2500 0.106(11) Uiso 1 2 d DS TU P . .
C1 C -0.0565(9) 0.1532(15) 0.0997(8) 0.122(9) Uiso 1 1 d D U . . .
C4 C -0.0470(11) 0.2413(15) 0.2027(8) 0.165(10) Uiso 1 1 d D U . . .
H4 H -0.0347 0.2299 0.2291 0.198 Uiso 1 1 calc R . . . .
C8 C -0.0773(9) 0.3655(12) 0.2213(6) 0.108(8) Uiso 1 1 d D U . . .
C13 C 0.0306(11) 0.4123(11) 0.1897(6) 0.150(11) Uiso 1 1 d D U . . .
H13A H 0.0637 0.4495 0.1935 0.226 Uiso 1 1 calc R . . . .
H13B H 0.0542 0.3681 0.1913 0.226 Uiso 1 1 calc R . . . .
H13C H 0.0088 0.4169 0.1637 0.226 Uiso 1 1 calc R . . . .
C2 C -0.0626(7) 0.2116(15) 0.1303(8) 0.167(10) Uiso 1 1 d D U . . .
C5 C -0.0723(12) 0.3069(14) 0.1906(8) 0.163(10) Uiso 1 1 d D U . . .
C7 C -0.0879(11) 0.2764(16) 0.1168(9) 0.200(12) Uiso 1 1 d D U . . .
H7 H -0.1001 0.2878 0.0904 0.240 Uiso 1 1 calc R . . . .
C9 C -0.1311(12) 0.3689(12) 0.2500 0.124(11) Uiso 1 2 d DS TU P . .
C6 C -0.0916(12) 0.3208(16) 0.1505(9) 0.202(12) Uiso 1 1 d D U . . .
H6 H -0.1093 0.3653 0.1456 0.243 Uiso 1 1 calc R . . . .
C10 C -0.1868(12) 0.3132(12) 0.2500 0.156(15) Uiso 1 2 d DS TU P . .
H10A H -0.1775 0.2802 0.2288 0.234 Uiso 0.5 1 calc R . . A -1
H10B H -0.1867 0.2895 0.2756 0.234 Uiso 0.5 1 calc R . . A -1
H10C H -0.2317 0.3344 0.2456 0.234 Uiso 0.5 1 calc R . . A -1
loop_
_atom_site_aniso_label
_atom_site_aniso_U_11
_atom_site_aniso_U_22
_atom_site_aniso_U_33
_atom_site_aniso_U_23
_atom_site_aniso_U_13
_atom_site_aniso_U_12
Zr1 0.031(3) 0.043(3) 0.018(2) 0.000 0.000 -0.005(3)
Zr2 0.020(2) 0.020(2) 0.014(3) 0.000 0.000 0.000
loop_
_atom_type_symbol
_atom_type_description
_atom_type_scat_dispersion_real
_atom_type_scat_dispersion_imag
_atom_type_scat_source
C C 0.0030 0.0010 'International Tables Vol C Tables 4.2.6.8 and 6.1.1.4'
H H 0.0000 0.0000 'International Tables Vol C Tables 4.2.6.8 and 6.1.1.4'
O O 0.0110 0.0060 'International Tables Vol C Tables 4.2.6.8 and 6.1.1.4'
Zr Zr -11.6050 0.5510 'International Tables Vol C Tables 4.2.6.8 and 6.1.1.4'
loop_
_geom_angle_atom_site_label_1
_geom_angle_atom_site_label_2
_geom_angle_atom_site_label_3
_geom_angle
_geom_angle_site_symmetry_1
_geom_angle_site_symmetry_3
Zr1 Zr1 Zr1 90.0 11 3
Zr2 Zr1 Zr1 59.50(4) . 11
Zr2 Zr1 Zr1 59.50(4) . 3
Zr2 Zr1 Zr1 59.50(4) 9 3
Zr2 Zr1 Zr1 59.50(4) 9 11
Zr2 Zr1 Zr2 88.27(13) 9 .
O2 Zr1 Zr1 108.0(4) 10 11
O2 Zr1 Zr1 108.0(4) . 11
O2 Zr1 Zr1 109.9(4) 10 3
O2 Zr1 Zr1 109.9(4) . 3
O2 Zr1 Zr2 161.4(4) . .
O2 Zr1 Zr2 161.4(4) 10 9
O2 Zr1 Zr2 73.2(4) 10 .
O2 Zr1 Zr2 73.2(4) . 9
O2 Zr1 O2 125.2(8) 10 .
O2 Zr1 O1 72.5(4) 10 .
O2 Zr1 O1 72.5(4) . .
O4 Zr1 Zr1 33.8(4) 11 11
O4 Zr1 Zr1 33.7(4) . 3
O4 Zr1 Zr1 90.8(4) 10 11
O4 Zr1 Zr1 90.8(4) 4 3
O4 Zr1 Zr1 33.8(4) 4 11
O4 Zr1 Zr1 90.8(4) . 11
O4 Zr1 Zr1 33.7(4) 10 3
O4 Zr1 Zr1 90.8(4) 11 3
O4 Zr1 Zr2 36.6(4) 4 .
O4 Zr1 Zr2 88.4(4) 4 9
O4 Zr1 Zr2 88.4(4) 11 .
O4 Zr1 Zr2 36.6(4) 11 9
O4 Zr1 Zr2 88.4(4) 10 .
O4 Zr1 Zr2 88.4(4) . 9
O4 Zr1 Zr2 36.7(4) . .
O4 Zr1 Zr2 36.7(4) 10 9
O4 Zr1 O2 138.3(6) 11 10
O4 Zr1 O2 77.7(5) . 10
O4 Zr1 O2 140.6(5) . .
O4 Zr1 O2 76.0(5) 11 .
O4 Zr1 O2 140.6(5) 10 10
O4 Zr1 O2 76.0(5) 4 10
O4 Zr1 O2 138.3(6) 4 .
O4 Zr1 O2 77.7(5) 10 .
O4 Zr1 O4 109.3(7) 11 .
O4 Zr1 O4 73.3(7) 11 10
O4 Zr1 O4 73.3(7) 4 .
O4 Zr1 O4 67.5(8) . 10
O4 Zr1 O4 109.3(7) 4 10
O4 Zr1 O4 67.7(7) 11 4
O4 Zr1 O3 87.2(6) 10 .
O4 Zr1 O3 87.2(6) . .
O4 Zr1 O3 146.1(4) 11 .
O4 Zr1 O3 146.1(4) 4 .
O4 Zr1 O1 83.4(6) 4 .
O4 Zr1 O1 145.8(4) 10 .
O4 Zr1 O1 83.4(6) 11 .
O4 Zr1 O1 145.8(4) . .
O3 Zr1 Zr1 87.6(6) . 3
O3 Zr1 Zr1 177.6(6) . 11
O3 Zr1 Zr2 119.1(4) . 9
O3 Zr1 Zr2 119.1(4) . .
O3 Zr1 O2 72.9(4) . .
O3 Zr1 O2 72.9(4) . 10
O3 Zr1 O1 99.4(8) . .
O1 Zr1 Zr1 83.0(6) . 11
O1 Zr1 Zr1 173.0(6) . 3
O1 Zr1 Zr2 116.2(4) . 9
O1 Zr1 Zr2 116.2(4) . .
Zr1 Zr2 Zr1 91.72(13) 11 3
Zr1 Zr2 Zr1 60.99(7) 9 11
Zr1 Zr2 Zr1 91.72(13) 9 .
Zr1 Zr2 Zr1 60.99(7) 11 .
Zr1 Zr2 Zr1 60.99(7) 9 3
Zr1 Zr2 Zr1 60.99(7) 3 .
O5 Zr2 Zr1 76.9(4) 2 11
O5 Zr2 Zr1 76.9(4) 4 .
O5 Zr2 Zr1 76.9(4) . 3
O5 Zr2 Zr1 110.1(3) 4 11
O5 Zr2 Zr1 168.3(4) 2 3
O5 Zr2 Zr1 110.1(3) . .
O5 Zr2 Zr1 114.2(4) . 9
O5 Zr2 Zr1 168.3(4) . 11
O5 Zr2 Zr1 110.1(3) 3 3
O5 Zr2 Zr1 168.3(4) 3 .
O5 Zr2 Zr1 114.2(4) 3 11
O5 Zr2 Zr1 76.9(4) 3 9
O5 Zr2 Zr1 114.2(4) 4 3
O5 Zr2 Zr1 168.3(4) 4 9
O5 Zr2 Zr1 110.1(3) 2 9
O5 Zr2 Zr1 114.2(4) 2 .
O5 Zr2 O5 114.5(7) 4 3
O5 Zr2 O5 73.0(3) 3 .
O5 Zr2 O5 114.5(7) 2 .
O5 Zr2 O5 73.0(3) 3 2
O5 Zr2 O5 73.0(3) 4 .
O5 Zr2 O5 73.0(3) 4 2
O4 Zr2 Zr1 91.2(4) . 11
O4 Zr2 Zr1 91.2(4) 3 .
O4 Zr2 Zr1 35.5(4) 2 11
O4 Zr2 Zr1 91.1(4) 2 .
O4 Zr2 Zr1 35.6(4) . .
O4 Zr2 Zr1 35.6(4) 4 11
O4 Zr2 Zr1 35.6(4) 2 9
O4 Zr2 Zr1 35.5(4) 3 9
O4 Zr2 Zr1 91.1(4) . 9
O4 Zr2 Zr1 35.5(4) 4 .
O4 Zr2 Zr1 35.5(4) . 3
O4 Zr2 Zr1 91.2(4) 2 3
O4 Zr2 Zr1 35.6(4) 3 3
O4 Zr2 Zr1 91.1(4) 3 11
O4 Zr2 Zr1 91.2(4) 4 9
O4 Zr2 Zr1 91.1(4) 4 3
O4 Zr2 O5 81.2(5) 4 2
O4 Zr2 O5 140.2(5) . 3
O4 Zr2 O5 145.5(5) 3 4
O4 Zr2 O5 145.5(5) 2 .
O4 Zr2 O5 140.2(5) 2 4
O4 Zr2 O5 81.2(5) 2 3
O4 Zr2 O5 78.0(5) . .
O4 Zr2 O5 145.5(5) . 2
O4 Zr2 O5 81.2(5) . 4
O4 Zr2 O5 140.2(5) 4 .
O4 Zr2 O5 78.0(5) 2 2
O4 Zr2 O5 140.2(5) 3 2
O4 Zr2 O5 78.0(5) 4 4
O4 Zr2 O5 145.5(5) 4 3
O4 Zr2 O5 81.2(5) 3 .
O4 Zr2 O5 78.0(5) 3 3
O4 Zr2 O4 71.1(4) 2 3
O4 Zr2 O4 71.1(4) 4 .
O4 Zr2 O4 71.1(4) 2 4
O4 Zr2 O4 71.1(4) 3 .
O4 Zr2 O4 110.6(8) 2 .
O4 Zr2 O4 110.6(8) 3 4
C1 O5 Zr2 132.0(15) . .
C1 O2 Zr1 134.5(16) 11 .
Zr1 O4 Zr1 112.4(6) 3 .
Zr1 O4 Zr2 107.7(6) . .
Zr1 O4 Zr2 107.9(6) 3 .
C12 C11 C13 121.8(14) . .
C8 C11 C12 121.3(18) . .
C8 C11 C13 116.6(13) . .
C4 C3 H3 117.6 . .
C4 C3 C2 125(3) . .
C2 C3 H3 117.6 . .
C11 C12 C11 118.6(17) . 7_455
C11 C12 C12 120.7(9) . 8
C11 C12 C12 120.7(9) 7_455 8
O5 C1 O2 123(2) . 12
O5 C1 C2 121(3) . .
O2 C1 C2 114(2) 12 .
C3 C4 H4 124.4 . .
C3 C4 C5 111(3) . .
C5 C4 H4 124.4 . .
C11 C8 C5 119.1(14) . .
C11 C8 C9 118(3) . .
C9 C8 C5 122.4(18) . .
C11 C13 H13A 109.5 . .
C11 C13 H13B 109.5 . .
C11 C13 H13C 109.5 . .
H13A C13 H13B 109.5 . .
H13A C13 H13C 109.5 . .
H13B C13 H13C 109.5 . .
C3 C2 C1 116(3) . .
C3 C2 C7 126(3) . .
C7 C2 C1 118(3) . .
C4 C5 C8 119(3) . .
C6 C5 C4 122(3) . .
C6 C5 C8 119(3) . .
C2 C7 H7 126.3 . .
C6 C7 C2 107(3) . .
C6 C7 H7 126.3 . .
C8 C9 C8 122(3) 7_455 .
C8 C9 C10 119.1(16) 7_455 .
C8 C9 C10 119.1(16) . .
C5 C6 C7 129(3) . .
C5 C6 H6 115.7 . .
C7 C6 H6 115.7 . .
C9 C10 H10A 109.5 . .
C9 C10 H10B 109.5 . .
C9 C10 H10C 109.5 . .
H10A C10 H10B 109.5 . .
H10A C10 H10C 109.5 . .
H10B C10 H10C 109.5 . .
loop_
_geom_bond_atom_site_label_1
_geom_bond_atom_site_label_2
_geom_bond_distance
_geom_bond_site_symmetry_2
Zr1 Zr1 3.547(5) 3
Zr1 Zr1 3.547(5) 11
Zr1 Zr2 3.495(4) 9
Zr1 Zr2 3.495(4) .
Zr1 O2 2.254(14) .
Zr1 O2 2.254(14) 10
Zr1 O4 2.131(14) 4
Zr1 O4 2.131(14) 11
Zr1 O4 2.137(14) .
Zr1 O4 2.137(14) 10
Zr1 O3 2.16(2) .
Zr1 O1 2.27(2) .
Zr2 Zr1 3.495(4) 9
Zr2 Zr1 3.495(4) 11
Zr2 Zr1 3.495(4) 3
Zr2 O5 2.209(14) .
Zr2 O5 2.209(14) 3
Zr2 O5 2.209(14) 2
Zr2 O5 2.209(14) 4
Zr2 O4 2.191(14) 4
Zr2 O4 2.191(14) 3
Zr2 O4 2.191(14) .
Zr2 O4 2.191(14) 2
O5 C1 1.31(3) .
O2 C1 1.36(3) 11
O4 Zr1 2.131(14) 3
C11 C12 1.404(8) .
C11 C8 1.394(8) .
C11 C13 1.519(10) .
C3 H3 0.9300 .
C3 C4 1.395(9) .
C3 C2 1.401(9) .
C12 C11 1.404(8) 7_455
C12 C12 1.508(10) 8
C1 O2 1.36(3) 12
C1 C2 1.511(10) .
C4 H4 0.9300 .
C4 C5 1.403(9) .
C8 C5 1.514(10) .
C8 C9 1.400(8) .
C13 H13A 0.9600 .
C13 H13B 0.9600 .
C13 H13C 0.9600 .
C2 C7 1.402(9) .
C5 C6 1.401(9) .
C7 H7 0.9300 .
C7 C6 1.401(9) .
C9 C8 1.400(8) 7_455
C9 C10 1.504(10) .
C6 H6 0.9300 .
C10 H10A 0.9600 .
C10 H10B 0.9600 .
C10 H10C 0.9600 .
loop_
_geom_torsion_atom_site_label_1
_geom_torsion_atom_site_label_2
_geom_torsion_atom_site_label_3
_geom_torsion_atom_site_label_4
_geom_torsion
_geom_torsion_site_symmetry_1
_geom_torsion_site_symmetry_4
Zr2 O5 C1 O2 -12(3) . 12
Zr2 O5 C1 C2 -172.3(7) . .
O5 C1 C2 C3 -5.0(13) . .
O5 C1 C2 C7 175.5(15) . .
O2 C1 C2 C3 -167.1(15) 12 .
O2 C1 C2 C7 13.5(14) 12 .
C11 C8 C5 C4 100(3) . .
C11 C8 C5 C6 -79(3) . .
C11 C8 C9 C8 2.0(15) . 7_455
C11 C8 C9 C10 -178.0(15) . .
C3 C4 C5 C8 -176.9(15) . .
C3 C4 C5 C6 2(3) . .
C3 C2 C7 C6 -1.8(17) . .
C12 C11 C8 C5 179(2) . .
C12 C11 C8 C9 -4(3) . .
C1 C2 C7 C6 177.6(11) . .
C4 C3 C2 C1 -177.5(13) . .
C4 C3 C2 C7 2(2) . .
C4 C5 C6 C7 -2(4) . .
C8 C11 C12 C11 2.0(16) . 7_455
C8 C11 C12 C12 -178.0(16) . 8
C8 C5 C6 C7 176.4(18) . .
C13 C11 C12 C11 175(2) . 7_455
C13 C11 C12 C12 -5(2) . 8
C13 C11 C8 C5 6(3) . .
C13 C11 C8 C9 -177.5(18) . .
C2 C3 C4 C5 -2(2) . .
C2 C7 C6 C5 2(3) . .
C5 C8 C9 C8 179(3) . 7_455
C5 C8 C9 C10 -1(3) . .
C9 C8 C5 C4 -77(3) . .
C9 C8 C5 C6 104(2) . .
