#------------------------------------------------------------------------------
#$Date: 2019-11-25 22:32:00 +0200 (Mon, 25 Nov 2019) $
#$Revision: 241968 $
#$URL: file:///home/coder/svn-repositories/cod/cif/4/13/18/4131849.cif $
#------------------------------------------------------------------------------
#
# This file is available in the Crystallography Open Database (COD),
# http://www.crystallography.net/
#
# All data on this site have been placed in the public domain by the
# contributors.
#
data_4131849
loop_
_publ_author_name
'Yan, Yong'
'O'Connor, Alice E'
'Kanthasamy, Gopikkaa'
'Atkinson, George'
'Allan, David R.'
'Blake, Alexander J.'
'Schr\"oder, Martin'
_publ_section_title
;
 Unusual and Tunable Negative Linear Compressibility in the Metal-Organic
 Framework MFM-133(M) (M = Zr, Hf).
;
_journal_issue                   11
_journal_name_full               'Journal of the American Chemical Society'
_journal_page_first              3952
_journal_page_last               3958
_journal_paper_doi               10.1021/jacs.7b11747
_journal_volume                  140
_journal_year                    2018
_chemical_formula_moiety         '0.25(C184 H136 O64 Zr12)'
_chemical_formula_sum            'C46 H34 O16 Zr3'
_chemical_formula_weight         1116.39
_space_group_crystal_system      tetragonal
_space_group_IT_number           128
_space_group_name_Hall           '-P 4 2n'
_space_group_name_H-M_alt        'P 4/m n c'
_atom_sites_solution_hydrogens   geom
_atom_sites_solution_primary     direct
_audit_creation_date             2016-08-31
_audit_creation_method
;
Olex2 1.2
(compiled 2016.08.25 svn.r3337 for OlexSys, GUI svn.r5221)
;
_cell_angle_alpha                90
_cell_angle_beta                 90
_cell_angle_gamma                90
_cell_formula_units_Z            4
_cell_length_a                   19.4481(19)
_cell_length_b                   19.4481(19)
_cell_length_c                   32.575(6)
_cell_measurement_reflns_used    1177
_cell_measurement_temperature    293.15
_cell_measurement_theta_max      22.3100
_cell_measurement_theta_min      2.0120
_cell_volume                     12321(3)
_computing_cell_refinement
;
CrysAlisPro, Agilent Technologies,
Version 1.171.37.34 (release 22-05-2014 CrysAlis171 .NET)
(compiled May 22 2014,16:03:01)
;
_computing_data_collection
;
CrysAlisPro, Agilent Technologies,
Version 1.171.37.34 (release 22-05-2014 CrysAlis171 .NET)
(compiled May 22 2014,16:03:01)
;
_computing_data_reduction
;
CrysAlisPro, Agilent Technologies,
Version 1.171.37.34 (release 22-05-2014 CrysAlis171 .NET)
(compiled May 22 2014,16:03:01)
;
_computing_molecular_graphics    'Olex2 (Dolomanov et al., 2009)'
_computing_publication_material  'Olex2 (Dolomanov et al., 2009)'
_computing_structure_refinement  'ShelXL (Sheldrick, 2015)'
_computing_structure_solution    'ShelXS (Sheldrick, 2008)'
_diffrn_ambient_temperature      293.15
_diffrn_detector                 Dectris
_diffrn_detector_area_resol_mean 5.81395
_diffrn_detector_type            'Pilatus 300K detector'
_diffrn_measured_fraction_theta_full 0.766
_diffrn_measured_fraction_theta_max 0.766
_diffrn_measurement_details
;
#__ type_ start__ end____ width___ exp.time_
  1 omega -105.00  -74.00   0.2000    0.1970
omega____ theta____ kappa____ phi______ frames
    -       20.0000   70.0000  155.7700 155

#__ type_ start__ end____ width___ exp.time_
  2 omega -105.00  -74.00   0.2000    0.1970
omega____ theta____ kappa____ phi______ frames
    -       20.0000   70.0000  -24.2300 155

#__ type_ start__ end____ width___ exp.time_
  3 omega -106.00  -66.00   0.2000    0.1970
omega____ theta____ kappa____ phi______ frames
    -      -20.0000  -70.0000 -155.7700 200

#__ type_ start__ end____ width___ exp.time_
  4 omega -106.00  -66.00   0.2000    0.1970
omega____ theta____ kappa____ phi______ frames
    -      -20.0000  -70.0000   24.2300 200

#__ type_ start__ end____ width___ exp.time_
  5 omega -150.00  -94.00   0.2000    0.1970
omega____ theta____ kappa____ phi______ frames
    -      -20.0000   70.0000  -24.2319 280

#__ type_ start__ end____ width___ exp.time_
  6 omega -150.00  -94.00   0.2000    0.1970
omega____ theta____ kappa____ phi______ frames
    -      -20.0000   70.0000  155.7681 280

#__ type_ start__ end____ width___ exp.time_
  7 omega  -96.00  -30.00   0.2000    0.1970
omega____ theta____ kappa____ phi______ frames
    -       20.0000  -70.0000   24.2300 330

#__ type_ start__ end____ width___ exp.time_
  8 omega  -96.00  -30.00   0.2000    0.1970
omega____ theta____ kappa____ phi______ frames
    -       20.0000  -70.0000 -155.7700 330
;
_diffrn_measurement_device       'k-geometry diffractometer'
_diffrn_measurement_device_type
'Newport 4-circle kappa geometry diffractometer'
_diffrn_measurement_method       'oscillation method'
_diffrn_orient_matrix_UB_11      0.0003619000
_diffrn_orient_matrix_UB_12      -0.0314031000
_diffrn_orient_matrix_UB_13      -0.0097237000
_diffrn_orient_matrix_UB_21      -0.0155633000
_diffrn_orient_matrix_UB_22      0.0145548000
_diffrn_orient_matrix_UB_23      -0.0169050000
_diffrn_orient_matrix_UB_31      0.0318285000
_diffrn_orient_matrix_UB_32      0.0074793000
_diffrn_orient_matrix_UB_33      -0.0081727000
_diffrn_radiation_collimation    '0.5 mm pinhole'
_diffrn_radiation_monochromator  'Si 111 double-crystal monochromator'
_diffrn_radiation_probe          x-ray
_diffrn_radiation_wavelength     0.6889
_diffrn_reflns_av_R_equivalents  1.2388
_diffrn_reflns_av_unetI/netI     0.9788
_diffrn_reflns_Laue_measured_fraction_full 0.766
_diffrn_reflns_Laue_measured_fraction_max 0.766
_diffrn_reflns_limit_h_max       21
_diffrn_reflns_limit_h_min       -21
_diffrn_reflns_limit_k_max       14
_diffrn_reflns_limit_k_min       -14
_diffrn_reflns_limit_l_max       34
_diffrn_reflns_limit_l_min       -35
_diffrn_reflns_number            25559
_diffrn_reflns_point_group_measured_fraction_full 0.766
_diffrn_reflns_point_group_measured_fraction_max 0.766
_diffrn_reflns_theta_full        22.721
_diffrn_reflns_theta_max         22.721
_diffrn_reflns_theta_min         1.879
_diffrn_source                   'Synchrotron U21 undulator'
_diffrn_source_type              'Synchrotron Diamond Light Source'
_exptl_absorpt_coefficient_mu    0.254
_exptl_absorpt_correction_T_max  0.4269
_exptl_absorpt_correction_T_min  0.2235
_exptl_absorpt_correction_type   multi-scan
_exptl_absorpt_process_details
;
SADABS-2014/5 (Bruker,2014/5) was used for absorption correction. 
wR2(int) was 0.1738 before and 0.1372 after correction. 
The Ratio of minimum to maximum transmission is 0.5235. 
The \l/2 correction factor is Not present.
;
_exptl_crystal_colour            'clear colourless'
_exptl_crystal_colour_lustre     clear
_exptl_crystal_colour_primary    colourless
_exptl_crystal_density_diffrn    0.602
_exptl_crystal_description       octahedral
_exptl_crystal_F_000             2232
_exptl_crystal_size_max          0.11
_exptl_crystal_size_mid          0.11
_exptl_crystal_size_min          0.0806
_refine_diff_density_max         0.902
_refine_diff_density_min         -0.969
_refine_diff_density_rms         0.110
_refine_ls_extinction_method     none
_refine_ls_goodness_of_fit_ref   0.989
_refine_ls_hydrogen_treatment    constr
_refine_ls_matrix_type           full
_refine_ls_number_parameters     71
_refine_ls_number_reflns         3568
_refine_ls_number_restraints     76
_refine_ls_restrained_S_all      0.984
_refine_ls_R_factor_all          0.3649
_refine_ls_R_factor_gt           0.1801
_refine_ls_shift/su_max          0.001
_refine_ls_shift/su_mean         0.000
_refine_ls_structure_factor_coef Fsqd
_refine_ls_weighting_details
'w=1/[\s^2^(Fo^2^)+(0.1839P)^2^] where P=(Fo^2^+2Fc^2^)/3'
_refine_ls_weighting_scheme      calc
_refine_ls_wR_factor_gt          0.3740
_refine_ls_wR_factor_ref         0.4885
_reflns_Friedel_coverage         0.000
_reflns_number_gt                864
_reflns_number_total             3568
_reflns_threshold_expression     'I > 2\s(I)'
_cod_data_source_file            ZrMOF_All.cif
_cod_data_source_block           9.5kbar
_cod_database_code               4131849
_chemical_oxdiff_formula         'C46 H42 O16 Zr3'
_shelx_space_group_comment
;
The symmetry employed for this shelxl refinement is uniquely defined
by the following loop, which should always be used as a source of
symmetry information in preference to the above space-group names.
They are only intended as comments.
;
_reflns_odcompleteness_completeness 74.94
_reflns_odcompleteness_iscentric 1
_reflns_odcompleteness_theta     22.85
_olex2_refinement_description
;
1. Fixed Uiso
 At 1.2 times of:
  All C(H) groups
 At 1.5 times of:
  All C(H,H,H) groups
2. Restrained distances
 C8-C9 = C8-C11 = C12-C11
 1.39 with sigma of 0.01
 C13-C11 = C10-C9
 1.5 with sigma of 0.02
 C8-C5
 1.5 with sigma of 0.01
 C12-C12_$3
 1.5 with sigma of 0.01
 C3-C2 = C7-C2 = C7-C6 = C6-C5 = C5-C4 = C4-C3
 1.39 with sigma of 0.02
 C8-C9 \\sim C8-C11 \\sim C12-C11
 with sigma of 0.02
 C3-C2 \\sim C4-C3 \\sim C4-C5 \\sim C6-C5 \\sim C7-C6 \\sim C2-C7
 with sigma of 0.02
3. Restrained planarity
 C1, C2, C3, C4, C5, C6, C7, C8, C11_$1, C13_$1
 with sigma of 0.1
 C1_$1, C7_$1, C2_$1, C3_$1, C4_$1, C5_$1, C6_$1, C8_$1, C11, C13
 with sigma of 0.1
 C1_$2, C2_$2, C7_$2, C6_$2, C5_$2, C4_$2, C3_$2, C8_$2, C11_$3, C13_$3
 with sigma of 0.1
 C1_$3, C2_$3, C3_$3, C4_$3, C5_$3, C6_$3, C7_$3, C8_$3, C11_$2, C13_$2
 with sigma of 0.1
 C10, C9, C12, C12_$3, C9_$3, C10_$3
 with sigma of 0.1
4. Uiso/Uaniso restraints and constraints
All non-hydrogen atoms have similar U: within 2A with sigma of 0.02 and sigma
for terminal atoms of 0.04
5. Others
 Fixed Sof: H10A(0.5) H10B(0.5) H10C(0.5)
6.a Me refined with riding coordinates:
 C10(H10A,H10B,H10C)
6.b Aromatic/amide H refined with riding coordinates:
 C3(H3), C4(H4), C7(H7), C6(H6)
6.c Idealised Me refined as rotating group:
 C13(H13A,H13B,H13C)
;
_shelx_res_file
;
    9.5kbar.res created by SHELXL-2014/7

TITL g2yy_2x in P4/mnc
CELL 0.6889 19.4481 19.4481 32.57469 90 90 90
ZERR 4 0.00193 0.00193 0.00648 0 0 0
LATT 1
SYMM -X,-Y,+Z
SYMM -Y,+X,+Z
SYMM +Y,-X,+Z
SYMM 0.5-X,0.5+Y,0.5-Z
SYMM 0.5+X,0.5-Y,0.5-Z
SYMM 0.5+Y,0.5+X,0.5-Z
SYMM 0.5-Y,0.5-X,0.5-Z
SFAC C H O Zr
DISP C 0.003 0.001 10.848
DISP H -0 0 0.623
DISP O 0.011 0.006 30.192
DISP Zr -11.605 0.551 2275.752
UNIT 184 136 64 12
EQIV $1 -0.5+Y,0.5+X,0.5-Z
EQIV $2 0.5-Y,0.5-X,0.5-Z
EQIV $3 -X,1-Y,+Z
DFIX 1.39 0.01 C8 C9 C8 C11 C12 C11
DFIX 1.5 C13 C11 C10 C9
DFIX 1.5 0.01 C8 C5
DFIX 1.5 0.01 C12 C12_$3
DFIX 1.39 C3 C2 C7 C2 C7 C6 C6 C5 C5 C4 C4 C3
SADI C8 C9 C8 C11 C12 C11
SADI C3 C2 C4 C3 C4 C5 C6 C5 C7 C6 C2 C7
FLAT C1 C2 C3 C4 C5 C6 C7 C8 C11_$1 C13_$1
FLAT C1_$1 C7_$1 C2_$1 C3_$1 C4_$1 C5_$1 C6_$1 C8_$1 C11 C13
FLAT C1_$2 C2_$2 C7_$2 C6_$2 C5_$2 C4_$2 C3_$2 C8_$2 C11_$3 C13_$3
FLAT C1_$3 C2_$3 C3_$3 C4_$3 C5_$3 C6_$3 C7_$3 C8_$3 C11_$2 C13_$2
FLAT C10 C9 C12 C12_$3 C9_$3 C10_$3
SIMU 0.02 0.04 2

L.S. 5 0 246
PLAN  20
TEMP 20
BOND
MORE -1
BOND $H
CONF
ABIN
fmap 2
acta
REM <olex2.extras>
REM <HklSrc "%.\\9.5kbar.hkl">
REM </olex2.extras>

WGHT    0.183900
FVAR       0.04348
ZR1   4    0.454738    0.378528    0.500000    10.50000    0.01493
ZR2   4    0.500000    0.500000    0.424099    10.25000    0.00628
O5    3    0.409314    0.523472    0.387724    11.00000    0.06184
O2    3    0.437307    0.327776    0.561727    11.00000    0.08198
O4    3    0.415121    0.462919    0.462090    11.00000    0.07577
O3    3    0.348423    0.338957    0.500000    10.50000    0.09720
O1    3    0.519234    0.275115    0.500000    10.50000    0.11123
C11   1    0.082276    0.521777    0.277520    11.00000    0.08862
C3    1    0.305943    0.541265    0.327144    11.00000    0.13733
AFIX  43
H3    2    0.349622    0.526398    0.319643    11.00000   -1.20000
AFIX   0
C12   1    0.027347    0.527347    0.250000    10.50000    0.10873
C1    1    0.352777    0.552854    0.398706    11.00000    0.08165
C4    1    0.254978    0.545243    0.296552    11.00000    0.12585
AFIX  43
H4    2    0.264682    0.532623    0.269630    11.00000   -1.20000
AFIX   0
C8    1    0.129434    0.575969    0.277476    11.00000    0.09722
C13   1    0.087688    0.458882    0.307153    11.00000    0.09652
AFIX 137
H13A  2    0.086736    0.474688    0.335066    11.00000   -1.50000
H13B  2    0.130000    0.434887    0.302138    11.00000   -1.50000
H13C  2    0.049655    0.428410    0.302469    11.00000   -1.50000
AFIX   0
C2    1    0.294227    0.558592    0.368414    11.00000    0.11550
C5    1    0.188771    0.568802    0.307580    11.00000    0.12289
C7    1    0.229450    0.581143    0.381456    11.00000    0.13804
AFIX  43
H7    2    0.219085    0.591243    0.408666    11.00000   -1.20000
AFIX   0
C9    1    0.131260    0.631260    0.250000    10.50000    0.09058
C6    1    0.181561    0.586989    0.349207    11.00000    0.13962
AFIX  43
H6    2    0.139155    0.605487    0.356428    11.00000   -1.20000
AFIX   0
C10   1    0.186156    0.686156    0.250000    10.50000    0.12499
PART -1
AFIX  33
H10A  2    0.218679    0.676902    0.271470    10.50000   -1.50000
H10B  2    0.209368    0.686213    0.223991    10.50000   -1.50000
H10C  2    0.165324    0.730256    0.254539    10.50000   -1.50000
AFIX   0
HKLF 4

REM  g2yy_2x in P4/mnc
REM R1 =  0.1801 for     864 Fo > 4sig(Fo)  and  0.3649 for all    3568 data
REM     71 parameters refined using     76 restraints

END

WGHT      0.1862      0.0000

REM Highest difference peak  0.902,  deepest hole -0.969,  1-sigma level  0.110
Q1    1   0.4749  0.3756  0.5000  10.50000  0.05    0.90
Q2    1   0.4535  0.3967  0.5000  10.50000  0.05    0.66
Q3    1   0.4432  0.4745  0.4703  11.00000  0.05    0.63
Q4    1   0.4184  0.5592  0.3965  11.00000  0.05    0.51
Q5    1   0.3994  0.4169  0.4496  11.00000  0.05    0.44
Q6    1   0.3596  0.4168  0.4511  11.00000  0.05    0.42
Q7    1   0.0756  0.4908  0.3217  11.00000  0.05    0.41
Q8    1   0.5066  0.2220  0.5000  10.50000  0.05    0.41
Q9    1   0.3195  0.3140  0.5379  11.00000  0.05    0.40
Q10   1   0.4441  0.4933  0.3684  11.00000  0.05    0.39
Q11   1   0.2874  0.5988  0.3705  11.00000  0.05    0.38
Q12   1   0.2923  0.5006  0.3681  11.00000  0.05    0.38
Q13   1   0.4985  0.2042  0.5177  11.00000  0.05    0.38
Q14   1   0.1669  0.6336  0.3426  11.00000  0.05    0.38
Q15   1   0.0869  0.5511  0.3492  11.00000  0.05    0.38
Q16   1   0.1167  0.5379  0.3713  11.00000  0.05    0.37
Q17   1   0.3479  0.3037  0.5000  10.50000  0.05    0.36
Q18   1   0.5000  0.5000  0.3492  10.25000  0.05    0.36
Q19   1   0.3021  0.3037  0.5000  10.50000  0.05    0.36
Q20   1   0.3149  0.5924  0.3240  11.00000  0.05    0.36
;
_shelx_res_checksum              86886
_shelx_hkl_file
;
   2   1   0   13.94    5.20
   2   1   0   13.06    5.50
  -2  -1   0    6.46    4.51
   2   0   0  189.05   83.53
   2   0   0  167.15   92.66
  -2   0   0  193.23   76.32
   3   2   0    0.20    0.87
  -3  -2   0   -0.11    0.57
   3   1   0    1.68    1.14
  -3  -1   0    2.92    1.15
  -3  -1   0    2.08    1.20
   3   1   0    2.85    1.48
   3   1   0    3.41    1.55
  -3   0   0   -0.09    0.64
   3   0   0   -0.10    1.04
   3   0   0   -0.09    0.77
   3  -1   0    2.78    1.47
  -4  -2   0    5.55    3.51
   4   2   0    8.40    4.10
   4   2   0    9.88    4.57
  -4  -1   0  100.14   36.89
   4   1   0  104.08   42.36
   4   1   0  118.52   42.00
   4   1   0   53.73   37.28
   4   1   0   98.50   42.29
  -4  -1   0   73.13   37.32
  -4   0   0   12.52    7.85
   4   0   0   14.04    7.50
  -4   0   0   13.00    6.28
   4   0   0   15.18    7.77
   4   0   0   17.25    6.24
   4   0   0   16.58    6.86
   4  -1   0   89.94   40.59
   4  -1   0  100.78   41.01
   4  -2   0   12.13    4.74
  -5  -3   0   -0.36    0.96
  -5  -2   0   97.90   60.47
   5   2   0  165.92   66.08
   5   2   0  168.60   71.49
   5   1   0    4.63    2.53
   5   1   0    5.66    2.69
   5   1   0    3.11    2.27
  -5  -1   0    3.83    2.28
  -5  -1   0    6.25    2.30
   5   1   0    6.28    2.97
  -5   0   0    1.02    1.21
   5   0   0   -0.07    1.13
   5   0   0   -0.16    1.51
  -5   0   0    0.15    1.29
  -5   0   0    0.81    0.79
   5   0   0    0.51    2.20
   5   0   0   -0.50    0.70
   5  -1   0    5.27    2.68
   5  -1   0    4.44    3.63
   5  -1   0    4.03    2.18
  -5   1   0    5.66    2.44
   5  -2   0  163.06   66.36
   6   3   0    4.36    3.15
   6   2   0    6.37    3.20
  -6  -2   0    2.95    2.62
  -6  -1   0  134.08   50.20
   6   1   0  112.09   50.47
   6   1   0  110.24   53.71
   6   0   0   -0.17    1.44
  -6   0   0    0.41    1.05
  -6   0   0   -0.65    1.79
   6   0   0    0.97    0.95
   6  -1   0  111.45   39.40
  -6   1   0   35.29   42.31
   6  -2   0    9.03    4.00
   6  -3   0    3.96    3.02
   7   4   0    7.05    4.57
   7   3   0   41.51   15.48
   7   3   0   42.07   16.21
   7   3   0   43.96   14.74
  -7  -3   0    5.88   13.66
   7   2   0   39.91   16.69
  -7  -2   0   35.48   14.57
   7   2   0   35.47   16.36
  -7  -2   0   26.02   14.85
   7   2   0   34.20   16.29
   7   1   0   15.65    8.23
   7   1   0   14.95    7.21
   7   1   0   14.97    7.39
  -7  -1   0   14.96    6.90
   7   1   0   14.59    6.96
  -7  -1   0   14.90    6.52
   7   0   0   -0.76    1.82
  -7   0   0   -0.67    1.90
   7   0   0    0.08    1.04
  -7   0   0   -0.72    1.95
   7   0   0   -0.25    3.66
   7   0   0   -0.23    2.15
  -7   0   0    0.30    1.21
   7  -1   0   11.71    6.45
  -7   1   0   24.95    7.17
   7  -1   0    9.93    9.20
   7  -1   0   22.89    7.49
   7  -2   0   41.75   14.78
   7  -2   0   25.45   18.34
  -7   2   0   39.72   14.53
   7  -2   0   27.83   15.12
   7  -3   0   24.13   11.94
  -7   4   0   10.47    3.90
   7  -4   0    3.86    4.23
   8   4   0   35.24   15.82
   8   4   0   51.60   14.01
  -8  -4   0    1.23   12.96
   8   3   0   -2.62    3.74
   8   3   0    2.17    3.02
  -8  -3   0    6.16    2.65
   8   3   0    1.76    4.02
   8   2   0   36.99   17.13
   8   2   0   36.46   16.55
  -8  -2   0   44.14   14.97
   8   2   0   32.63   16.89
  -8  -2   0   22.26   15.68
  -8  -1   0    3.04    2.40
   8   1   0    4.55    2.05
  -8  -1   0    0.93    2.69
   8   1   0    1.06    3.99
  -8  -1   0    3.80    2.11
   8   1   0    3.35    2.90
   8   1   0    0.82    2.29
   8   0   0    6.22    5.87
   8   0   0    6.06    4.66
   8   0   0    9.12    3.65
  -8   0   0    9.05    3.63
  -8   0   0    8.57    5.17
  -8   0   0    2.35    3.93
   8   0   0   12.37    4.34
   8  -1   0    6.41    5.10
  -8   1   0    3.98    2.67
   8  -1   0    2.24    2.98
  -8   1   0    3.22    2.85
   8  -1   0    3.67    1.74
   8  -2   0   34.12   15.46
   8  -2   0   18.48   18.98
  -8   2   0   41.36   14.96
   8  -2   0   39.53   14.28
   8  -3   0    1.33    3.51
   8  -4   0   40.44   14.97
   9   5   0   40.64   20.04
   9   4   0   17.95    7.55
   9   4   0   20.69    7.13
   9   4   0   14.82    7.23
  -9  -4   0    0.35    5.79
  -9  -3   0   34.20   30.58
   9   3   0   95.46   34.81
   9   3   0   90.12   33.13
  -9  -2   0    1.72    2.63
   9   2   0    4.02    2.81
   9   2   0    5.73    4.66
  -9  -2   0    2.19    2.90
   9   2   0    0.36    3.73
   9   1   0    3.89    5.47
  -9  -1   0    3.80    3.45
   9   1   0    6.57    3.45
   9   1   0    4.47    4.00
   9   1   0    4.65    3.23
  -9  -1   0    7.96    4.00
  -9  -1   0    6.33    3.28
   9   0   0   -1.56    1.57
   9   0   0    1.93    3.23
  -9   0   0   -2.12    2.77
  -9   0   0   -2.42    2.89
  -9   0   0    1.34    2.44
  -9   0   0   -0.67    1.66
   9   0   0    2.13    2.66
   9   0   0   -0.34    4.95
   9  -1   0    2.28    4.21
   9  -1   0    5.70    2.64
   9  -1   0    5.78    6.37
  -9   1   0    3.68    3.76
  -9   1   0   10.10    3.71
   9  -2   0    3.64    2.34
   9  -2   0   -0.85    6.44
  -9   2   0   11.61    3.64
   9  -2   0    8.26    4.10
  -9   3   0   49.00   30.44
   9  -3   0  104.13   30.92
   9  -3   0   61.51   36.78
   9  -4   0   11.45    6.08
   9  -5   0   41.03   17.72
  -9   5   0   34.95   17.65
  10   5   0    1.44    4.98
  10   5   0   -2.73    5.58
  10   4   0   68.73   26.82
 -10  -4   0   14.50   23.56
  10   4   0   59.43   25.45
  10   4   0   69.71   28.07
  10   3   0    3.62    4.70
  10   3   0    0.33    5.13
 -10  -3   0    4.85    3.24
 -10  -2   0   39.33   20.08
  10   2   0   38.53   19.84
  10   2   0   42.23   18.53
 -10  -2   0   30.56   16.61
 -10  -1   0    3.02    3.16
 -10  -1   0    2.11    2.74
 -10  -1   0    4.43    3.56
  10   1   0   10.13    3.93
  10   1   0    0.37    5.77
  10   0   0   -0.73    4.12
 -10   0   0   -0.35    3.42
 -10   0   0   -2.05    2.78
  10   0   0   -1.63    5.89
  10  -1   0    3.50    6.43
  10  -1   0   -1.11    4.08
 -10   1   0    2.65    3.56
 -10   1   0    2.15    3.34
  10  -2   0   35.00   22.51
  10  -2   0   52.51   18.60
 -10   2   0   39.95   18.27
 -10   3   0    2.51    4.03
  10  -3   0    3.62    7.27
  10  -3   0    6.98    4.63
  10  -4   0   94.37   32.88
  10  -5   0    0.46    4.26
  11   5   0   11.43    6.69
 -11  -5   0   -1.37    3.78
  11   4   0    1.70    5.11
 -11  -4   0   -0.87    3.06
  11   4   0   -1.16    5.60
 -11  -3   0   25.48   21.58
  11   3   0   63.06   24.22
  11   3   0   63.56   24.57
  11   2   0    1.78    4.50
 -11  -2   0    6.84    3.76
  11   2   0    3.58    6.40
 -11  -1   0    1.53    3.48
  11   1   0    2.15    4.13
  11   1   0   -4.29    7.08
  11   0   0   -1.25    4.82
 -11   0   0   -1.96    3.74
  11   0   0   -4.63    7.92
 -11   0   0   -1.75    3.95
 -11   1   0    1.28    3.74
  11  -1   0    0.83    4.36
 -11   1   0    2.44    3.96
  11  -1   0    2.47    7.19
 -11   2   0    9.28    4.70
 -11   2   0    3.86    3.96
  11  -2   0    0.43    4.74
  11  -2   0   -0.53    7.48
  11  -3   0   67.75   22.26
  11  -3   0   46.69   27.08
 -11   3   0   37.62   22.10
  11  -4   0    0.61    7.75
  11  -4   0    6.59    5.06
  11  -5   0    6.96    5.68
  12   6   0   29.43   17.36
  12   5   0   -0.67    5.71
  12   5   0    0.46    6.84
 -12  -5   0   -1.51    3.44
 -12  -4   0    8.20   10.22
  12   4   0   28.03   12.67
  12   4   0   34.93   12.34
  12   3   0    7.10    5.34
 -12  -3   0   -0.47    3.86
  12   3   0  -10.83    7.41
 -12  -2   0   -1.36    3.78
  12   2   0    0.95    7.69
  12   2   0   -1.49    4.99
  12   1   0   -0.48    5.43
 -12  -1   0    7.81    4.24
  12   1   0   -4.40    7.99
 -12   0   0    7.92    4.84
  12   0   0   -2.63    8.72
  12   0   0    2.82    5.41
 -12   0   0    5.31    4.49
 -12   1   0    3.80    4.99
 -12   1   0    8.27    5.10
  12  -1   0    9.73    5.55
  12  -1   0    1.12    9.22
 -12   2   0    6.49    4.71
  12  -2   0   -1.45    5.05
 -12   2   0    6.71    4.88
  12  -2   0  -11.13    9.88
  12  -3   0  -15.66    9.06
  12  -3   0   -5.46    5.31
 -12   3   0    3.10    4.44
  12  -4   0   31.26   11.64
 -12   4   0    0.85   11.54
  12  -4   0   44.52   15.21
  12  -5   0   -6.47    5.81
 -13  -5   0   -1.10    3.97
  13   5   0    8.72    8.25
  13   5   0    0.72    6.38
  13   4   0   -0.66    6.94
  13   4   0   11.43    8.32
 -13  -4   0    0.53    3.88
  13   3   0    1.80    6.71
  13   3   0    4.09    9.17
 -13  -3   0    7.79    5.30
  13   2   0    4.86    9.51
 -13  -2   0   15.29    5.69
  13   2   0    8.82    6.93
 -13  -1   0   -0.74    5.35
 -13  -1   0  -10.77    4.66
  13   1   0   -1.62    5.96
  13   1   0    2.20    8.74
 -13   0   0   -4.47    5.19
  13   0   0    0.53    5.40
 -13   0   0    0.50    4.66
  13   0   0   -3.56    9.55
  13  -1   0    5.92    6.06
  13  -1   0    3.75    9.99
 -13   1   0    4.25    5.07
 -13   1   0    0.78    5.08
  13  -2   0   -3.22    5.99
  13  -2   0   20.78   10.62
 -13   2   0   -1.15    5.76
 -13   2   0    4.85    5.41
 -13   3   0    6.12    7.06
 -13   3   0    2.59    5.31
  13  -3   0    7.62    6.77
  14   6   0   40.62   22.95
  14   5   0    1.21    9.49
 -14   2   0   -1.81    5.25
  14  -3   0  -15.89   11.21
  14  -3   0   -0.62    6.00
 -14   3   0   -1.92    6.28
 -14   4   0    4.12    5.73
  14  -4   0   10.27   11.03
  14  -4   0    1.24    6.99
  14  -5   0    3.37   11.08
  14  -5   0    1.29    6.81
 -14   5   0    6.52    6.09
  14  -6   0   36.33   18.53
  15   6   0  -11.39   12.98
  15   5   0    9.51   11.68
  15   5   0   15.07    8.12
 -15  -5   0    3.98    5.38
  15   4   0    7.09    8.22
  15   4   0   11.22   11.52
 -15  -4   0   11.68    6.31
  15   3   0   32.17   12.81
  15   3   0   -2.18    8.75
 -15  -3   0   15.42    7.32
 -15  -2   0   -8.50    6.62
  15   2   0    2.85    7.90
 -15  -2   0   -8.98    6.62
  15   2   0  -24.77   12.61
 -15  -1   0   -1.87    8.18
 -15  -1   0   12.44    7.79
  15   1   0   10.10    9.56
 -15   0   0   -9.60   10.35
 -15   0   0   26.80    9.85
  15   0   0   16.85   11.11
  15  -1   0   22.36   14.64
 -15   1   0   14.49    8.56
  15  -1   0    9.37    9.43
 -15   1   0    4.90    8.57
 -15   2   0    2.04    6.47
  15  -2   0   -5.27    7.66
  15  -2   0    1.59   13.11
 -15   2   0    0.70    6.89
  15  -3   0    0.83   12.89
 -15   3   0    2.97    7.59
 -15   3   0    6.40    6.87
  15  -3   0    9.47    8.06
  15  -4   0   -3.47    7.67
 -15   4   0   -1.14    5.98
  15  -4   0  -18.99   13.33
 -15   4   0   -2.34    7.78
  15  -5   0   13.71   11.92
  15  -5   0  -14.68    7.97
 -15   5   0    1.19    6.48
  15  -6   0  -14.47    9.65
  16   6   0    0.80   12.67
  16   5   0   -4.58   13.74
  16   5   0    6.34    7.90
 -16  -5   0   -5.09    5.06
  16   4   0    4.31    8.16
 -16  -4   0  -10.03    5.49
  16   4   0    4.68   13.19
  16   3   0    3.86   12.81
  16   3   0   -8.01    8.45
 -16  -3   0   -0.71    6.08
 -16  -2   0   -1.05    7.31
  16   2   0   -6.39   13.62
 -16  -2   0   -2.88    6.17
  16   2   0    3.17    7.79
  16   1   0    3.25   13.00
 -16  -1   0   -3.50    6.97
 -16  -1   0    6.28    7.06
  16   1   0    0.75    7.52
 -16   0   0   -1.07    7.12
  16   0   0    0.76    8.34
  16   0   0  -20.12   14.13
 -16   0   0   12.19    6.71
 -16   1   0   11.01    6.99
  16  -1   0  -12.80   12.60
  16  -1   0    7.44    8.09
 -16   1   0   -1.10    6.57
 -16   2   0   -5.42    7.19
  16  -2   0    2.28    8.48
  16  -2   0    3.51   12.67
 -16   2   0   -6.84    7.01
  16  -3   0    0.74    8.49
 -16   3   0    5.68    7.82
  16  -3   0    2.74   13.53
 -16   3   0    7.12    7.40
 -16   4   0    5.13    8.88
 -16   4   0   13.83    6.82
  16  -4   0   -6.61   12.78
  16  -4   0    9.16    8.65
 -16   5   0    1.31    6.21
  16  -5   0   -9.94   12.16
  16  -5   0   -0.76    8.43
 -16   5   0   -4.44    8.18
  16  -6   0    2.35    8.73
 -16   6   0    1.37    6.76
  17   6   0   -7.15   14.34
  17   5   0    3.61   15.11
  17   5   0    6.88    8.83
 -17  -5   0    4.79    6.30
  17   4   0  -10.55   15.65
 -17  -4   0    0.79    6.86
  17   4   0  -12.27    9.78
  17   3   0    9.74   11.30
 -17  -3   0   10.79   10.64
  17   3   0   33.88   16.63
 -17  -3   0   13.54    9.08
 -17  -2   0    1.18    8.24
  17   2   0  -26.94   15.22
  17   2   0  -14.95   10.51
 -17  -2   0   -5.64    7.39
 -17  -1   0   -1.17    8.95
  17   1   0   14.28    9.07
  17   1   0  -17.28   16.57
 -17  -1   0    8.17    8.02
  17   0   0   -3.73   14.57
  17   0   0   -1.69    9.44
 -17   0   0  -14.44    8.23
 -17   0   0   -6.44    7.20
 -17   1   0   15.93   10.28
 -17   1   0   20.85   10.14
  17  -1   0   18.92   10.85
  17  -1   0   17.02   16.50
 -17   2   0   17.13    9.06
  17  -2   0   -3.91   15.09
 -17   2   0   13.99    8.48
  17  -2   0    1.69    9.61
  17  -3   0   42.10   17.66
 -17   3   0    3.59   10.17
  17  -3   0    8.23   10.36
 -17   3   0    7.92   10.14
  17  -4   0    0.84    9.40
 -17   4   0   -1.39    7.07
 -17   4   0  -13.17    9.16
  17  -4   0    6.20   14.43
  17  -5   0   -5.99   10.22
 -17   5   0    1.45    7.87
  17  -5   0   26.02   15.06
 -17   5   0   11.69   10.00
  17  -6   0   -0.85    9.86
 -17   6   0    2.01   10.03
 -17   6   0   10.51    7.46
  18   6   0   24.25   19.52
  18   5   0    6.42    9.62
 -18  -5   0    3.52    6.65
  18   5   0    3.05   17.38
 -18  -4   0   -6.15    6.44
  18   4   0   10.38   10.02
  18   4   0  -28.76   18.72
 -18  -3   0   -4.01    9.97
 -18  -3   0    0.89    6.93
  18   3   0    3.92    9.96
  18   3   0    3.03   16.42
 -18  -2   0    1.31   10.12
  18   2   0   15.66   10.10
 -18  -2   0    7.22    8.33
  18   2   0   16.16   16.71
  18   1   0   -5.64    9.60
 -18  -1   0    4.01    9.22
 -18  -1   0    2.76    8.30
  18   1   0   -9.15   16.29
 -18   0   0    5.39    8.94
 -18   0   0   -0.91    8.93
  18   0   0    3.10   16.14
  18   0   0    2.82    9.32
 -18   1   0  -34.16    8.68
  18  -1   0    6.29   16.20
 -18   1   0   -6.52    9.25
  18  -1   0    5.45    9.99
 -18   2   0   -7.61    9.73
 -18   2   0   -1.42    8.47
  18  -2   0  -17.26   16.90
  18  -2   0   14.96   10.39
 -18   3   0   10.90    9.40
 -18   3   0    1.47    9.32
  18  -3   0    0.95   10.53
  18  -3   0  -19.82   17.06
 -18   4   0    6.17    9.05
  18  -4   0    9.15   15.81
 -18   4   0   24.64   11.21
  18  -4   0   11.99   10.77
  18  -5   0  -22.51   16.09
 -18   5   0   -5.35   10.37
  18  -5   0  -11.26   10.48
 -18   5   0   -4.79    7.54
  18  -6   0   -9.56   11.15
 -18   6   0   12.12   10.47
 -18   6   0   -4.95    8.56
  19   6   0  -30.87   19.00
 -19  -5   0   -8.73    7.39
  19   5   0    9.37   10.89
  19   5   0  -34.36   19.83
  19   4   0   49.56   21.58
 -19  -4   0   -3.06   12.08
 -19  -4   0   -7.80    9.85
  19   4   0    3.43   12.67
 -19  -3   0    7.46   12.16
 -19  -3   0  -11.87   10.45
  19   3   0   -7.61   12.88
  19   3   0  -62.50   23.04
  19   2   0   -9.81   11.18
 -19  -2   0    2.94   11.20
 -19  -2   0   -7.08    9.08
  19   2   0  -12.46   18.91
  19   1   0   41.25   19.06
 -19  -1   0    1.50   10.79
  19   1   0    5.49   11.93
 -19  -1   0    5.18    9.39
 -19   0   0   -9.06    9.48
 -19   0   0   -8.14    8.99
  19   0   0   13.77   17.46
  19   0   0   -3.16   10.38
  19  -1   0   20.19   11.70
  19  -1   0   -4.64   18.50
 -19   1   0   -1.55   10.36
 -19   1   0    4.17    9.78
  19  -2   0    1.03   12.03
 -19   2   0   -1.08   11.12
 -19   2   0  -17.43    9.78
  19  -2   0    8.34   18.22
  19  -3   0  -22.08   13.38
 -19   3   0   -4.38   11.96
 -19   3   0    3.28   12.09
 -19   4   0   -3.42   11.24
  19  -4   0    5.30   13.00
 -19   4   0    4.54   12.13
  19  -5   0    5.16   11.52
 -19   5   0    1.17   11.61
 -19   5   0  -15.89    9.91
  19  -5   0   -7.78   16.72
  19  -6   0    7.35   11.98
 -19   6   0   10.89   12.18
 -19   6   0    1.82   10.04
  20   6   0   -2.68   22.19
  20   5   0   -1.29   11.28
 -20  -5   0  -12.39   12.99
 -20  -5   0   -5.36    8.78
  20   5   0  -21.91   20.98
  20   4   0   -7.60   11.18
 -20  -4   0   -1.08    8.17
 -20  -4   0    6.84   12.50
  20   3   0   -6.05   11.89
 -20  -3   0  -10.01   11.68
  20   3   0   14.08   21.10
 -20  -3   0    1.11    9.32
 -20  -2   0  -14.73   10.80
 -20  -2   0  -13.45   11.91
  20   2   0   -8.50   12.97
  20   2   0   -1.27   20.31
  20   1   0   -5.10   20.17
 -20  -1   0   -1.68   11.72
 -20  -1   0   15.13   10.60
  20   1   0    4.90   13.04
  20   0   0   24.23   20.85
  20   0   0   -2.36   12.35
 -20   0   0   -1.19   10.55
 -20   0   0    1.69   10.23
  20  -1   0   -4.74   12.64
 -20   1   0   -5.20   10.88
  20  -1   0   11.69   20.42
 -20   1   0   14.08   11.38
  20  -2   0    2.63   21.63
  20  -2   0    4.57   11.92
 -20   2   0  -19.53   12.39
 -20   2   0  -10.83   12.38
 -20   3   0   12.17   12.27
  20  -3   0   -1.17   11.82
  20  -3   0  -10.68   18.79
 -20   3   0   -1.83   10.62
  20  -4   0   16.57   18.94
 -20   4   0   -3.81   10.20
  20  -4   0   12.96   13.12
 -20   4   0   17.56   13.07
  20  -5   0    7.12   18.87
 -20   5   0   -5.16   14.19
  20  -5   0  -15.97   13.73
 -21  -3   0  -17.33   11.23
  21   3   0   -4.22   14.96
  21   2   0   -5.42   12.71
 -21  -2   0    5.09   10.19
  21   1   0  -13.71   15.11
 -21  -1   0   -1.31   12.34
 -21   0   0   -8.06   12.38
   1   1  -1   -0.05    0.10
   1   1  -1   -0.05    0.04
  -1  -1   1   -0.05    0.16
   2   1  -1   56.40   18.64
  -2  -1  -1    3.50   18.89
   2   1  -1   66.09   22.17
   2   1  -1   57.44   20.82
   2   1  -1   59.30   21.14
  -2  -1   1   52.42   18.30
  -2  -1   1   54.10   18.82
   2   1   1   19.02   23.27
   2   0  -1    0.07    0.61
  -2   0  -1   -0.06    0.29
   2   0  -1    0.06    0.36
  -2   0   1    0.25    0.29
   2   0   1    0.07    0.39
  -2   1  -1   59.11   20.72
   2  -1  -1   51.10   25.70
   2  -1   1   57.35   22.18
   2  -1   1   59.80   24.86
  -2   1   1   56.59   21.12
   3   2  -1   -0.30    1.00
   3   2  -1    0.11    0.64
   3   2  -1    0.37    0.77
  -3  -2   1    0.64    0.77
  -3  -2   1   -0.10    0.52
   3   1  -1   20.76    7.46
   3   1  -1   15.59    6.71
   3   1  -1   14.94    7.57
   3   1  -1   18.25    7.56
  -3  -1  -1   12.19    6.77
   3   1   1   14.07    8.11
   3   1   1   10.88    7.75
  -3  -1   1   16.33    6.54
  -3  -1   1   21.69    6.56
   3   0  -1   11.58    4.74
  -3   0  -1   13.43    4.35
   3   0  -1    8.80    4.23
   3   0  -1    9.09    5.53
   3   0  -1    9.49    5.26
  -3   0   1    7.47    5.43
  -3   0   1   15.04    4.51
   3   0   1   10.68    4.81
   3  -1  -1   13.84    8.52
   3  -1  -1   14.84    6.72
  -3   1   1   11.30    6.34
   3  -1   1   12.86    6.68
  -3   2  -1    0.21    0.75
   3  -2   1    0.55    1.46
   4   3  -1    0.41    1.36
   4   2  -1   14.12    8.26
  -4  -2  -1    2.49    8.51
   4   2  -1   32.20    9.59
   4   2  -1   29.01   10.52
   4   2  -1   33.44    9.59
   4   2   1   15.54    9.70
  -4  -2   1   11.54    8.60
  -4  -2   1   28.56    8.34
   4   2   1   14.96   10.66
   4   1  -1    0.76    2.08
   4   1  -1    3.78    1.82
   4   1  -1    2.09    1.87
   4   1  -1    3.14    1.62
  -4  -1  -1    4.25    1.67
   4   1   1    3.70    2.05
  -4  -1   1    4.50    1.61
   4   1   1    4.19    2.04
  -4  -1   1    2.69    1.57
   4   0  -1   -0.27    0.53
   4   0  -1   -0.30    0.88
   4   0  -1   -0.14    1.54
   4   0  -1   -0.12    0.97
  -4   0  -1    0.73    0.81
  -4   0   1    0.11    1.05
   4   0   1   -0.39    1.08
   4  -1  -1    3.49    2.06
   4  -1  -1    3.57    2.78
   4  -1  -1    3.46    1.99
   4  -1   1    2.13    2.00
  -4   1   1    7.99    1.90
  -4   2  -1   33.44    9.46
   4  -2  -1   17.95   11.79
   4  -2   1   21.70   11.52
   4  -2   1   26.17    9.97
  -4   3  -1    1.86    1.52
   4  -3   1    4.41    2.84
   5   3  -1   27.51    7.00
   5   3  -1   16.99    7.70
  -5  -3   1    1.92    6.18
   5   2  -1   32.37   12.84
   5   2  -1   27.34   12.00
   5   2  -1   19.35   10.65
  -5  -2  -1   13.34   10.85
   5   2  -1   25.69   12.04
   5   2   1   27.37   12.10
  -5  -2   1   20.06   10.85
   5   2   1   33.97   13.16
  -5  -2   1   33.98   10.68
  -5  -1  -1  133.17   41.56
   5   1  -1   66.25   43.10
   5   1  -1  105.33   48.34
   5   1  -1  101.44   46.05
   5   1  -1   98.78   45.58
   5   1   1  109.47   47.02
  -5  -1   1  103.11   40.76
  -5  -1   1  115.17   42.02
   5   1   1   98.50   48.32
   5   1   1   87.15   47.62
   5   0  -1    2.01    1.96
   5   0  -1    2.63    2.77
   5   0  -1    4.14    1.45
  -5   0  -1    1.79    1.86
  -5   0  -1    2.32    1.45
   5   0  -1    5.09    2.13
  -5   0  -1    4.62    1.75
   5   0   1    1.28    2.54
  -5   0   1    1.89    2.19
  -5   0   1    3.73    1.79
   5   0   1    3.83    1.48
   5   0   1    2.94    2.01
   5   0   1    2.54    1.65
   5  -1  -1   81.09   41.81
   5  -1  -1   90.29   43.63
   5  -1  -1   95.26   52.94
   5  -1   1  102.43   43.31
  -5   1   1  114.90   41.67
   5  -2  -1   29.13   11.12
   5  -2   1   19.44   11.19
   6   4  -1    1.28    2.44
   6   3  -1   -0.57    2.43
  -6  -3  -1    1.36    1.30
   6   3   1    4.67    2.61
   6   3   1   -0.20    2.15
   6   2  -1   80.42   40.83
   6   2  -1   95.31   44.57
   6   2   1  109.52   44.65
  -6  -2   1  101.34   40.77
  -6  -1  -1    2.29    2.42
   6   1  -1    3.28    2.76
   6   1  -1    4.78    2.54
  -6  -1   1    4.65    2.51
  -6  -1   1    7.80    3.11
   6   1   1    6.45    2.76
  -6   0  -1   -0.20    1.53
  -6   0  -1   -0.51    0.91
   6   0  -1    0.53    0.99
   6   0  -1    1.57    1.75
   6   0   1    0.45    1.28
  -6   0   1    0.98    1.88
   6   0   1   -0.20    0.88
   6  -1  -1    5.87    2.41
   6  -1   1    4.23    2.10
   6  -2  -1   76.78   50.72
   6  -2   1   89.26   42.71
  -6   2   1  117.92   40.39
   6  -3  -1    0.73    3.90
  -6   3  -1    0.39    1.85
   6  -3  -1    1.63    2.23
   6  -3   1   -0.52    2.41
   6  -3   1    0.34    3.67
  -6   4  -1    0.46    1.89
   7   4  -1   20.92    7.42
  -7  -4   1    0.52    6.43
   7   4   1   21.08    7.40
   7   3  -1   -3.24    2.62
  -7  -3  -1   -1.06    1.86
   7   3  -1    3.96    2.77
   7   3  -1   -0.19    2.56
  -7  -3   1    2.97    1.82
   7   3   1    2.22    2.98
   7   3   1    1.74    2.83
  -7  -2  -1   15.92    8.34
   7   2  -1   18.12    8.56
   7   2  -1   14.12    9.57
   7   2  -1   31.81    9.50
   7   2  -1   21.25    9.14
   7   2   1   18.98    9.48
  -7  -2   1   20.73    8.53
   7   2   1   19.16    9.63
  -7  -2   1   18.47    8.25
   7   2   1   12.35    9.75
   7   1  -1    9.63    4.45
   7   1  -1    9.63    5.25
   7   1  -1    8.99    4.06
  -7  -1  -1    6.14    3.93
  -7  -1  -1    9.58    3.97
   7   1  -1    7.53    4.34
   7   1   1    5.82    5.31
   7   1   1    7.00    4.24
   7   1   1    7.87    4.66
  -7  -1   1   11.37    4.03
  -7  -1   1   10.47    4.77
  -7  -1   1    8.50    3.90
   7   0  -1   -0.77    3.82
  -7   0  -1    0.45    1.15
  -7   0  -1    0.67    1.92
   7   0  -1    0.18    1.08
  -7   0  -1   -1.27    1.75
   7   0  -1    0.53    2.08
   7   0  -1   -1.14    2.20
   7   0   1    2.44    2.37
  -7   0   1    1.29    2.05
  -7   0   1    1.16    2.22
   7   0   1    1.03    1.14
   7   0   1    0.16    1.48
   7   0   1    0.75    3.53
  -7   0   1   -1.58    1.98
   7  -1  -1   10.64    3.58
   7  -1  -1    6.93    4.45
  -7   1  -1    5.01    4.14
   7  -1  -1    6.40    6.04
  -7   1   1   14.13    4.27
   7  -1   1    3.69    5.96
   7  -1   1   12.56    4.47
   7  -1   1    9.01    3.51
  -7   1   1    1.43    5.56
   7  -2  -1   11.89   11.20
   7  -2  -1   15.55    8.75
   7  -2  -1   22.08    8.67
   7  -2   1   18.27    8.79
   7  -2   1   20.06    8.09
  -7   2   1   22.73    8.48
  -7   3  -1    0.44    2.06
   7  -3  -1   -0.31    2.97
   7  -3  -1    0.80    4.27
   7  -3   1    0.29    2.59
  -7   3   1    0.47    2.22
  -7   4  -1   20.03    6.57
   7  -4   1   10.97    6.78
   7  -4   1   16.02    8.79
   8   5  -1   38.46   17.42
   8   4  -1    6.86    4.05
  -8  -4  -1   -0.95    2.49
   8   4  -1    9.35    4.15
   8   4  -1    4.74    4.07
  -8  -4   1   -0.60    2.88
   8   4   1    7.59    4.03
   8   3  -1   44.94   17.77
   8   3  -1   35.99   16.57
  -8  -3  -1   15.42   15.03
  -8  -3   1   27.02   15.12
   8   3   1   34.14   16.40
   8   3   1   39.56   17.77
   8   3   1   43.89   18.04
   8   2  -1    5.16    4.44
  -8  -2  -1    4.84    3.01
   8   2  -1    5.76    3.71
   8   2  -1    1.65    3.04
   8   2  -1    6.74    2.83
   8   2   1    4.68    4.08
  -8  -2   1    3.56    2.86
   8   2   1    7.27    3.88
  -8  -2   1    4.47    2.91
   8   2   1    4.07    3.03
   8   1  -1    2.00    2.03
   8   1  -1    0.27    2.79
  -8  -1  -1    1.73    1.80
   8   1  -1    4.47    4.31
  -8  -1  -1    1.56    2.33
   8   1  -1    3.13    2.34
   8   1   1    1.32    3.81
   8   1   1    3.62    3.05
  -8  -1   1    2.96    2.77
  -8  -1   1    5.85    2.41
   8   1   1    2.25    1.90
  -8  -1   1    2.71    2.06
   8   0  -1    0.92    2.41
  -8   0  -1   -0.48    2.17
   8   0  -1   -2.79    4.57
  -8   0  -1   -0.21    1.39
   8   0  -1   -0.21    1.40
   8   0  -1    1.87    2.69
  -8   0  -1   -0.79    2.11
  -8   0   1    0.38    2.27
  -8   0   1   -0.63    1.72
  -8   0   1    0.12    2.72
   8   0   1   -1.75    4.03
   8   0   1   -0.53    1.89
   8   0   1    0.10    1.34
  -8   0   1    1.32    2.32
   8   0   1    0.28    3.23
   8  -1  -1    2.96    1.56
  -8   1  -1    2.61    2.70
  -8   1  -1    0.40    2.48
   8  -1  -1    1.75    5.11
   8  -1  -1    0.57    2.80
  -8   1   1   -0.82    2.55
   8  -1   1    4.00    3.19
   8  -1   1    2.64    4.99
   8  -1   1    2.37    1.44
   8  -2  -1    5.54    2.79
   8  -2  -1    6.52    3.61
   8  -2  -1    6.20    5.61
   8  -2   1    4.14    2.17
  -8   2   1    4.60    3.10
   8  -2   1    1.51    3.65
   8  -3  -1   43.71   16.91
   8  -3  -1   30.16   20.43
  -8   3   1   42.27   16.76
   8  -3   1   47.25   16.97
   8  -4  -1    2.21    4.05
  -8   4  -1    2.83    3.35
   8  -4   1    8.02    3.90
   8  -4   1   10.33    6.37
  -8   5  -1   22.11   13.38
   8  -5   1   30.71   13.67
   9   5  -1    9.00    6.29
   9   5  -1   10.20    7.19
   9   4  -1   71.91   23.56
  -9  -4  -1    5.73   20.71
   9   4  -1   95.61   25.51
  -9  -4   1    2.39   20.93
   9   4   1   79.35   25.50
   9   3  -1   -1.99    3.32
  -9  -3  -1    1.71    2.50
   9   3  -1    0.86    4.33
   9   3   1    1.71    3.42
  -9  -3   1    3.87    2.47
   9   3   1   -0.29    4.09
  -9  -2  -1   33.68   13.31
   9   2  -1   25.68   14.67
   9   2  -1   31.64   15.81
   9   2  -1   19.94   14.29
   9   2   1   28.87   15.50
   9   2   1   32.50   15.10
   9   2   1   28.37   14.64
  -9  -2   1   38.85   13.08
   9   1  -1    4.25    5.21
  -9  -1  -1    0.75    2.46
   9   1  -1    1.60    2.01
  -9  -1  -1   -0.97    1.65
   9   1  -1    0.63    2.98
  -9  -1  -1   -0.60    2.56
   9   1  -1   -0.14    2.42
   9   1   1    0.34    3.28
   9   1   1    1.50    1.95
   9   1   1   -3.07    4.36
  -9  -1   1    1.44    2.58
  -9  -1   1    4.88    2.98
  -9  -1   1    1.44    2.05
   9   0  -1    2.45    3.20
   9   0  -1   -0.72    5.08
   9   0  -1    1.55    1.63
  -9   0  -1   -0.25    1.59
  -9   0  -1    0.39    2.63
  -9   0  -1    3.34    2.74
   9   0  -1    0.35    2.85
   9   0   1   -1.24    1.56
   9   0   1   -0.13    2.26
   9   0   1   -3.27    3.84
  -9   0   1    0.44    2.55
   9   0   1    0.34    5.48
  -9   0   1   -1.34    3.15
  -9   0   1   -0.86    1.72
  -9   0   1    0.30    2.97
   9  -1  -1    5.12    3.39
   9  -1  -1    0.40    5.74
   9  -1  -1    0.89    1.51
  -9   1  -1    0.92    2.64
  -9   1  -1    0.48    1.47
  -9   1  -1    4.97    3.14
   9  -1   1    4.54    5.65
  -9   1   1   -1.36    3.17
   9  -1   1    5.87    3.41
  -9   1   1    2.35    2.80
   9  -2  -1   30.46   13.79
   9  -2  -1   53.98   15.11
   9  -2  -1   20.78   18.38
  -9   2   1   40.99   14.78
   9  -2   1   23.73   18.05
   9  -2   1   37.70   15.06
   9  -3  -1    1.14    3.64
   9  -3  -1    1.04    3.35
   9  -3  -1    4.80    6.11
  -9   3   1   -4.05    2.80
   9  -3   1   -1.81    3.56
  -9   4  -1   60.47   27.48
   9  -4  -1   78.39   31.67
   9  -4  -1   81.69   27.65
  -9   4   1   75.88   27.77
   9  -4   1   86.23   27.69
  -9   5  -1    6.89    5.17
   9  -5   1    9.77    5.58
   9  -5   1   11.39    8.31
  10   5  -1   18.40   10.90
  10   5  -1   28.07   10.24
  10   5   1   22.50   10.02
 -10  -5   1   -2.41    8.79
  10   4  -1    1.02    5.08
 -10  -4  -1   -2.81    2.86
  10   4  -1    3.36    4.12
  10   4  -1   -8.12    3.85
 -10  -4   1   -1.53    2.64
  10   4   1    5.83    4.84
  10   4   1    0.86    4.08
  10   4   1    4.87    4.40
  10   3  -1   81.07   25.22
  10   3  -1   63.39   25.08
 -10  -3  -1   24.14   22.11
  10   3  -1   36.46   23.94
  10   3   1   61.07   24.53
 -10  -3   1   29.82   22.07
  10   3   1   57.89   25.40
  10   2  -1    0.70    5.13
  10   2  -1   -4.62    3.53
 -10  -2  -1    0.73    2.99
  10   2   1    2.88    3.80
  10   2   1    7.28    5.40
 -10  -2   1    0.33    2.79
  10   1  -1   -0.16    2.87
  10   1  -1    9.37    2.36
  10   1  -1    0.38    5.74
 -10  -1  -1    0.34    3.02
  10   1  -1    6.79    3.70
  10   1   1    4.66    3.98
 -10  -1   1    0.33    2.98
  10   1   1    7.81    5.61
 -10  -1   1   -1.82    3.70
  10   0  -1    1.24    6.16
  10   0  -1  -17.86    4.24
 -10   0  -1   -0.35    3.35
  10   0   1    1.95    5.85
 -10   0   1   -6.66    4.01
 -10   0   1    2.02    3.10
 -10   0   1    0.48    2.16
 -10   0   1   -2.07    3.34
  10   0   1   -3.73    4.26
  10  -1  -1    5.38    6.26
 -10   1  -1   -0.53    3.04
  10  -1  -1    0.37    3.91
 -10   1  -1   -0.38    3.46
 -10   1   1   -1.61    3.23
  10  -1   1   -0.43    6.43
  10  -1   1    0.37    3.66
 -10   1   1   -3.45    3.56
 -10   2  -1    3.97    3.36
 -10   2  -1   -2.46    3.61
  10  -2  -1    0.48    6.54
  10  -2  -1    0.39    4.02
 -10   2   1   -1.75    3.57
  10  -2   1   -3.04    3.90
  10  -2   1   -3.74    6.44
  10  -3  -1   81.17   26.16
  10  -3  -1   57.97   30.92
  10  -3   1   65.47   26.25
 -10   3   1   62.13   26.21
  10  -4  -1    0.44    4.32
  10  -4  -1   -4.06    7.60
 -10   4   1   12.11    3.75
  10  -4   1    2.53    4.58
  10  -5  -1   42.57   10.98
 -10   5  -1   24.03   10.46
  10  -5   1   12.81   13.19
  10  -5   1   23.60   10.65
  11   6  -1   10.38    8.39
 -11  -5  -1    0.93    3.48
  11   5  -1    7.97    5.18
  11   5  -1    6.51    6.32
  11   5   1   -0.80    6.06
 -11  -5   1    0.45    3.30
 -11  -4  -1    4.90   12.53
  11   4  -1   31.37   15.16
  11   4  -1   24.45   14.82
 -11  -4   1   10.66   12.70
  11   4   1   32.12   15.16
  11   4   1   51.26   14.51
  11   3  -1   -3.19    6.06
 -11  -3  -1    4.28    3.46
  11   3  -1   10.14    4.68
  11   3   1   -2.56    4.91
  11   3   1   -6.32    5.53
 -11  -3   1   -1.22    3.60
  11   2  -1    0.42    6.56
  11   2  -1   -1.73    4.09
 -11  -2  -1    4.13    3.39
  11   2   1    0.92    4.42
  11   2   1   -0.40    5.70
 -11  -2   1    3.40    3.26
 -11  -1  -1   12.86    4.65
  11   1  -1    4.33    7.72
  11   1  -1   12.09    5.42
  11   1   1    5.68    5.50
  11   1   1    5.96    7.69
 -11  -1   1    8.30    4.55
 -11   0  -1    5.93    4.08
 -11   0  -1    6.69    4.12
  11   0  -1    0.94    7.16
  11   0  -1    4.54    4.80
 -11   0   1    6.33    4.03
  11   0   1    1.84    7.79
  11   0   1    7.59    4.77
 -11   0   1    1.57    4.08
 -11   1  -1    7.81    4.62
 -11   1  -1    6.31    4.42
  11  -1  -1   -0.50    7.54
  11  -1  -1    5.40    5.03
 -11   1   1    8.53    4.41
 -11   1   1    3.87    4.48
  11  -1   1    3.41    7.83
  11  -1   1    0.83    4.87
  11  -2  -1    4.75    4.73
 -11   2  -1    5.76    4.21
  11  -2  -1    4.82    7.49
 -11   2  -1    3.21    4.23
 -11   2   1    2.62    3.87
  11  -2   1    2.61    7.59
  11  -2   1   -3.04    4.73
  11  -3  -1   -3.69    5.05
  11  -3  -1   -0.58    7.56
  11  -3   1   -6.73    8.05
 -11   3   1   -1.42    3.92
  11  -3   1   -0.45    4.52
  11  -4  -1   46.02   16.90
  11  -4  -1   39.64   19.86
  11  -4   1   50.03   16.88
 -11   4   1   41.43   16.80
 -11   5  -1    2.46    4.06
  11  -5  -1    3.60    5.52
 -11   5   1    0.84    4.06
  11  -5   1    0.49    5.24
  12   6  -1   -2.94    7.69
 -12  -5  -1   -1.02    4.51
  12   5  -1    7.91    6.62
  12   5  -1   12.81    7.90
  12   5   1   14.11    7.71
 -12  -5   1   -3.46    4.43
  12   4  -1   12.48    7.52
  12   4  -1    5.38    5.35
 -12  -4  -1   -0.49    3.34
  12   4   1   -8.19    6.23
 -12  -4   1   -0.47    3.68
  12   4   1    0.87    6.68
  12   3  -1   18.15    8.82
  12   3  -1    7.45    7.08
 -12  -3  -1   12.86    5.89
 -12  -3   1    6.85    5.71
  12   3   1    8.40    7.15
  12   3   1   10.32    8.52
 -12  -2  -1   25.03    5.62
  12   2  -1    0.48    8.67
  12   2  -1    7.74    6.31
 -12  -2   1   11.53    5.63
  12   2   1    5.59    6.65
  12   2   1    1.80    8.24
 -12  -1  -1    4.86    4.06
  12   1  -1    1.81    4.83
  12   1  -1   -0.51    8.27
 -12  -1   1   -0.43    4.04
 -12  -1   1   -1.29    4.54
  12   1   1   -7.35    5.66
  12   1   1  -13.06    8.17
 -12   0  -1    4.98    4.30
 -12   0  -1   -0.67    4.55
  12   0  -1   -6.92    8.04
  12   0  -1   -5.59    5.17
 -12   0   1   -2.66    4.08
 -12   0   1    0.65    4.03
  12   0   1   -2.84    5.57
  12   0   1    1.04    8.27
 -12   1  -1  -11.82    5.10
  12  -1  -1    0.46    4.96
  12  -1  -1    5.07    8.86
 -12   1  -1   -3.31    4.32
 -12   1   1    6.19    4.61
  12  -1   1  -10.96    8.94
 -12   1   1    4.83    4.45
  12  -1   1   -3.38    5.21
 -12   2  -1    9.19    5.85
  12  -2  -1    1.19    9.27
 -12   2  -1    6.49    5.63
  12  -2  -1    7.82    6.31
 -12   2   1    6.81    6.02
  12  -2   1   10.12    6.31
  12  -2   1   -5.81   10.01
 -12   2   1    9.53    5.66
 -12   3  -1   16.92    6.87
  12  -3  -1    9.10    7.06
  12  -3  -1   10.15   10.40
 -12   3  -1    6.91    6.19
  12  -3   1   12.74    6.90
 -12   3   1   11.78    6.48
  12  -3   1    4.33   10.33
  12  -4  -1   11.08    5.77
  12  -4  -1   -5.46    8.46
  12  -4   1    0.51    5.47
 -12   4   1    1.72    4.44
  12  -5  -1    9.46    7.69
  12  -5   1   21.56    7.68
 -12   5   1   14.70    7.13
  12  -6   1    2.20    5.67
  13   6  -1   55.58   24.31
  13   5  -1    5.96    8.62
  13   5  -1   12.01    6.77
 -13  -5  -1    3.94    4.12
 -13  -5   1    2.71    4.16
  13   5   1    3.06    7.21
  13   5   1   -1.48    6.32
 -13  -4  -1    0.54    4.26
  13   4  -1    7.14    6.88
  13   4  -1    5.23    9.13
  13   4   1    4.77    6.85
  13   4   1    9.28    8.27
 -13  -4   1    4.18    4.56
  13   3  -1   -0.59    5.86
 -13  -3  -1    5.82    4.37
  13   3  -1   -3.24    9.23
  13   3   1   -7.61    8.63
 -13  -3   1   -3.56    4.48
  13   3   1   -2.46    6.09
  13   2  -1    1.09    8.77
  13   2  -1   -5.94    5.43
 -13  -2  -1    5.73    4.62
 -13  -2   1    1.50    4.47
  13   2   1    7.08    5.74
  13   2   1   -6.43    8.84
  13   1  -1    3.20    6.28
  13   1  -1    3.45    9.76
 -13  -1  -1    7.97    4.98
 -13  -1   1    8.22    5.05
  13   1   1    8.21    6.27
  13   1   1   12.62    9.38
 -13  -1   1    0.73    5.47
 -13   0  -1   -5.60    4.68
 -13   0  -1    0.76    5.16
  13   0  -1  -15.55   10.20
  13   0  -1    9.93    5.61
 -13   0   1   -1.49    4.65
 -13   0   1   11.75    4.98
  13   0   1    0.59    9.23
  13   0   1    5.27    5.76
  13  -1  -1    3.63    5.70
  13  -1  -1   -4.40    9.34
 -13   1  -1   -1.06    5.05
 -13   1  -1    7.83    5.39
  13  -1   1    3.25    5.91
  13  -1   1    8.59    9.86
 -13   1   1   -2.14    5.08
 -13   1   1    0.77    4.88
  13  -2  -1   -9.83    9.65
 -13   2  -1    0.81    4.91
  13  -2  -1   -3.80    6.02
 -13   2  -1    3.37    5.40
 -13   2   1   -7.55    5.68
  13  -2   1   -4.51   10.06
  13  -2   1    0.53    5.59
 -13   2   1   -4.09    4.73
 -13   3  -1    1.21    5.93
  13  -3  -1    6.65    6.73
 -13   3   1   14.81    5.28
  13  -3   1    2.21    6.33
 -13   6  -1    6.26   18.02
  13  -6   1   59.28   18.05
  14   6  -1    1.83    9.90
  14   6   1    3.61    8.84
  14   5   1   18.59    9.39
  14   5   1    1.59    5.37
 -14   2  -1   -0.91    5.72
  14  -2   1   -5.00   10.03
 -14   3  -1   41.21    9.05
 -14   3  -1    3.82    8.68
  14  -3  -1   14.48   13.49
 -14   3   1    0.96    8.84
  14  -3   1   28.62    9.42
  14  -3   1    3.76   13.27
 -14   4  -1   -3.03    6.24
  14  -4  -1   -1.27    6.42
 -14   4  -1    3.49    6.61
  14  -4  -1    1.61   10.18
  14  -4   1    0.78   11.04
 -14   4   1    1.04    5.67
  14  -4   1    1.22    6.64
  14  -5  -1   -9.24    7.55
  14  -5  -1    4.28   10.87
  14  -5   1    8.19    7.09
 -14   5   1   -4.38    5.30
 -14   6  -1    4.55    5.64
  14  -6   1  -14.96    7.37
  15   6  -1   26.59   16.46
  15   6   1   10.10   15.31
  15   5  -1   -0.82    8.21
 -15  -5  -1    6.75    5.91
  15   5  -1   18.51   12.33
  15   5   1   11.96    8.72
 -15  -5   1    5.87    6.19
  15   5   1   16.83   11.24
  15   4  -1   -1.40   12.92
  15   4  -1   13.90    8.18
 -15  -4  -1    1.98    6.04
  15   4   1   24.13   11.08
 -15  -4   1    5.11    6.58
  15   4   1   13.67    8.46
  15   3  -1   -6.92   11.78
  15   3  -1    0.71    6.92
 -15  -3  -1    2.61    5.27
 -15  -3   1   -4.43    5.30
  15   3   1    0.68   11.21
  15   3   1    5.18    6.92
  15   2  -1    2.01    7.46
 -15  -2  -1    1.96    5.44
  15   2  -1   -8.60   13.17
 -15  -2   1   -1.85    6.28
  15   2   1  -14.31   11.82
  15   2   1   10.14    7.54
 -15  -2   1   -6.32    6.28
  15   1  -1   11.31    8.19
 -15  -1  -1   -1.90    6.68
  15   1  -1   10.97   13.44
 -15  -1  -1   14.50    6.63
 -15  -1   1   -0.62    6.71
 -15  -1   1    0.92    6.41
  15   1   1    9.57    8.28
  15   0  -1   85.46   19.49
  15   0  -1   20.77   13.17
 -15   0  -1   17.34   12.08
 -15   0  -1    8.55   12.55
 -15   0   1    5.74   11.78
  15   0   1   25.34   13.78
 -15   0   1   -0.95   12.45
  15  -1  -1   -2.01    7.43
  15  -1  -1    4.64   12.59
 -15   1  -1    7.23    6.90
 -15   1  -1    1.97    6.70
 -15   1   1  -13.93    6.52
  15  -1   1    3.07   13.06
  15  -1   1   -2.68    8.04
 -15   1   1   12.64    6.47
 -15   2  -1   -1.01    5.87
  15  -2  -1   14.53   12.60
 -15   2  -1    2.08    6.44
  15  -2  -1    0.66    7.06
  15  -2   1   -6.83    7.54
 -15   2   1    4.24    6.71
  15  -2   1   -5.53   12.79
 -15   2   1   11.20    6.65
 -15   3  -1   -1.47    6.49
  15  -3  -1   -2.74    7.50
 -15   3  -1   -7.45    6.32
  15  -3  -1   -5.85   11.83
  15  -3   1   -0.67    7.34
  15  -3   1    6.61   12.34
 -15   3   1   -6.04    7.19
 -15   3   1    2.14    6.02
  15  -4  -1   -0.88   12.81
 -15   4  -1   -6.71    7.18
  15  -4  -1    8.30    7.95
 -15   4  -1    8.42    7.50
  15  -4   1   13.70   12.76
  15  -4   1    5.49    8.15
 -15   4   1   15.10    8.14
 -15   4   1    3.43    6.85
  15  -5  -1    7.89    8.45
  15  -5  -1   11.12   12.72
 -15   5   1   10.79    7.18
  15  -5   1    8.23    8.10
  15  -6   1   31.06   14.39
  16   6  -1   -0.81   13.09
  16   6   1    0.79   12.10
 -16  -5  -1    1.48    5.34
  16   5  -1   -5.67   13.47
  16   5  -1   15.97    8.25
  16   5   1   17.54    8.78
 -16  -5   1   -0.72    5.39
  16   5   1  -12.84   13.78
 -16  -4  -1   -8.02    5.47
  16   4  -1   -0.79   13.54
  16   4  -1   -3.38    9.07
  16   4   1    5.27    8.26
  16   4   1    6.94   12.54
 -16  -4   1   10.59    5.80
  16   3  -1    0.79    7.71
  16   3  -1   -8.59   13.92
 -16  -3  -1   -4.35    6.01
  16   3   1   -9.15   13.21
  16   3   1   -5.70    7.95
 -16  -3   1    7.05    5.75
 -16  -2  -1   -5.35    7.40
  16   2  -1   -4.84   13.93
 -16  -2  -1    3.65    6.15
  16   2  -1   -6.26    7.93
  16   2   1   -4.59   12.59
 -16  -2   1    2.07    7.31
  16   2   1   -7.23    7.64
 -16  -2   1    4.96    6.27
  16   1  -1   -6.56   14.52
 -16  -1  -1    2.21    6.31
  16   1  -1   -5.21    8.20
 -16  -1  -1   -2.12    7.26
 -16  -1   1    3.47    6.01
  16   1   1    2.41   13.04
  16   1   1   -2.28    7.52
 -16  -1   1    3.09    6.73
  16   0  -1   29.47   14.13
  16   0  -1   -8.64    8.39
 -16   0  -1    2.88    6.78
 -16   0  -1    5.44    7.61
  16   0   1   -1.65   13.06
 -16   0   1   -6.42    6.81
  16   0   1   -2.28    8.54
 -16   0   1    5.31    7.22
  16  -1  -1   12.69    8.21
 -16   1  -1    7.46    7.05
 -16   1  -1   -1.11    7.63
  16  -1  -1   -0.86   12.65
 -16   1   1    3.69    7.40
  16  -1   1   14.48   13.75
 -16   1   1   -1.09    6.94
  16  -2  -1   24.90   13.07
 -16   2  -1    5.73    7.42
  16  -2  -1   -6.88    8.65
 -16   2  -1   -6.90    7.05
  16  -2   1    5.24   13.25
 -16   2   1   -0.78    7.77
 -16   2   1   -1.14    6.97
  16  -2   1   -0.76    8.29
 -16   3  -1   -9.50    6.79
  16  -3  -1   21.06   13.15
 -16   3  -1    0.80    7.57
  16  -3  -1    9.81    8.05
 -16   3   1    1.19    7.13
 -16   3   1   12.49    8.42
  16  -3   1    5.91    7.77
  16  -3   1    0.91   13.38
  16  -4  -1   26.88   13.34
 -16   4  -1   14.30    8.08
  16  -4  -1   -2.33    8.69
 -16   4  -1  -12.42    7.94
  16  -4   1   44.07   14.17
 -16   4   1   -1.26    7.47
 -16   4   1   -6.98    8.39
  16  -4   1   -9.03    8.23
 -16   5  -1    9.17    7.65
  16  -5  -1    1.01   12.92
  16  -5  -1   14.83    8.90
 -16   5  -1   -2.61    8.48
 -16   5   1    2.63    6.50
  16  -5   1    8.43    8.56
  16  -5   1  -11.83   12.46
  16  -6   1    0.77    8.32
  17   6  -1  -11.75   14.93
  17   6   1   -1.77   15.02
  17   5  -1    0.91   16.53
  17   5  -1    6.75    8.27
 -17  -5  -1  -11.37    6.14
 -17  -5   1   -6.30    5.80
  17   5   1    8.90   14.41
  17   5   1    5.00    9.17
 -17  -4  -1  -10.47    6.12
  17   4  -1   -4.64    9.55
  17   4  -1   -5.34   15.58
  17   4   1    2.88    9.71
  17   4   1    0.87   14.88
 -17  -4   1    7.04    6.10
  17   3  -1   31.44   13.17
  17   3  -1   48.95   18.89
 -17  -3  -1   17.75   10.41
  17   3   1   25.16   12.60
 -17  -3   1  -17.69   11.94
 -17  -3   1   16.50   10.73
  17   3   1   55.04   17.49
 -17  -2  -1    1.19    8.66
  17   2  -1  -37.21   16.84
 -17  -2  -1  -16.33    8.65
  17   2  -1   -2.61   10.96
  17   2   1    2.66   14.79
 -17  -2   1  -16.22    8.92
  17   2   1   -4.46   10.14
 -17  -2   1  -11.15    8.55
  17   1  -1   -2.50    9.57
  17   1  -1   13.74   15.36
 -17  -1  -1   13.03    8.29
 -17  -1  -1   -9.91    7.40
 -17  -1   1    4.68    7.40
 -17  -1   1    1.18    8.08
  17   1   1   -6.31   15.14
  17   1   1   -8.51    9.83
  17   0  -1    6.74    8.80
 -17   0  -1    1.22    7.97
  17   0  -1  -15.89   14.57
 -17   0  -1    4.86    7.34
  17   0   1   -7.42   15.72
 -17   0   1   -2.38    8.39
 -17   0   1    9.62    8.06
  17   0   1    0.85    8.86
 -17   1  -1   -2.47    8.75
  17  -1  -1   14.25   14.63
  17  -1  -1   -8.28    8.74
 -17   1  -1    1.66    8.29
 -17   1   1   -1.21    7.35
  17  -1   1    1.64    8.96
 -17   1   1   -4.19    8.46
  17  -1   1    5.65   14.87
  17  -2  -1  -14.71   14.89
 -17   2  -1   10.20    8.64
  17  -2  -1    0.85    9.70
 -17   2  -1   -7.67    7.87
  17  -2   1  -12.60    9.96
  17  -2   1  -15.43   15.21
 -17   2   1    2.53    8.50
 -17   2   1   -1.73    8.30
  17  -3  -1    9.04   15.69
  17  -3  -1   10.82    9.59
 -17   3  -1   -9.75    9.29
 -17   3  -1   -1.32    8.98
 -17   3   1   -1.32    9.21
 -17   3   1   -0.91    9.43
  17  -3   1   33.00   16.66
  17  -3   1   -0.85    9.97
 -17   4  -1    3.67    9.02
  17  -4  -1    8.40   14.51
 -17   4  -1   -1.39    8.26
  17  -4  -1    0.85    9.64
 -17   4   1   11.50    9.87
  17  -4   1  -10.28   14.99
 -17   4   1   -1.39    7.69
  17  -4   1    5.78    9.08
  17  -5  -1   -1.09   13.90
 -17   5  -1  -15.92    7.28
 -17   5  -1  -12.41    9.05
  17  -5  -1   -7.85   10.20
  17  -5   1   -5.05    9.79
 -17   5   1   22.94   10.51
  17  -5   1    9.69   14.26
 -17   5   1    7.23    7.58
 -17   6  -1   -0.98    9.34
  17  -6   1   -6.67    9.36
  18   6  -1    5.34   17.72
  18   6   1   -1.98   16.37
 -18  -5  -1   -8.93    6.62
  18   5  -1    6.17   16.62
  18   5  -1   -6.32    9.31
 -18  -5   1    9.53    6.59
  18   5   1  -20.04   18.00
  18   5   1    6.53    9.21
 -18  -4  -1   -0.89    6.97
  18   4  -1  -28.03   16.52
  18   4  -1   -8.18    9.08
 -18  -4   1    2.71    9.96
  18   4   1  -30.29   17.79
 -18  -4   1   -3.47    6.56
  18   4   1   17.93    9.65
 -18  -3  -1   -1.35    9.96
 -18  -3  -1    0.90    8.25
  18   3  -1    4.84   10.21
  18   3  -1  -35.70   16.57
 -18  -3   1    7.90    9.74
  18   3   1   47.90   17.49
 -18  -3   1    6.14    7.47
  18   3   1   -3.98   10.17
 -18  -2  -1   -5.47    7.98
  18   2  -1   -0.97    9.61
  18   2  -1  -13.25   17.88
 -18  -2  -1    5.32    9.74
 -18  -2   1    6.48    8.69
 -18  -2   1    5.36    8.11
  18   2   1   -0.99    9.76
  18   2   1   24.92   16.94
  18   1  -1   -3.10   16.23
  18   1  -1   -0.93    9.34
 -18  -1  -1    3.71    7.96
 -18  -1  -1   -2.64    9.42
 -18  -1   1   10.03    8.37
 -18  -1   1  -10.56    8.49
  18   1   1   -3.02   16.30
  18   1   1   -1.89    9.15
  18   0  -1   18.66   16.54
 -18   0  -1    5.44    9.41
  18   0  -1   -7.51   10.32
 -18   0  -1   -2.73    7.71
 -18   0   1   -0.90    8.55
 -18   0   1   -9.33    7.88
  18   0   1  -24.73   16.41
  18   0   1   10.42    9.60
 -18   1  -1   -0.93    9.28
  18  -1  -1   -3.66   10.57
  18  -1  -1   -8.41   15.79
 -18   1  -1  -11.05    8.37
  18  -1   1  -30.25   16.62
 -18   1   1    2.74    8.42
 -18   1   1    5.61    8.94
  18  -1   1  -16.23    9.94
  18  -2  -1   -3.77   10.02
 -18   2  -1   11.54    9.67
 -18   2  -1  -10.01    8.51
  18  -2  -1  -15.14   17.21
 -18   2   1    4.80    9.64
 -18   2   1    2.82    8.88
  18  -2   1    8.61   16.38
  18  -2   1  -12.07   10.76
  18  -3  -1   -2.87   10.07
  18  -3  -1    3.31   15.52
 -18   3  -1    7.38    8.95
 -18   3  -1    0.98    9.59
 -18   3   1   20.12   10.17
  18  -3   1    3.30   16.29
  18  -3   1  -12.23   10.96
 -18   3   1    8.79    8.65
  18  -4  -1    2.81   10.54
  18  -4  -1    1.15   14.79
 -18   4  -1    1.55    8.25
 -18   4  -1    1.01   10.26
  18  -4   1    9.02   16.07
  18  -4   1    6.38   10.16
 -18   4   1    1.54    7.69
 -18   4   1    4.19    9.99
 -18   5  -1   -1.60    7.99
  18  -5  -1   -1.19   15.15
  18  -5  -1  -12.46   10.10
 -18   5  -1   -4.20   10.54
 -18   5   1    7.96    8.29
  18  -5   1   20.00   15.70
  18  -5   1   -7.37   10.44
 -18   5   1    7.66   10.98
 -18   6  -1    1.08   10.48
  18  -6   1  -14.06   10.67
  19   6  -1  -20.44   20.31
  19   6   1   29.26   20.63
  19   5  -1   -6.92   11.00
 -19  -5  -1   -7.88    7.77
  19   5  -1  -24.36   20.53
  19   5   1   -6.76   18.82
 -19  -5   1  -11.47    7.32
  19   5   1   13.08   10.87
  19   4  -1  -11.28   12.57
  19   4  -1   39.63   21.29
 -19  -4  -1   -3.10   11.94
 -19  -4  -1   -1.98    8.25
  19   4   1   10.46   12.60
  19   4   1   35.23   19.15
 -19  -4   1   -6.74    8.67
 -19  -4   1    9.06   11.68
 -19  -3  -1   -5.00   10.10
 -19  -3  -1   -7.54   12.16
  19   3  -1  -12.91   13.26
  19   3  -1  -80.61   22.43
 -19  -3   1  -12.73   10.00
 -19  -3   1    1.47   11.55
  19   3   1  -19.82   12.67
 -19  -2  -1   -7.43   10.81
 -19  -2  -1   -1.02    9.40
  19   2  -1  -17.14   17.87
  19   2  -1   -9.73   11.95
 -19  -2   1    1.48   11.60
 -19  -2   1  -14.04    9.53
  19   2   1  -22.41   18.43
  19   2   1   -2.20   11.13
 -19  -1  -1  -11.47    9.25
  19   1  -1    2.09   10.71
 -19  -1  -1   -1.51   11.83
  19   1  -1  -31.08   18.47
 -19  -1   1    8.88   10.35
 -19  -1   1    5.13    9.10
  19   1   1   -4.41   10.76
  19   1   1    3.38   18.43
  19   0  -1    1.15   17.85
 -19   0  -1    7.62   10.27
  19   0  -1    4.21   11.17
 -19   0  -1   -5.31    9.00
  19   0   1    9.15   18.61
 -19   0   1  -11.18    9.25
 -19   0   1    8.95    9.65
  19   0   1   -1.06   10.27
  19  -1  -1  -34.10   19.16
 -19   1  -1    9.41    9.84
 -19   1  -1    6.17    9.59
  19  -1  -1  -19.24   10.72
  19  -1   1   -6.36   11.02
  19  -1   1   -2.31   17.91
 -19   1   1    1.53   10.00
 -19   1   1   -8.38    9.74
  19  -2  -1   -5.96   18.89
 -19   2  -1   -1.60   10.53
  19  -2  -1  -11.49   12.85
 -19   2  -1   -6.43   11.57
  19  -2   1    5.12   10.92
 -19   2   1  -17.40   11.87
  19  -2   1  -13.06   18.94
 -19   2   1  -14.18   10.16
  19  -3  -1  -10.64   13.83
  19  -3  -1  -49.78   20.44
 -19   3  -1   -1.65   11.05
 -19   3  -1    1.08   11.71
  19  -3   1    1.04   12.72
 -19   3   1   -1.65   11.71
 -19   3   1    4.45   12.37
  19  -4  -1    1.04   12.37
 -19   4  -1    8.94   11.72
 -19   4  -1   -1.72   11.48
  19  -4   1  -22.01   12.64
 -19   4   1   15.02   12.18
 -19   4   1   -3.40    9.95
  19  -4   1   56.99   21.48
 -19   5  -1   -2.29   11.26
  19  -5  -1   -7.83   17.72
 -19   5  -1   -3.55    9.01
  19  -5  -1   14.74   11.86
 -19   5   1   -2.41   12.60
 -19   5   1   12.30    8.97
  19  -5   1    1.29   17.54
  19  -5   1   -9.13   12.46
 -19   6  -1   18.29    9.86
 -19   6  -1   -7.10   12.62
  19  -6   1   10.29   12.13
  20   6  -1   17.66   24.30
  20   6   1   10.56   22.74
 -20  -5  -1    9.80    8.78
  20   5  -1    6.34   11.80
  20   5  -1    8.10   22.61
 -20  -5   1   -6.99   11.64
 -20  -5   1    6.34    8.47
  20   5   1   19.10   22.39
 -20  -4  -1    4.39    8.67
 -20  -4  -1    1.73   11.48
  20   4  -1   12.50   12.41
  20   4  -1  -17.10   22.35
  20   4   1   -6.40   22.06
 -20  -4   1   28.68   12.82
  20   4   1    9.00   11.60
 -20  -4   1   -1.07    8.67
 -20  -3  -1   -3.35    8.59
  20   3  -1   12.94   21.44
 -20  -3  -1  -26.99   12.99
  20   3  -1  -15.57   13.93
  20   3   1   11.47   12.81
  20   3   1   24.02   21.63
 -20  -3   1   -8.23   12.53
 -20  -3   1    1.09    8.48
  20   2  -1   24.56   21.56
 -20  -2  -1   -9.15   10.18
  20   2  -1   12.08   13.19
 -20  -2  -1   -3.40   11.27
 -20  -2   1    4.99   10.92
  20   2   1   -8.56   11.92
  20   2   1  -13.83   20.88
 -20  -2   1   -1.12   10.36
 -20  -1  -1    1.69   11.38
  20   1  -1  -47.35   20.83
 -20  -1  -1   15.25   10.27
  20   1  -1    2.44   12.75
  20   1   1   19.03   21.06
  20   1   1   -3.69   12.40
 -20  -1   1  -49.84   11.18
 -20  -1   1    1.16   10.41
 -20   0  -1   -6.83   11.29
  20   0  -1   -5.90   12.83
  20   0  -1   28.18   20.53
 -20   0  -1   20.32   11.76
  20   0   1   29.58   12.98
  20   0   1    6.34   20.25
 -20   0   1    6.86   10.79
 -20   0   1   -8.44   11.45
  20  -1  -1   18.22   21.29
 -20   1  -1    5.24   10.81
 -20   1  -1  -18.79   11.06
  20  -1  -1   -1.19   12.55
  20  -1   1   26.90   20.44
  20  -1   1   -1.18   12.13
 -20   1   1   -2.35   10.69
 -20   1   1  -27.47   11.08
 -20   2  -1    5.98   11.38
 -20   2  -1    1.79   11.44
  20  -2  -1    3.47   12.58
  20  -2  -1  -18.41   19.77
 -20   2   1    3.52    9.90
  20  -2   1    3.58   12.45
 -20   2   1    7.28   11.40
  20  -2   1    1.31   20.25
  20  -3  -1   -4.01   18.81
 -20   3  -1   -3.68   11.50
  20  -3  -1   -8.27   12.53
 -20   3  -1    6.13   11.79
 -20   3   1  -12.34   13.36
 -20   3   1  -11.02   10.84
  20  -3   1  -30.64   21.27
  20  -3   1    9.22   13.35
 -20   4  -1  -13.58   13.25
  20  -4  -1   -4.78   13.01
 -20   4  -1    9.59   11.35
  20  -4  -1    6.92   18.65
 -20   4   1    8.94   13.19
 -20   4   1   -1.89    9.96
  20  -4   1   13.76   19.52
  20  -4   1   16.29   13.45
 -20   5  -1   15.20   12.96
  20  -5  -1    1.16   12.96
  20  -5   1   -8.18   13.98
 -20   5   1    1.32   13.50
  21   4  -1   11.12   13.61
 -21  -4   1   -5.97    9.51
  21   3  -1  -18.12   12.67
 -21  -3   1    1.23    9.91
  21   2  -1    2.70   12.88
 -21  -2   1    7.58   11.22
  21   1  -1   16.42   15.09
 -21  -1   1    1.30   12.68
  21   0  -1   -5.29   13.72
  21   0  -1    1.42   17.06
 -21   0   1   -5.36   12.19
   1   0  -2   -0.07    0.15
   1   0  -2   -0.06    0.10
   0   1  -2   -0.04    0.09
  -1   0   2   -0.09    0.17
   1   1  -2  180.15   87.59
   2   1  -2    8.12    3.40
  -2  -1  -2    0.25    2.93
   2   1  -2    6.69    2.86
   2   1  -2    5.24    3.33
   2   1  -2    8.30    3.38
  -2  -1   2    9.31    2.87
  -2  -1   2    7.59    2.79
  -2   0  -2   36.64   12.49
   2   0  -2   20.90   12.84
   2   0  -2   35.35   17.11
   2   0   2   32.10   14.36
   2   0   2   31.90   14.68
  -2   0   2   39.09   13.13
   0  -2   2   21.20   12.71
  -2   1  -2    8.79    3.32
   2  -1   2    8.22    3.59
   2  -1   2    8.71    4.04
  -2   2  -2    5.31    2.09
   2   2  -2    3.67    2.05
   2  -2   2    5.08    2.85
  -2  -2   2    4.92    2.04
   3   2  -2   28.36   10.54
   3   2  -2   14.48   11.66
   3   2  -2   33.21   10.28
   3   2  -2   25.29    9.32
  -3  -2   2    4.94    9.52
  -3  -2   2   31.88    9.20
   3   1  -2    1.35    0.79
   3   1  -2    0.08    1.05
  -3  -1  -2   -0.11    0.63
   3   1  -2    0.49    0.56
   3   1  -2    0.07    0.78
  -3  -1   2    0.53    0.56
   3   1   2    0.31    0.92
  -3  -1   2    0.33    0.61
   3   0  -2    0.41    0.56
   3   0  -2   -0.35    1.01
   3   0  -2   -0.47    1.31
   3   0  -2   -0.10    0.69
  -3   0  -2    0.56    0.56
   3   0   2    0.11    0.88
  -3   0   2   -0.13    0.57
  -3   0   2    0.12    0.98
   3  -1  -2    0.16    1.35
  -3   1  -2    0.43    0.74
   3  -1   2    0.75    0.89
  -3   1   2    1.28    0.68
   3  -1   2   -0.12    1.21
  -3   2  -2   32.16    9.08
   3  -2   2   14.79    9.75
   3  -2   2   24.37   11.26
  -3  -3   2    0.55    1.08
   4   3  -2   26.23   14.26
   4   3  -2   34.49   17.35
  -4  -3   2   39.43   14.46
   4   2  -2    9.10    4.57
   4   2  -2    9.86    4.21
  -4  -2  -2    0.16    3.64
   4   2  -2   11.78    3.78
   4   2  -2   13.66    4.19
  -4  -2   2    9.15    3.76
   4   2   2    2.56    4.68
  -4  -2   2   13.57    3.68
   4   2   2    7.14    4.29
   4   1  -2    0.49    1.09
  -4  -1  -2    0.72    0.84
   4   1  -2   -0.08    1.09
   4   1  -2    0.57    1.38
   4   1  -2    0.33    0.74
  -4  -1   2    0.11    0.79
   4   1   2    0.18    1.39
  -4  -1   2    0.10    0.80
   4   0  -2   -0.07    0.71
   4   0  -2    0.30    1.74
   4   0  -2   -0.13    0.99
   4   0  -2    0.20    1.14
  -4   0  -2    0.12    0.80
   4   0   2    0.57    1.13
  -4   0   2   -0.07    1.28
  -4   0   2   -0.17    0.92
   4  -1  -2    0.16    1.24
  -4   1  -2    0.19    0.91
   4  -1  -2   -0.60    2.35
   4  -1  -2    0.15    1.42
   4  -1   2    0.46    1.75
  -4   1   2    1.34    1.01
   4  -1   2    0.70    1.14
  -4   2  -2    9.44    3.57
   4  -2   2   10.20    3.94
  -4   2   2    5.74    3.64
   4  -2   2    6.10    4.87
  -4   3  -2   55.30   16.14
   4  -3   2   24.85   20.08
   5   3  -2   12.05    6.26
   5   3  -2   12.40    5.50
   5   3  -2   10.99    4.84
   5   3  -2   20.64    5.65
  -5  -3   2   13.41    4.91
  -5  -3   2    0.84    4.89
   5   2  -2   32.64   14.11
   5   2  -2   31.45   13.26
   5   2  -2   36.24   12.23
   5   2  -2   30.06   13.46
  -5  -2  -2    3.41   12.18
  -5  -2   2   36.03   12.00
  -5  -2   2   34.31   12.14
   5   2   2   30.75   14.83
  -5  -1  -2    0.69    1.45
   5   1  -2    2.30    1.26
   5   1  -2    0.89    2.26
   5   1  -2    1.25    1.74
   5   1  -2    1.94    1.62
   5   1   2    0.62    1.85
  -5  -1   2    2.14    1.32
  -5  -1   2    1.78    1.41
   5   1   2    3.31    1.97
  -5  -1   2    0.90    2.00
   5   0  -2   -0.19    2.50
   5   0  -2   -0.31    1.70
   5   0  -2   -0.36    1.68
  -5   0  -2    0.16    1.24
   5   0  -2   -0.08    0.89
   5   0   2   -0.89    1.62
  -5   0   2    0.22    1.19
  -5   0   2    0.08    1.71
   5  -1  -2    0.24    3.32
  -5   1  -2    6.19    1.67
  -5   1  -2    2.45    1.71
   5  -1  -2    2.07    1.90
   5  -1  -2    1.38    1.73
   5  -1   2    1.89    1.86
  -5   1   2    2.15    1.57
   5  -2   2   20.90   11.25
  -5   4  -2   11.48    5.04
   6   4  -2    1.23    2.47
  -6  -3  -2   -0.94   19.07
   6   3  -2   73.17   21.23
   6   3  -2   52.02   18.95
   6   3   2   49.44   21.44
   6   2  -2    6.36    2.73
   6   2  -2    4.30    2.96
  -6  -2  -2    2.68    2.58
   6   2   2    8.40    3.50
   6   2   2    5.40    3.35
  -6  -2   2    4.38    2.68
   6   1  -2    5.84    2.51
   6   1  -2    3.83    2.90
  -6  -1   2    5.06    3.23
  -6  -1   2    6.08    2.54
   6   1   2    5.39    2.87
   6   1   2    4.83    3.53
  -6   0  -2    5.70    2.15
   6   0  -2    3.71    2.81
   6   0  -2    1.87    1.76
  -6   0   2    1.90    2.97
   6   0   2    2.94    1.89
   6  -1  -2    3.96    2.43
  -6   1   2    3.91    3.66
  -6   2  -2    4.50    2.82
   6  -2  -2    1.61    4.63
   6  -2  -2    9.90    3.28
   6  -2   2   -1.38    4.43
   6  -2   2    6.82    3.19
  -6   2   2    7.45    2.92
  -6   3  -2   73.27   22.32
   6  -3   2   65.29   23.27
   6  -3   2   50.00   26.29
  -6   3   2   54.38   22.84
  -6   4  -2   -0.46    2.38
   6  -4   2    1.09    2.31
   6  -4   2    4.27    4.28
   7   4  -2    1.35    3.23
   7   4  -2   -0.26    3.48
   7   4  -2    7.16    3.22
  -7  -4   2    0.25    1.96
   7   3  -2   12.40    5.59
  -7  -3  -2    0.27    4.45
   7   3  -2   13.23    5.33
   7   3   2   12.80    5.24
  -7  -3   2    5.75    4.48
   7   3   2   10.83    5.78
   7   2  -2   -0.17    2.46
   7   2  -2    4.55    3.84
   7   2  -2    4.31    2.71
   7   2  -2    1.52    3.18
  -7  -2  -2    2.33    2.44
  -7  -2   2    4.50    2.42
  -7  -2   2    5.06    2.36
   7   2   2    5.19    3.40
   7   2   2    4.79    3.29
   7   1  -2    2.73    2.24
  -7  -1  -2    0.23    1.79
   7   1  -2   -0.71    3.61
   7   1  -2    0.12    1.88
   7   1  -2    1.13    1.43
   7   1   2    0.86    2.87
  -7  -1   2    0.82    1.70
   7   1   2   -0.55    2.64
  -7  -1   2    1.03    1.55
  -7  -1   2   -1.59    2.52
   7   1   2    0.23    1.38
  -7   0  -2    1.01    1.38
   7   0  -2   -1.09    3.71
  -7   0  -2    0.23    1.80
   7   0  -2   -2.97    2.33
   7   0  -2    0.31    2.26
   7   0  -2   -0.20    1.32
  -7   0  -2   -0.33    0.90
  -7   0   2    3.65    2.09
  -7   0   2    1.62    2.49
  -7   0   2    1.92    1.83
   7   0   2   -0.06    1.17
   7   0   2   -1.51    2.36
   7   0   2   -0.24    3.28
  -7   1  -2   -0.74    2.06
   7  -1  -2    0.60    1.38
   7  -1  -2    1.76    2.50
  -7   1  -2    0.05    0.63
   7  -1  -2   -2.20    4.02
  -7   1   2   -2.12    2.56
  -7   1   2    0.73    1.71
   7  -1   2    0.32    0.64
   7  -1   2    0.25    2.22
   7  -2  -2    1.81    5.02
  -7   2  -2    5.62    2.84
   7  -2  -2    3.71    3.22
   7  -2  -2    2.86    3.37
  -7   2   2    6.32    2.85
   7  -2   2    4.36    1.89
   7  -2   2    5.01    3.02
   7  -3  -2    6.21    7.02
   7  -3  -2    9.55    5.30
  -7   3  -2   16.67    4.96
   7  -3   2   11.17    5.26
  -7   3   2   11.65    5.09
   7  -3   2   11.28    6.92
  -7   4  -2    1.00    2.40
   7  -4   2   -2.10    5.40
   7  -4   2   -2.15    2.96
   7  -5   2    2.60    3.41
   8   5  -2   47.30   19.78
   8   5  -2   38.43   18.97
   8   4  -2   40.20   14.18
   8   4  -2   40.71   16.10
   8   4  -2   52.74   14.52
  -8  -4  -2    0.98   12.77
  -8  -4   2    2.35   13.12
   8   4   2   43.72   14.20
  -8  -3  -2    4.68    4.58
   8   3  -2   20.13    5.07
  -8  -3   2   18.35    5.35
  -8  -3   2   12.41    4.97
   8   3   2    5.08    5.82
   8   3   2    6.04    5.43
   8   2  -2    2.01    2.61
  -8  -2  -2    5.33    2.48
   8   2  -2    1.03    4.12
   8   2  -2    3.78    3.14
  -8  -2   2   -1.97    2.45
   8   2   2    3.25    3.52
   8   2   2    2.93    2.61
   8   2   2    2.97    3.58
   8   1  -2    3.10    4.51
   8   1  -2    1.87    2.84
   8   1  -2   -0.15    2.42
  -8  -1  -2    0.27    2.07
   8   1  -2    2.40    1.77
   8   1   2   -2.91    3.74
  -8  -1   2   -0.48    2.14
   8   1   2   -0.94    2.73
  -8  -1   2   -1.32    1.80
   8   1   2   -1.12    1.42
  -8  -1   2   -1.36    2.71
  -8   0  -2    6.44    3.65
   8   0  -2    8.59    2.65
   8   0  -2   12.00    3.79
   8   0  -2    4.50    3.92
  -8   0  -2    3.26    2.58
   8   0  -2   -2.54    5.58
  -8   0  -2    6.62    3.23
   8   0   2    6.42    3.86
   8   0   2    2.61    4.83
  -8   0   2    7.36    4.37
   8   0   2    5.05    3.24
  -8   0   2    3.72    3.25
  -8   0   2    6.39    3.22
  -8   1  -2   -0.53    0.87
  -8   1  -2    2.30    2.43
   8  -1  -2   -2.15    4.80
   8  -1  -2    0.24    1.59
   8  -1  -2    5.19    2.94
   8  -1   2   -0.18    0.82
  -8   1   2    1.67    2.49
   8  -1   2   -0.86    2.71
  -8   1   2   -2.29    2.75
   8  -2  -2    0.32    3.25
   8  -2  -2    5.25    5.48
   8  -2  -2    2.77    2.66
   8  -2   2    5.99    3.37
   8  -2   2    2.51    1.38
  -8   2   2    6.16    2.98
   8  -3  -2    9.09    7.34
   8  -3  -2    8.49    4.68
  -8   3  -2    1.92    4.04
  -8   3   2    3.25    4.24
   8  -3   2    3.52    4.62
   8  -3   2    9.22    6.86
   8  -3   2    7.27    4.04
  -8   4  -2   29.33   14.19
   8  -4  -2   37.20   14.51
   8  -4   2   38.33   14.56
   8  -4   2   45.72   16.83
  -8   5  -2   31.12   14.27
   8  -5   2   31.46   14.68
   8  -5   2   22.35   18.54
   9   5  -2   24.34   10.42
   9   5  -2    9.47   11.01
   9   4  -2    8.03    4.49
   9   4  -2    2.72    4.02
  -9  -4  -2   -1.47    2.54
   9   4  -2    0.26    4.08
   9   4   2   -3.62    3.88
  -9  -4   2    0.33    2.28
   9   4   2    0.30    4.00
   9   3  -2   49.73   20.31
  -9  -3  -2    8.44   18.67
   9   3  -2   56.68   21.09
   9   3  -2   46.18   19.61
   9   3  -2   53.63   21.41
  -9  -3   2   29.76   19.65
  -9  -3   2   32.02   18.72
   9   3   2   59.21   22.03
   9   3   2   45.40   20.43
   9   3   2   45.48   22.28
   9   2  -2    1.98    3.24
  -9  -2  -2   -2.01    2.90
   9   2  -2   -3.32    4.51
  -9  -2   2    3.69    2.53
   9   2   2    8.43    3.55
   9   2   2   -2.01    3.89
   9   2   2   -0.26    2.20
  -9  -1  -2    0.80    2.26
   9   1  -2    0.16    2.92
   9   1  -2   -1.98    5.07
  -9  -1  -2    1.85    2.53
   9   1  -2    5.56    3.23
  -9  -1   2    1.68    2.64
   9   1   2    0.35    3.35
   9   1   2    1.57    1.83
  -9  -1   2   -0.78    3.23
   9   1   2    0.31    4.41
   9   0  -2    0.20    3.09
   9   0  -2    6.74    3.25
  -9   0  -2   -0.32    2.26
   9   0  -2   -1.83    5.24
   9   0  -2   -0.25    1.60
  -9   0  -2    1.22    2.65
   9   0   2    0.67    3.31
  -9   0   2   -0.44    2.73
   9   0   2   -1.01    5.35
  -9   0   2   -1.37    3.40
  -9   0   2    0.31    2.72
   9  -1  -2    1.62    3.37
  -9   1  -2    0.33    3.10
   9  -1  -2    1.89    1.72
   9  -1  -2    2.43    5.93
   9  -1   2    1.64    3.57
  -9   1   2    2.38    2.80
   9  -2  -2   -6.72    5.36
   9  -2  -2    0.17    2.26
  -9   2  -2   -2.16    3.40
   9  -2  -2   -0.71    3.39
  -9   2   2    1.59    2.97
   9  -2   2   -2.02    3.61
   9  -3  -2   60.77   21.31
  -9   3  -2   43.88   20.75
   9  -3  -2   42.38   25.74
   9  -3  -2   53.07   21.98
   9  -3   2   49.51   24.71
  -9   3   2   66.72   21.50
   9  -3   2   58.03   21.41
  -9   4  -2   -0.60    3.00
   9  -4  -2    0.84    4.10
   9  -4   2    6.06    3.72
   9  -4   2    1.48    6.11
  -9   4   2    1.32    3.16
  -9   5  -2   21.01    9.68
   9  -5   2   15.10   10.00
   9  -5   2   33.30   12.91
  10   6  -2    8.20    6.72
  10   5  -2   12.93    7.97
  10   5  -2   24.59    8.04
 -10  -5   2    0.39    6.30
  10   4  -2   44.80   16.19
  10   4  -2   46.58   16.59
  10   4  -2   33.50   17.48
 -10  -4  -2    0.41   14.61
 -10  -4   2   15.73   14.84
  10   4   2   48.73   16.07
  10   4   2   39.22   17.67
  10   3  -2    0.97    3.43
 -10  -3  -2    1.57    3.19
  10   3  -2    4.67    4.58
  10   3  -2    7.06    3.34
  10   3  -2    3.83    5.73
  10   3   2    3.87    4.68
 -10  -3   2    1.42    3.54
 -10  -3   2    0.61    3.63
  10   3   2    8.57    4.92
  10   2  -2    8.85    2.93
  10   2  -2    0.46    2.74
 -10  -2  -2    3.78    3.14
  10   2  -2   -0.75    3.91
  10   2  -2    0.73    5.49
  10   2   2    5.87    5.32
 -10  -2   2    0.76    2.95
 -10  -2   2    2.60    2.95
  10   2   2   -0.45    4.31
  10   1  -2    0.76    5.85
  10   1  -2    1.41    3.56
 -10  -1  -2   -0.35    2.88
 -10  -1   2   -0.49    3.09
  10   1   2    0.40    3.63
  10   1   2   -0.35    5.10
 -10  -1   2    1.93    2.92
 -10   0  -2    9.09    3.45
  10   0  -2    0.42    6.26
  10   0  -2   -1.37    4.07
  10   0  -2   -1.74    3.86
 -10   0   2    4.86    3.51
 -10   0   2    4.43    4.17
  10   0   2   10.45    6.13
  10   0   2    1.52    3.81
 -10   0   2    3.00    3.33
  10  -1  -2    2.92    4.02
 -10   1  -2    1.12    3.49
  10  -1  -2    6.82    6.65
 -10   1  -2    1.07    3.26
  10  -1   2    0.37    4.03
 -10   1   2    3.25    3.22
  10  -1   2   -2.55    6.87
 -10   1   2    4.28    3.77
  10  -2  -2    4.77    4.24
  10  -2  -2   -4.97    6.05
 -10   2  -2   -0.41    3.75
  10  -2   2    5.82    4.23
 -10   2   2    1.19    3.72
  10  -3  -2   14.54    7.45
  10  -3  -2   10.27    5.04
 -10   3   2    7.30    4.22
  10  -3   2    0.40    4.69
  10  -4  -2   41.75   15.64
 -10   4  -2   41.22   15.46
  10  -4  -2   28.02   19.38
  10  -4   2   46.55   15.71
 -10   4   2   31.91   15.78
  10  -4   2   36.20   18.92
 -10   5  -2   16.27    7.04
  10  -5   2   14.40    7.28
  10  -5   2   16.10    9.63
  10  -6   2    4.56    5.22
  11   6  -2   10.29    7.58
  11   6  -2   11.24    7.86
  11   5  -2   10.45   10.65
  11   5  -2   26.36   11.42
  11   5  -2   32.90   11.40
 -11  -5   2    2.63    9.13
  11   5   2   29.76   10.70
 -11  -4  -2    0.91    3.09
  11   4  -2    2.57    4.15
  11   4  -2    5.71    6.07
  11   4  -2   -3.21    4.72
  11   4   2    0.77    5.63
 -11  -4   2   -2.09    3.01
  11   4   2    3.01    5.08
 -11  -3  -2   13.15    6.27
  11   3  -2   16.90    7.32
  11   3  -2   14.77    8.86
 -11  -3   2    7.80    7.28
  11   3   2   12.66    7.51
 -11  -3   2   12.36    6.14
 -11  -3   2    6.58    6.59
  11   3   2   15.77    7.99
  11   2  -2    6.30    4.26
  11   2  -2    2.11    6.89
 -11  -2  -2    2.55    3.46
  11   2   2    0.39    6.04
  11   2   2    0.49    4.71
 -11  -2   2   -0.74    3.14
  11   1  -2   12.61    7.40
  11   1  -2   -1.60    4.21
 -11  -1  -2    5.59    3.52
  11   1   2   -0.42    6.84
  11   1   2    3.58    4.41
 -11  -1   2    2.24    3.98
 -11  -1   2    1.12    3.62
 -11   0  -2   -3.64    3.76
  11   0  -2    3.95    4.14
  11   0  -2    5.24    7.33
  11   0   2   -0.43    4.65
 -11   0   2   -4.33    3.80
  11   0   2   -6.63    6.76
 -11   0   2    1.71    3.46
 -11   1  -2   -1.82    3.78
 -11   1  -2    6.72    3.92
  11  -1  -2   -3.56    7.16
  11  -1  -2    4.19    4.50
  11  -1   2    3.04    4.73
 -11   1   2    1.83    3.63
 -11   1   2    1.31    4.10
  11  -1   2    7.72    7.44
 -11   2  -2    2.73    4.21
  11  -2  -2    0.55    8.36
  11  -2  -2    5.27    4.72
  11  -2   2   -0.43    4.71
 -11   2   2    0.66    3.99
  11  -3  -2   14.71   10.12
  11  -3  -2   12.17    7.44
 -11   3   2   10.85    6.93
  11  -3   2   16.33    7.30
  11  -4  -2    3.51    5.20
 -11   4  -2    3.68    4.20
  11  -4  -2  -12.87    8.08
  11  -4   2   -4.14    8.08
 -11   4   2    3.18    4.01
  11  -4   2    0.46    4.85
 -11   5  -2   24.26    9.68
  11  -5   2   38.43   10.20
  11  -5   2  -11.58   14.75
 -11   6  -2    6.99    4.82
  11  -6   2    0.50    5.80
  12   6  -2   -1.96    8.03
  12   5  -2    5.78    5.68
  12   5  -2    8.28    7.34
 -12  -5  -2    0.52    3.77
 -12  -5   2    1.94    3.52
  12   5   2   -5.92    6.61
 -12  -4  -2   -1.51    3.87
  12   4  -2    7.26    5.91
  12   4  -2   10.20    8.07
  12   4   2    4.76    6.87
  12   4   2    7.14    6.21
 -12  -4   2    2.78    4.14
  12   3  -2   -3.35    8.42
 -12  -3  -2    2.92    4.02
  12   3  -2    6.23    5.41
  12   3   2    4.91    7.33
 -12  -3   2   -0.89    3.86
  12   3   2    4.03    5.42
  12   2  -2   10.40    7.38
  12   2  -2   23.18   10.27
 -12  -2  -2   10.46    6.62
  12   2   2   14.74    9.28
  12   2   2   12.54    7.92
 -12  -2   2    0.42    6.06
 -12  -1  -2    2.70    4.28
  12   1  -2    0.90    5.21
  12   1  -2  -24.57    9.10
 -12  -1   2    6.34    4.68
  12   1   2    4.01    5.26
 -12  -1   2    5.09    4.09
  12   1   2  -16.82    8.67
 -12   0  -2    4.77    4.88
  12   0  -2   -0.46    5.14
 -12   0  -2    7.30    4.40
  12   0  -2   -4.30    8.77
 -12   0   2    3.56    4.20
  12   0   2    4.77    5.43
 -12   0   2   -2.64    4.66
  12   0   2  -14.45    9.13
 -12   1  -2  -16.49    4.74
  12  -1  -2   -5.68    9.31
 -12   1  -2   -6.13    4.74
  12  -1  -2    0.47    5.19
  12  -1   2  -19.01   10.91
  12  -1   2   -3.41    6.46
 -12   1   2   -0.69    4.41
 -12   1   2    1.46    4.60
  12  -2  -2    6.06   10.68
  12  -2  -2    6.31    7.11
 -12   2  -2   14.20    6.88
 -12   2  -2    7.94    6.89
 -12   2   2   -1.48    6.61
 -12   2   2    6.41    6.92
  12  -2   2   31.28    7.92
  12  -3  -2    6.43    8.50
 -12   3  -2    4.86    5.54
  12  -3  -2    4.14    5.54
  12  -3   2    0.50    5.39
 -12   3   2    0.80    4.64
  12  -4  -2    7.05    6.29
  12  -4  -2   13.22    9.24
 -12   4  -2   -1.63    5.63
  12  -4   2    4.04    6.02
 -12   4   2   12.18    5.02
  12  -5  -2    4.61    6.13
 -12   5  -2    0.89    4.68
  12  -5   2    1.39    8.77
 -12   5   2    1.86    4.68
  12  -5   2    5.76    5.77
  12  -6   2   -6.98    5.71
  13   6  -2   19.71   12.22
  13   5  -2    9.25    8.57
  13   5  -2    3.45    5.88
 -13  -5  -2   -1.72    4.06
 -13  -5   2   -0.53    3.78
  13   4  -2  -11.56    9.54
 -13  -4  -2    8.87    4.46
  13   4  -2   -0.61    6.65
 -13  -4   2   -1.03    4.90
  13   4   2    4.20    7.41
  13   3  -2  -16.34    9.71
 -13  -3  -2    6.49    4.84
  13   3  -2   10.34    6.06
 -13  -3   2   -2.00    4.61
  13   3   2    9.06    8.32
  13   3   2    3.77    6.18
  13   2  -2    6.04    9.17
  13   2  -2   -5.29    5.26
 -13  -2  -2   11.17    4.72
 -13  -2   2    4.73    4.38
  13   2   2    8.49    8.80
  13   2   2   -0.60    5.96
 -13  -1  -2   -1.01    4.82
  13   1  -2    1.01    5.64
  13   1  -2   12.18    9.59
 -13  -1   2    0.72    4.84
  13   1   2   -3.36    5.90
 -13  -1   2    1.44    4.55
  13   1   2    9.23    8.85
  13   0  -2    2.09    5.63
 -13   0  -2    3.83    5.05
  13   0  -2  -10.85    8.95
 -13   0  -2   -8.21    4.86
 -13   0   2   -1.49    5.07
 -13   0   2   -3.49    4.73
  13   0   2    1.06    5.76
  13   0   2    9.88    9.50
 -13   1  -2    1.55    5.30
  13  -1  -2    0.63    9.60
  13  -1  -2    7.82    5.58
 -13   1  -2   -4.75    4.72
  13  -1   2    6.09    9.72
 -13   1   2   15.65    5.48
 -13   1   2    0.77    4.73
  13  -1   2   -2.18    5.66
 -13   2  -2    1.12    5.14
 -13   2  -2    7.32    4.83
  13  -2  -2   -1.65    5.99
  13  -2  -2   10.03    9.72
  13  -2   2   24.40    9.75
  13  -2   2    0.53    5.74
 -13   2   2  -19.72    5.28
 -13   2   2   -1.77    5.56
  13  -3  -2    5.66    6.64
  13  -3  -2   20.38    9.49
 -13   3  -2   -0.60    6.51
  13  -3   2    0.55    6.60
 -13   3   2   15.87    5.47
 -13   6  -2    1.03    7.51
  13  -6   2   26.18    8.15
  13  -6   2    1.62   12.17
  14   7  -2    9.84   11.92
 -14  -5  -2   13.81    6.47
  14   5   2   15.32    9.92
  14   4   2    6.91    9.53
  14   3  -2    1.90    6.22
 -14  -3   2    2.79    4.96
  14   3   2    1.13    8.50
  14   2  -2   -0.59    6.26
 -14  -2   2  -13.83    5.26
  14   1  -2   -2.37    6.05
 -14  -1   2    2.71    5.10
 -14   1  -2    0.89    5.26
 -14   2  -2    1.83    5.51
  14  -2   2   -3.56   10.52
  14  -3  -2   -7.68   11.44
 -14   3  -2   11.20    6.00
 -14   3   2   -5.84    6.09
  14  -3   2    2.22   10.68
  14  -3   2    9.09    6.22
  14  -4  -2    5.85    7.19
 -14   4  -2   -0.69    6.58
  14  -4  -2   -0.82   10.32
 -14   4   2   -7.31    5.13
  14  -4   2   14.25    6.82
  14  -5  -2    2.04    7.98
 -14   5  -2  -18.25    6.75
  14  -5   2    0.62    6.56
 -14   5   2   -1.10    5.45
 -14   6  -2    1.13    5.39
  14  -6   2   11.34   11.28
  14  -6   2   -8.28    6.82
  15   7  -2    6.92   13.37
  15   6  -2   -7.24   11.24
 -15  -6   2   -0.66    5.04
  15   5  -2   -6.42    6.99
  15   5  -2   10.36   11.45
 -15  -5  -2   -3.44    4.78
  15   5   2    8.67   10.92
 -15  -5   2   -2.57    4.75
  15   5   2    2.62    7.41
  15   4  -2   -5.64   13.32
 -15  -4  -2    3.36    5.37
  15   4  -2   -1.45    7.50
  15   4   2   10.70    7.98
  15   4   2   10.33   11.08
 -15  -4   2   -2.51    5.82
 -15  -3  -2    4.65    5.47
  15   3  -2   -6.29   11.91
  15   3  -2   -4.22    6.91
  15   3   2  -24.11   11.57
 -15  -3   2   -2.49    5.21
  15   3   2    3.03    6.98
 -15  -2  -2   13.94    5.96
  15   2  -2   -3.31    7.33
  15   2  -2  -10.12   12.45
 -15  -2   2   -2.72    6.24
 -15  -2   2    7.48    5.70
  15   2   2   -0.74    7.40
  15   2   2    2.70   11.61
 -15  -1  -2   -6.74    6.67
  15   1  -2   -3.31    7.59
  15   1  -2  -13.98   13.37
 -15  -1  -2    5.32    6.31
 -15  -1   2   -3.62    6.47
  15   1   2   -4.17    7.63
 -15  -1   2   -7.94    5.94
  15   1   2   -9.22   12.75
 -15   0  -2   -0.96    6.86
  15   0  -2    1.95    7.25
  15   0  -2    6.83   13.56
 -15   0  -2   -1.95    6.38
 -15   0   2  -18.77    6.33
  15   0   2    1.38    8.27
 -15   0   2    2.55    6.07
  15   0   2   34.42   13.77
  15  -1  -2  -10.88   13.06
 -15   1  -2    1.34    6.33
  15  -1  -2  -10.10    7.71
 -15   1  -2   -1.99    7.01
  15  -1   2    4.59   13.82
  15  -1   2   -7.39    8.07
 -15   1   2   -0.96    5.75
 -15   1   2    2.01    6.28
  15  -2  -2    8.05    7.86
 -15   2  -2    8.27    6.72
 -15   2  -2    2.04    6.82
  15  -2  -2  -17.04   11.63
  15  -2   2  -18.88   12.34
 -15   2   2    3.62    6.68
 -15   2   2   -3.05    6.08
  15  -2   2  -16.43    7.60
  15  -3  -2   13.45   12.12
 -15   3  -2   19.45    7.43
 -15   3  -2    1.07    7.33
  15  -3  -2    4.19    8.36
 -15   3   2    5.38    6.55
  15  -3   2   21.40   13.00
  15  -3   2    0.67    7.52
 -15   3   2   10.02    7.82
  15  -4  -2    6.38    7.99
 -15   4  -2   21.16    8.49
  15  -4  -2   21.34   12.44
 -15   4   2    1.15    6.67
  15  -4   2    6.80    8.12
 -15   5  -2    5.47    7.75
  15  -5  -2    2.22    8.45
 -15   5   2   -4.82    5.74
  15  -5   2    6.08    7.14
 -15   6  -2    3.72    5.95
  15  -6   2    3.78   11.83
  15  -6   2    2.77    7.91
  16   7  -2   18.07   17.08
  16   6  -2   -2.44   13.13
 -16  -6   2    5.79    5.32
  16   5  -2   -2.61    7.22
  16   5  -2    1.64   14.13
 -16  -5  -2    9.78    5.39
  16   5   2   -8.96   12.90
  16   5   2   -0.94    8.63
 -16  -5   2   -5.64    5.10
  16   4  -2    8.78    7.82
 -16  -4  -2   -1.48    5.32
  16   4  -2   11.15   13.12
  16   4   2  -15.24   12.60
 -16  -4   2    2.09    6.15
  16   4   2   -1.79    8.03
  16   3  -2    5.69   13.60
 -16  -3  -2    2.95    6.54
  16   3  -2    2.34    7.39
  16   3   2   -3.32    8.15
 -16  -3   2    5.18    7.33
 -16  -3   2  -11.14    6.41
  16   3   2   27.12   12.72
  16   2  -2    1.63   13.81
  16   2  -2    1.48    7.99
 -16  -2  -2    5.93    6.06
 -16  -2   2    6.10    7.23
 -16  -2   2   11.23    6.48
  16   2   2   -6.53    7.76
  16   2   2   -4.55   12.43
 -16  -1  -2   -1.49    6.12
  16   1  -2   -4.44    8.27
  16   1  -2    4.12   13.37
 -16  -1  -2   -4.30    6.93
 -16  -1   2  -11.41    7.74
  16   1   2    3.10    8.07
 -16  -1   2    3.44    6.22
  16   1   2  -18.26   13.54
  16   0  -2   27.82   13.23
 -16   0  -2    5.10    6.55
 -16   0  -2   -1.08    7.78
  16   0  -2  -12.30    8.52
 -16   0   2    6.31    7.33
  16   0   2    9.81   13.11
  16   0   2   -4.61    8.04
 -16   0   2    0.71    6.95
  16  -1  -2    0.75    8.66
  16  -1  -2   10.33   12.94
 -16   1  -2    4.45    8.10
 -16   1  -2   12.70    7.44
 -16   1   2    5.21    7.30
  16  -1   2   37.36   14.47
 -16   1   2    7.63    7.17
  16  -1   2   -0.74    8.54
  16  -2  -2    1.49    8.21
 -16   2  -2    4.56    7.00
 -16   2  -2   14.50    7.27
  16  -2  -2  -20.55   13.90
  16  -2   2   -3.79    8.26
 -16   2   2   -6.80    6.67
 -16   2   2    5.55    7.87
  16  -2   2   -6.96   13.21
 -16   3  -2    2.38    7.20
  16  -3  -2   11.04   13.26
 -16   3  -2    3.98    7.76
  16  -3  -2   -5.38    8.45
 -16   3   2    8.48    8.09
  16  -3   2    0.77    8.58
  16  -3   2    0.91   13.43
 -16   3   2   -1.19    7.06
 -16   4  -2   18.30    8.26
  16  -4  -2    4.75    8.96
  16  -4  -2    0.97   12.74
  16  -4   2   10.28   13.59
 -16   4   2   -3.78    6.13
 -16   4   2    0.89    9.37
  16  -4   2   -0.75    8.13
  16  -5  -2   -3.21    9.07
 -16   5  -2    2.57    8.34
 -16   5   2    1.32    6.51
  16  -5   2    0.76    8.18
 -16   6  -2   -5.27    8.20
 -16   6  -2   -2.73    6.21
  16  -6   2    4.51    8.11
  17   7  -2    8.67   16.31
  17   6  -2  -24.93   17.12
 -17  -6   2   -4.74    6.49
  17   5  -2    7.58    8.84
 -17  -5  -2   -6.60    5.96
  17   5  -2    2.76   15.67
  17   5   2  -13.40   14.65
 -17  -5   2    6.98    5.82
  17   5   2   -5.10    8.53
  17   4  -2  -10.98   10.15
  17   4  -2   -8.99   16.54
 -17  -4  -2   -4.09    5.69
 -17  -4   2    2.31    5.85
  17   4   2   -6.86   14.71
  17   4   2   -3.92    9.44
 -17  -3  -2   10.64   12.02
  17   3  -2   26.79   14.39
  17   3  -2   86.80   20.94
  17   3   2   27.45   14.19
  17   3   2   33.91   18.14
 -17  -3   2   -3.47   13.21
 -17  -3   2   38.08   12.94
 -17  -2  -2  -10.74    7.71
 -17  -2  -2   -1.21    8.71
  17   2  -2  -54.01   18.76
  17   2  -2  -13.82   11.14
  17   2   2  -48.28   16.50
 -17  -2   2   -3.42    9.45
  17   2   2   -1.81    9.38
 -17  -2   2  -28.39    8.81
 -17  -1  -2   -0.84    7.40
 -17  -1  -2   -8.39    9.00
  17   1  -2  -13.26    9.67
  17   1  -2  -13.02   16.62
  17   1   2   -8.61    9.94
 -17  -1   2  -11.64    8.11
  17   1   2  -31.18   14.96
 -17  -1   2   -3.48    8.63
  17   0  -2   -5.92   10.14
  17   0  -2   -9.36   14.21
 -17   0  -2    2.45    8.05
 -17   0  -2   -2.46    9.33
  17   0   2  -12.00   10.41
 -17   0   2  -15.22    8.59
 -17   0   2  -10.60    8.64
  17   0   2   -6.38   15.15
  17  -1  -2   13.37    9.56
 -17   1  -2    3.34    8.25
 -17   1  -2   -9.97    9.59
  17  -1  -2   -8.56   14.64
  17  -1   2    1.88   15.75
  17  -1   2  -12.94    9.71
 -17   1   2   -3.31    8.46
 -17   1   2  -20.69    7.76
  17  -2  -2   -3.43   10.01
  17  -2  -2  -16.71   15.12
 -17   2  -2   -0.85    8.63
 -17   2  -2   -1.27    8.86
 -17   2   2  -10.09    8.01
  17  -2   2   -5.03    9.47
  17  -2   2    6.73   16.43
 -17   2   2    6.15    8.77
 -17   3  -2    1.33   11.03
 -17   3  -2   16.69   11.21
  17  -3  -2   34.30   17.80
  17  -3  -2   -0.85   11.44
 -17   3   2    9.26   11.77
  17  -3   2    0.85   11.39
  17  -3   2   58.85   18.10
 -17   3   2    4.00   10.60
  17  -4  -2   -1.06   15.41
 -17   4  -2    4.53    8.97
  17  -4  -2  -17.43   10.16
 -17   4  -2    1.38    8.60
  17  -4   2    7.38    9.27
 -17   4   2   -9.81   11.17
  17  -4   2  -25.60   15.77
 -17   4   2    2.77    7.13
  17  -5  -2   -8.75    9.98
 -17   5  -2   17.86    9.08
  17  -5   2   17.43    9.42
 -17   5   2  -12.29   12.51
 -17   5   2    2.89    7.11
 -17   6  -2   13.48   10.02
  17  -6   2   10.09    9.88
  18   7  -2    7.94   19.32
  18   6  -2   -2.16   18.47
 -18  -6   2    0.86    5.86
  18   5  -2    2.07    9.10
 -18  -5  -2    8.17    6.62
  18   5  -2    1.04   16.99
  18   5   2    7.91   17.05
 -18  -5   2  -15.38    6.96
  18   4  -2    3.13   17.37
 -18  -4  -2   -1.81    6.41
  18   4  -2    7.06    9.61
 -18  -4   2   -3.42    6.79
  18   4   2  -44.34   16.73
 -18  -4   2   -5.32    8.95
  18   4   2    3.22    9.58
 -18  -3  -2   -9.58   10.16
  18   3  -2   19.60   17.56
 -18  -3  -2   -1.82    6.87
  18   3  -2   -0.96   10.00
  18   3   2   32.41   16.91
 -18  -3   2    9.54    7.88
  18   3   2   -2.11   10.94
 -18  -3   2    3.88    9.42
 -18  -2  -2   12.10   10.20
 -18  -2  -2   -3.69    8.89
  18   2  -2   14.44   10.69
  18   2  -2   13.34   16.79
 -18  -2   2    6.52    9.56
  18   2   2   19.70   17.37
  18   2   2    8.01   10.42
 -18  -2   2   12.41    8.70
 -18  -1  -2   12.03    9.26
  18   1  -2  -10.22    9.19
 -18  -1  -2    9.38    8.25
  18   1  -2   -1.04   16.66
  18   1   2    3.99   16.64
  18   1   2    7.00   10.06
 -18  -1   2    4.53    8.23
 -18  -1   2   -2.60    8.18
  18   0  -2   15.59   17.14
  18   0  -2   -1.88   10.86
 -18   0  -2   13.35    9.75
 -18   0  -2    2.75   10.66
  18   0   2   57.36   18.33
  18   0   2   14.34   11.34
 -18   0   2   -1.32   10.24
 -18   0   2   22.52   10.20
 -18   1  -2  -18.15    9.33
  18  -1  -2   10.63   16.49
  18  -1  -2   19.44   10.21
 -18   1  -2   11.21    9.08
 -18   1   2    3.76    9.91
 -18   1   2   -1.36    8.92
  18  -1   2   14.54   15.70
  18  -1   2   10.52   10.55
 -18   2  -2   19.17    9.28
 -18   2  -2   -4.32    9.11
  18  -2  -2    0.95   11.09
  18  -2  -2   -7.57   16.63
 -18   2   2    4.21    9.61
  18  -2   2   18.47   10.62
  18  -2   2    1.06   16.23
 -18   2   2   10.70    9.48
  18  -3  -2    3.32   15.65
  18  -3  -2   -1.87    9.84
 -18   3  -2   16.29    9.74
 -18   3  -2    0.97    9.74
 -18   3   2   14.33    9.96
 -18   3   2   -4.43    8.34
  18  -3   2  -10.98   16.73
  18  -3   2    0.94   10.65
 -18   4  -2  -32.29   10.24
  18  -4  -2   -1.15   15.31
 -18   4  -2   17.00   10.11
  18  -4  -2   -7.66    9.84
 -18   4   2   -1.53    8.30
 -18   4   2    3.24   10.63
  18  -4   2   -2.82   10.62
  18  -4   2  -19.11   18.11
  18  -5  -2   -5.90    9.71
 -18   5  -2   -1.02   10.02
 -18   5   2   -1.59    8.01
  18  -5   2   10.55   15.24
 -18   5   2   -7.87   10.89
  18  -5   2    3.64   10.55
 -18   6  -2   -2.11   10.53
  18  -6   2    1.84   10.26
  19   7  -2  -16.58   22.89
  19   6  -2  -17.04   19.88
 -19  -6   2   -0.95    7.66
  19   5  -2    1.14    9.71
  19   5  -2  -23.37   19.38
 -19  -5  -2    2.00    7.33
 -19  -5   2   -0.94    7.22
 -19  -5   2   -7.71   11.97
  19   5   2    7.78   18.67
 -19  -4  -2   -4.01    7.51
  19   4  -2   -2.23   11.80
  19   4  -2   30.60   20.95
 -19  -4   2    1.49    9.88
  19   4   2   17.40   19.48
 -19  -4   2  -16.16    8.62
  19   4   2  -44.93   13.01
 -19  -3  -2    6.09   11.13
 -19  -3  -2    1.01    9.38
  19   3  -2   12.79   11.92
  19   3   2  -37.61   19.98
 -19  -3   2    5.82    8.55
 -19  -3   2   26.06   11.26
  19   3   2    2.33   12.83
 -19  -2  -2  -24.03   12.17
 -19  -2  -2  -15.47   11.10
  19   2  -2   -9.67   12.92
  19   2  -2   26.70   20.20
 -19  -2   2  -12.94   10.75
  19   2   2  -14.44   12.95
 -19  -2   2  -10.21   12.30
  19   2   2  -43.16   20.96
 -19  -1  -2    7.37    9.69
  19   1  -2   -6.25   10.74
  19   1  -2   11.52   18.03
 -19  -1  -2   -1.53   10.68
  19   1   2   -8.92   19.01
 -19  -1   2  -10.23    9.57
  19   1   2  -32.25   11.44
 -19  -1   2    4.09    9.23
  19   0  -2  -38.11   18.55
 -19   0  -2  -38.43   11.78
  19   0  -2   14.72   11.05
 -19   0  -2   -1.07    9.69
  19   0   2   -3.41   19.55
 -19   0   2  -13.18    9.57
  19   0   2  -10.66   11.06
 -19   0   2    8.94   10.25
  19  -1  -2   24.71   17.76
 -19   1  -2   17.15   10.14
  19  -1  -2    9.22   10.86
 -19   1  -2  -25.17   10.11
  19  -1   2  -10.35   17.56
 -19   1   2   -1.52    9.27
  19  -1   2  -13.82   11.76
 -19   1   2   -9.46   10.41
  19  -2  -2    7.15   19.31
 -19   2  -2   -8.04   12.51
 -19   2  -2    7.48   11.12
  19  -2  -2  -22.24   13.07
 -19   2   2  -46.92   11.59
 -19   2   2    1.08   11.60
  19  -2   2  -42.63   20.30
  19  -2   2  -10.72   13.47
 -19   3  -2   -2.15   11.10
 -19   3  -2   11.59   11.47
  19  -3  -2   12.95   12.91
 -19   3   2   16.38   10.56
 -19   3   2    9.05   11.44
  19  -3   2    1.04   12.37
 -19   4  -2   -2.21   11.03
 -19   4  -2    8.67   10.13
  19  -4  -2  -11.62   12.49
 -19   4   2   -1.69    8.32
 -19   4   2    1.18   11.96
  19  -4   2   -9.38   12.29
  19  -4   2   51.89   21.04
  19  -5  -2    1.08   11.43
 -19   5  -2  -13.55   11.27
 -19   5  -2  -10.71    8.66
 -19   5   2   -7.00    9.25
  19  -5   2   18.06   11.62
  19  -5   2   33.41   18.58
 -19   5   2   -7.41   12.20
 -19   6  -2   15.10   12.44
  19  -6   2   -1.01   11.62
  20   6  -2   23.30   23.38
 -20  -6   2   -5.39   12.52
  20   5  -2  -38.17   22.99
 -20  -5  -2   -1.11    8.89
  20   5  -2    1.25   11.25
 -20  -5   2    6.26    8.03
  20   5   2   21.33   21.63
 -20  -5   2  -18.90   11.39
 -20  -4  -2  -12.25    8.00
 -20  -4  -2  -15.69   12.80
  20   4  -2   13.61   11.80
  20   4  -2    2.66   22.14
  20   4   2  -13.08   11.36
 -20  -4   2   16.60   11.71
 -20  -4   2    4.24    8.55
  20   4   2  -13.90   20.49
 -20  -3  -2   -7.91    8.51
  20   3  -2   -3.57   12.98
  20   3  -2  -13.03   20.64
 -20  -3  -2   -1.70   11.60
 -20  -3   2    3.25    9.10
 -20  -3   2   18.24   11.70
  20   3   2    1.29   11.90
  20   3   2   -8.71   22.07
 -20  -2  -2   -3.35   12.41
  20   2  -2  -35.03   21.28
 -20  -2  -2   -5.77    9.58
  20   2  -2    2.40   12.63
  20   2   2   14.91   20.66
  20   2   2   -3.70   13.06
 -20  -2   2    1.12   10.45
 -20  -2   2    1.64   10.72
 -20  -1  -2   11.95   11.59
  20   1  -2  -29.50   20.67
 -20  -1  -2    5.90   10.65
  20   1  -2    4.67   12.42
 -20  -1   2   -1.15   10.33
  20   1   2    2.48   12.84
 -20  -1   2   13.10   10.58
  20   1   2   15.09   20.94
  20   0  -2   11.81   12.10
  20   0  -2   33.34   20.09
 -20   0  -2   12.05   11.60
 -20   0  -2   12.04   10.98
  20   0   2   -8.33   11.94
 -20   0   2   -3.43   10.64
 -20   0   2  -10.01   10.78
  20   0   2  -41.64   19.77
  20  -1  -2  -14.33   19.85
 -20   1  -2    7.07   10.88
  20  -1  -2  -15.60   12.19
 -20   1  -2    6.96   11.70
  20  -1   2   -8.32   11.68
 -20   1   2  -27.21   11.57
 -20   1   2    1.18   10.40
  20  -1   2   -1.28   20.06
 -20   2  -2    3.60   12.19
  20  -2  -2   -1.31   19.83
  20  -2  -2   14.08   13.04
 -20   2  -2    2.39   12.17
  20  -2   2   45.77   21.33
  20  -2   2   15.45   13.67
 -20   2   2   26.20   12.09
 -20   2   2    3.68   12.65
  20  -3  -2  -29.76   18.70
  20  -3  -2   19.22   13.35
 -20   3  -2   20.38   11.68
 -20   3  -2   -3.65   11.26
  20  -3   2   -7.99   13.44
  20  -3   2   -5.32   21.45
 -20   3   2    7.52   13.17
 -20   3   2   14.55   10.94
 -20   4  -2   19.32   11.30
  20  -4  -2   13.89   18.92
  20  -4  -2   -6.09   13.16
 -20   4  -2    8.54   11.83
 -20   4   2  -14.36   14.53
 -20   4   2    3.74    9.88
  20  -4   2   -6.80   19.05
  20  -4   2    9.23   12.79
 -20   5  -2  -19.94   13.68
  20  -5  -2   -1.19   12.76
 -20   5   2    1.93    8.03
 -20   5   2   -6.75   14.37
  20  -5   2   11.55   13.56
  21   5  -2  -21.58   21.68
  21   5  -2   -4.15   12.50
 -21  -5   2    9.26    9.22
  21   4  -2   -5.50   12.14
 -21  -4   2    7.08    9.30
  21   3  -2    1.33   13.13
  21   3  -2   29.55   24.88
 -21  -3   2    4.86    9.80
  21   2  -2    2.69   14.04
  21   2  -2   18.81   24.05
 -21  -2   2   -5.53   10.58
 -21  -2   2    2.51   12.00
  21   1  -2  -18.61   23.86
  21   1  -2   17.79   14.20
 -21  -1   2    3.67    9.27
 -21  -1   2   -7.79   12.18
  21   0  -2    9.29   14.37
 -21   0   2    2.68   12.27
  21  -1  -2   -5.36   13.98
 -21   1   2    1.33   11.98
   0   0  -3   -0.16    0.50
   0   0  -3    0.39    0.43
   0   0   3   -0.07    0.28
  -1   0  -3   -0.05    8.56
   1   0   3   30.13   10.81
   1   1  -3    0.06    0.53
   2   1  -3   27.23   16.82
   2   1  -3   39.89   15.24
   2   1  -3   32.92   15.57
  -1   2  -3   29.24   13.84
   2   1  -3   37.82   13.33
  -2  -1   3   37.30   13.55
  -2  -1   3   26.17   16.01
   1  -2   3   29.84   13.99
   0   2  -3   -0.09    0.51
   2   0  -3   -0.36    0.58
   2   0  -3   -0.31    0.79
  -2   0  -3   -0.08    0.41
   2   0  -3    0.09    0.93
   0  -2   3    0.09    0.48
  -2   0   3   -0.71    0.79
   2   0   3   -0.10    0.64
   2   0   3    0.13    0.56
  -2   0   3   -0.10    0.42
   1   2  -3   26.51   15.84
  -2   1  -3   29.52   13.47
   2  -1   3   35.78   14.71
   2  -1   3   31.81   16.31
   2   2  -3    0.11    0.56
  -2   2  -3    0.59    0.63
   2   2  -3    0.77    0.83
   2   2  -3    0.10    0.75
   2  -2   3    0.27    1.44
  -2  -2   3    0.55    0.66
   2  -2   3    0.20    0.75
   3   2  -3    1.86    1.78
   3   2  -3    3.46    1.91
   3   2  -3    3.23    1.83
   3   2  -3    3.67    1.60
  -3  -2   3    4.30    1.53
  -3  -2   3    2.29    1.45
  -3  -1  -3    5.01    9.33
   3   1  -3   29.89    8.73
   3   1  -3   24.29    9.79
   3   1  -3   20.06   11.01
   3   1  -3   25.72   10.14
   3   1   3   20.45   11.69
   3   1   3   13.89   11.01
  -3  -1   3   25.63    8.83
  -3  -1   3   22.16   10.49
   3   0  -3   16.69    7.59
   3   0  -3    9.37    6.21
   3   0  -3   13.78    8.49
   3   0  -3   13.83    6.68
  -3   0  -3   20.48    6.12
  -3   0   3   11.52    7.80
  -3   0   3   16.37    6.48
   3   0   3   16.56    6.99
   3   0   3   15.98    7.17
  -3   1  -3   19.36    9.66
   3  -1   3   28.95   10.38
   3  -1   3   24.43   11.40
   2   3  -3    1.50    1.76
  -3   2  -3    4.52    1.65
   3  -2   3    2.07    1.87
   3  -2   3    4.51    2.49
  -2  -3   3    6.03    1.71
   3   3  -3    1.12    1.20
   3   3  -3   -0.45    1.38
  -3   3  -3    0.25    0.92
  -3  -3   3   -0.35    1.09
   3  -3   3   -1.13    2.17
   4   3  -3    5.52    2.09
   4   3  -3    3.98    2.29
   4   3  -3    5.91    2.37
  -4  -3   3    4.68    2.04
  -4  -3   3   -0.37    1.59
  -4  -2  -3    0.16   11.47
   4   2  -3   35.14   13.88
   4   2  -3   32.61   11.50
   4   2  -3   31.40   12.69
   4   2  -3   31.52   12.87
  -4  -2   3   31.02   11.67
  -4  -2   3   30.12   11.12
   4   1  -3    8.06    3.75
   4   1  -3    4.68    3.55
   4   1  -3   10.55    3.18
   4   1  -3    6.47    4.18
  -4  -1  -3    4.29    3.40
  -4  -1   3    7.93    3.95
  -4  -1   3   10.22    3.22
   4   1   3    6.60    4.21
   4   0  -3    0.77    1.39
   4   0  -3    0.29    0.84
   4   0  -3   -0.33    1.91
   4   0  -3    0.78    1.14
  -4   0  -3   -0.13    0.92
  -4   0   3   -0.18    1.00
   4   0   3   -0.45    1.10
   4   0   3    0.37    1.31
  -4   0   3    0.36    1.42
   4  -1  -3    4.77    3.80
  -4   1  -3    8.75    3.27
   4  -1  -3    8.58    4.90
  -4   1   3    6.65    3.50
   4  -1   3    8.86    3.59
   4  -1   3    4.89    4.15
  -4   2  -3   35.36   12.16
   4  -2   3   31.13   13.17
   4  -2   3   28.76   14.77
  -4   3  -3    2.87    1.88
   4  -3   3    3.48    2.25
   4  -3   3    2.00    3.19
  -3  -4   3    4.38    2.14
   5   4  -3    2.77    2.59
   5   3  -3   28.68   19.42
   5   3  -3   34.17   16.85
   5   3  -3   49.95   15.59
   5   3  -3   50.82   17.02
  -5  -3   3   58.47   15.43
  -5  -3   3    9.00   15.99
   5   2  -3  158.03   69.74
   5   2  -3  144.14   71.53
   5   2  -3  151.23   63.50
   5   2  -3  132.58   73.03
  -5  -2   3  147.73   63.00
   5   1  -3    9.21    7.92
   5   1  -3   20.03    7.54
  -5  -1  -3   13.49    7.22
   5   1  -3   16.44    8.70
   5   1  -3   20.26    6.79
   5   1   3   15.79    8.44
  -5  -1   3   19.00    6.89
  -5  -1   3   20.51    8.37
   5   0  -3    0.87    1.97
   5   0  -3    0.96    1.74
   5   0  -3    1.81    2.87
   5   0  -3    1.24    1.22
  -5   0  -3    0.16    1.39
  -5   0   3    1.66    2.12
   5   0   3   -0.19    1.83
   5   0   3    0.16    1.82
  -5   0   3    1.61    1.32
   5  -1  -3   10.28    7.36
   5  -1  -3   15.21    9.75
   5  -1  -3   17.81    7.33
  -5   1  -3   19.58    6.72
  -5   1   3   14.63    7.25
  -5   1   3    5.43    9.60
   5  -1   3   21.63    7.32
   5  -2   3  169.16   71.71
  -5   4  -3    4.03    1.98
   5  -4   3    0.70    4.24
   6   4  -3   12.32    6.44
   6   4  -3   22.69    7.37
  -6  -4   3   11.37    6.48
  -6  -3  -3   -0.49    1.43
   6   3   3    4.42    2.46
   6   2  -3    0.97    2.23
   6   2  -3    1.45    2.13
   6   2  -3    1.42    1.68
  -6  -2  -3   -0.23    1.67
   6   2   3    2.23    2.50
  -6  -2   3    1.37    1.62
   6   2   3    1.49    2.39
  -6  -2   3    1.70    1.62
   6   1  -3    5.01    2.11
  -6  -1  -3    4.78    2.34
   6   1  -3    3.03    2.65
   6   1  -3    4.19    2.88
  -6  -1   3    5.54    2.33
  -6  -1   3    4.72    3.01
   6   1   3    2.80    2.87
   6   0  -3    0.76    1.24
   6   0  -3    0.16    2.16
  -6   0   3   -0.83    2.38
   6  -1  -3    5.91    2.33
   6  -1   3    1.49    2.39
   6  -1   3    1.57    3.73
  -6   1   3    0.15    3.33
  -6   2  -3    2.48    1.96
   6  -2  -3   -0.34    3.71
   6  -2  -3    5.83    2.25
  -6   2   3    1.16    1.97
   6  -2   3    2.04    2.38
   6  -2   3   -0.80    3.56
  -6   3  -3    3.31    2.26
   6  -3   3    2.49    2.67
   6  -3   3    2.19    4.05
  -6   4  -3   10.67    5.29
   6  -4   3    7.89    7.64
   6  -4   3    9.67    5.74
   7   5  -3    1.97    4.07
   7   5  -3   -0.77    3.26
   7   4  -3    2.91    3.32
   7   4  -3    2.94    3.41
   7   4  -3    1.06    2.56
   7   4  -3    6.33    3.23
  -7  -4   3   -1.23    2.22
  -7  -4   3    2.37    2.77
  -7  -3  -3    0.28    6.11
   7   3  -3   20.83    7.27
   7   3  -3   19.88    7.67
   7   3   3   16.57    8.08
   7   3   3   13.05    7.07
  -7  -3   3    8.10    6.28
  -7  -3   3   16.07    6.40
   7   2  -3    6.79    2.72
  -7  -2  -3    1.08    2.19
   7   2  -3    1.29    3.55
   7   2  -3    0.44    2.54
  -7  -2   3    5.49    2.98
   7   2   3    0.85    2.98
  -7  -2   3    3.65    2.03
   7   2   3    2.72    3.13
   7   1  -3    4.59    3.66
   7   1  -3    1.36    2.45
   7   1  -3   -0.21    2.37
   7   1  -3    2.73    1.63
  -7  -1  -3    0.25    2.07
   7   1   3    1.53    1.70
  -7  -1   3   -1.49    2.75
  -7  -1   3    1.72    1.69
   7   1   3    2.89    2.62
  -7  -1   3    3.44    1.84
  -7   0  -3   22.49   12.01
  -7   0  -3   23.50    9.64
   7   0  -3   23.93   10.23
   7   0  -3   23.43   12.77
   7   0  -3   18.82   12.56
   7   0  -3   27.90    9.14
  -7   0   3   22.77   13.46
   7   0   3   23.81   10.65
  -7   0   3   26.74   10.04
   7   0   3   19.97   10.85
   7  -1  -3    1.10    1.73
   7  -1  -3    0.78    2.44
  -7   1  -3    0.25    2.02
   7  -1  -3   -0.33    4.08
   7  -1   3    2.50    2.48
   7  -1   3    0.80    3.68
  -7   1   3    0.76    2.05
  -7   1   3   -0.98    2.92
  -7   2  -3    1.46    2.38
   7  -2  -3    2.68    3.08
   7  -2  -3    2.99    4.56
   7  -2  -3    4.53    3.21
  -7   2   3    5.30    2.55
   7  -2   3    2.09    2.86
   7  -2   3    3.08    4.66
   7  -3  -3   15.58    7.59
  -7   3  -3   18.14    7.10
  -7   3   3   26.12    7.43
   7  -3   3   11.58    9.14
   7  -3   3   19.12    7.62
  -7   4  -3    2.42    2.53
   7  -4   3    2.02    5.29
   7  -4   3    1.82    2.92
  -7   5  -3   -1.13    2.62
   7  -5   3   -1.28    3.08
   8   5  -3    9.31    5.62
   8   5  -3    7.51    5.04
   8   4  -3    3.29    3.70
   8   4  -3    2.82    3.74
   8   4  -3   -1.20    3.50
   8   4  -3    4.26    2.74
  -8  -4   3    0.29    2.26
  -8  -4   3    1.91    2.88
   8   3  -3   -7.59    9.08
   8   3  -3   10.29    8.70
   8   3  -3    7.69    8.18
  -8  -3  -3    1.61    7.03
   8   3  -3   25.74    7.77
   8   3   3   30.42    8.25
   8   3   3   19.87    9.17
  -8  -3   3   29.06    7.68
  -8  -3   3   17.38    7.38
  -8  -2  -3    9.81    3.07
   8   2  -3   -1.68    3.89
   8   2  -3   -8.50    5.70
   8   2   3    5.50    4.01
   8   2   3   11.32    4.01
  -8  -2   3    4.05    3.17
   8   1  -3    0.50    2.83
  -8  -1  -3    1.67    2.15
   8   1  -3    1.05    2.90
   8   1  -3   -2.86    4.80
   8   1   3    3.27    3.04
  -8  -1   3   -0.72    2.33
   8   1   3    2.91    3.89
  -8  -1   3    3.59    2.29
   8   1   3    0.91    1.62
  -8  -1   3    1.56    3.12
  -8   0  -3    0.27    2.21
   8   0  -3    0.27    2.65
   8   0  -3   -1.99    1.51
   8   0  -3   -1.03    2.92
   8   0  -3    0.33    4.91
  -8   0  -3   -0.48    1.43
  -8   0   3   -0.39    2.26
   8   0   3    0.90    2.77
  -8   0   3    1.53    3.32
  -8   0   3   -0.54    2.54
   8   0   3   -0.60    1.15
   8  -1  -3    4.05    4.98
   8  -1  -3    1.19    2.07
   8  -1  -3    4.73    3.02
  -8   1  -3    3.42    2.60
  -8   1   3    4.26    2.55
   8  -1   3    2.31    3.31
  -8   1   3    0.18    3.18
  -8   2  -3    3.80    3.26
   8  -2  -3    5.94    3.62
   8  -2  -3    1.25    5.87
   8  -2  -3    4.97    3.79
  -8   2  -3    4.10    3.51
  -8   2   3    4.41    3.29
   8  -2   3   13.09    3.99
   8  -2   3    6.35    5.86
   8  -3  -3   19.49    9.41
   8  -3  -3   34.20   11.96
  -8   3  -3   18.71    8.91
   8  -3   3   22.42    9.42
   8  -3   3   29.45   11.46
  -8   3   3   17.17    9.25
  -8   4  -3    2.13    2.57
   8  -4   3   -2.21    5.33
   8  -4   3   -0.34    3.25
  -8   5  -3    1.84    3.35
   8  -5   3    3.91    4.05
   8  -5   3    6.07    6.84
   9   6  -3   -0.70    4.97
   9   6  -3   -6.18    6.41
   9   5  -3   43.82   11.11
   9   5  -3   22.93   10.61
  -9  -5   3    0.69    9.47
  -9  -4  -3    2.26   10.04
   9   4  -3   34.12   10.49
   9   4  -3   24.61   11.33
   9   4  -3   24.99   12.51
   9   4  -3   28.27   11.62
   9   4   3   37.67   11.35
  -9  -4   3   25.70   10.59
  -9  -4   3    2.61   10.30
   9   3  -3   11.12    4.47
   9   3  -3    5.47    4.10
  -9  -3  -3    5.43    3.89
   9   3  -3   11.47    4.99
   9   3  -3    9.92    5.76
  -9  -3   3    7.14    4.29
  -9  -3   3    7.93    3.95
   9   3   3    5.43    4.85
   9   3   3    5.76    5.26
  -9  -2  -3   -0.35    2.90
   9   2  -3   -4.45    5.08
   9   2  -3    7.18    2.73
   9   2  -3    0.64    3.31
   9   2  -3   -0.21    2.79
  -9  -2   3   -0.23    2.49
   9   2   3    2.29    4.04
  -9  -2   3    0.83    2.58
   9   2   3    4.17    4.04
   9   2   3    2.31    2.51
  -9  -1  -3   -0.64    2.51
   9   1  -3   -8.81    2.96
   9   1  -3   -0.35    5.32
  -9  -1   3   -2.51    2.38
   9   1   3    6.63    3.52
  -9  -1   3    0.84    2.83
   9   1   3    0.31    4.30
   9   0  -3    1.38    3.31
   9   0  -3   -0.31    3.12
  -9   0  -3   -0.95    3.15
   9   0  -3    3.38    5.56
  -9   0   3   -0.31    3.03
  -9   0   3    0.86    3.78
  -9   0   3   -3.56    2.74
   9   0   3    9.18    3.48
   9  -1  -3    6.61    6.12
   9  -1  -3    3.51    1.76
   9  -1  -3    1.66    3.39
  -9   1  -3   -0.33    3.05
   9  -1   3    0.66    3.47
  -9   1   3    0.97    2.88
  -9   1   3    1.32    3.34
   9  -2  -3    4.77    3.68
   9  -2  -3   -2.30    5.90
  -9   2  -3   -0.36    3.52
   9  -2  -3   10.61    2.66
  -9   2  -3    2.48    3.02
   9  -2   3  -10.82    5.84
  -9   2   3    1.09    2.98
   9  -2   3    3.11    3.53
   9  -3  -3    3.58    6.84
   9  -3  -3    1.62    4.31
  -9   3  -3    4.77    3.59
   9  -3   3    0.72    4.36
   9  -3   3    3.07    6.63
  -9   3   3    3.69    3.61
  -9   4  -3   22.43   11.10
   9  -4  -3   26.37   11.62
   9  -4   3   27.66   13.69
   9  -4   3   35.43   11.63
  -9   5  -3   26.02    9.23
   9  -5   3    7.59   11.97
   9  -5   3   29.39    9.57
   9  -6   3   -4.92    4.03
  10   6  -3    9.22    8.63
  10   6  -3   20.20    9.31
  10   5  -3   20.05    8.36
  10   5  -3   15.19    8.70
  10   5  -3   16.85    8.12
 -10  -5   3    2.71    6.56
  10   4  -3    2.38    5.70
 -10  -4  -3    2.52    3.28
  10   4  -3    9.17    4.62
  10   4  -3    5.00    4.44
  10   4  -3    4.24    3.74
  10   4   3   -1.15    4.81
  10   4   3    1.02    5.26
 -10  -4   3    1.83    3.24
 -10  -4   3    3.68    3.86
  10   3  -3    3.10    3.57
  10   3  -3   -1.02    3.90
  10   3  -3    8.00    5.76
  10   3  -3    3.29    4.81
 -10  -3  -3    3.64    3.55
 -10  -3   3    5.92    3.77
  10   3   3    7.27    5.12
 -10  -3   3    8.28    3.58
 -10  -3   3    8.09    4.63
  10   3   3    6.26    5.44
 -10  -2  -3    5.84    3.98
  10   2  -3    7.30    3.84
  10   2  -3    4.37    4.32
  10   2  -3    9.84    4.74
  10   2  -3    5.16    6.69
  10   2   3    0.33    5.43
 -10  -2   3    5.41    3.89
  10   2   3   17.52    5.33
 -10  -2   3    7.30    3.94
 -10  -2   3    4.38    4.87
  10   1  -3    8.94    4.09
 -10  -1  -3    5.42    4.48
  10   1  -3   16.04    5.12
  10   1  -3   11.52    7.68
 -10  -1   3    5.32    4.17
  10   1   3    7.73    6.61
 -10  -1   3    6.08    4.39
  10   1   3    1.24    5.37
 -10  -1   3    8.66    4.59
  10   0  -3   -1.71    6.45
 -10   0  -3    3.61    3.09
  10   0  -3    4.20    3.80
  10   0   3   -1.54    5.52
  10   0   3    5.76    4.20
 -10   0   3    0.35    3.44
 -10   0   3    0.51    3.15
 -10   1  -3   14.15    4.89
  10  -1  -3    2.78    7.94
  10  -1  -3    5.94    5.24
  10  -1   3    7.80    5.30
 -10   1   3   12.03    4.97
 -10   2  -3    5.67    4.39
  10  -2  -3   -4.91    5.33
  10  -2  -3    7.61    7.43
 -10   2  -3   11.69    4.61
 -10   2   3   10.33    4.32
  10  -2   3    6.60    4.81
 -10   3  -3    1.20    3.89
  10  -3  -3    0.56    7.40
  10  -3  -3   13.28    4.96
  10  -3   3    8.31    7.28
  10  -3   3    2.38    4.65
 -10   3   3    1.36    3.76
  10  -4  -3    8.61    5.48
 -10   4  -3    4.58    4.43
  10  -4   3   12.49    5.09
  10  -4   3    2.13    8.09
 -10   4   3    8.11    4.50
 -10   5  -3   16.76    7.12
  10  -5   3   23.19    7.50
  10  -5   3    2.92    9.64
 -10   6  -3   13.56    6.52
  10  -6   3    9.39    6.88
  11   6  -3    2.18    7.23
  11   6  -3   -0.44    6.36
  11   5  -3  -12.58    6.66
  11   5  -3   -4.09    5.44
  11   5  -3   -3.34    5.35
 -11  -5   3   -0.43    3.37
 -11  -4  -3   -3.26    3.15
  11   4  -3    4.49    4.88
  11   4  -3   -3.26    6.29
  11   4  -3   -0.77    4.09
  11   4   3    9.95    5.17
  11   4   3    6.18    5.66
 -11  -4   3    2.76    3.72
 -11  -4   3    4.09    3.38
  11   3  -3    5.45    3.92
  11   3  -3    4.35    4.10
  11   3  -3    8.24    4.91
  11   3  -3   10.00    6.92
 -11  -3  -3   -2.25    3.58
 -11  -3   3    2.02    3.91
 -11  -3   3    5.67    5.01
  11   3   3    8.97    5.96
 -11  -3   3    4.29    3.77
  11   3   3    3.41    5.65
  11   2  -3    4.53    4.26
  11   2  -3    2.98    6.75
 -11  -2  -3    5.24    3.57
 -11  -2   3    2.53    3.14
 -11  -2   3    2.54    3.38
 -11  -2   3    1.37    4.15
  11   2   3  -10.60    5.58
  11   2   3    8.64    5.08
  11   1  -3   -6.75    3.83
 -11  -1  -3   -1.64    3.44
  11   1  -3    3.64    7.30
  11   1   3   -6.01    4.33
 -11  -1   3    3.29    3.57
  11   1   3    0.40    6.13
 -11  -1   3    3.29    3.52
  11   0  -3    3.96    5.28
  11   0  -3    2.44    8.37
 -11   0  -3   15.13    4.84
  11   0   3   10.78    5.53
 -11   0   3    5.95    4.93
  11   0   3   15.34    7.82
 -11   0   3   -1.16    4.65
  11  -1  -3    5.16    7.81
  11  -1  -3   -0.42    4.76
 -11   1  -3    1.68    3.84
  11  -1   3    2.64    4.54
 -11   1   3   -0.44    4.01
 -11   1   3    0.61    3.52
  11  -2  -3   -0.90    4.97
 -11   2  -3   -0.45    4.06
  11  -2  -3    4.47    7.36
  11  -2   3    2.17    4.71
 -11   2   3   -1.35    4.09
 -11   3  -3    2.42    5.01
 -11   3  -3    6.73    4.42
  11  -3  -3    7.71    5.27
  11  -3  -3    3.01    7.52
 -11   3   3    4.48    4.30
  11  -3   3    6.51    8.00
  11  -3   3    0.45    4.94
  11  -4  -3   -0.66    8.64
 -11   4  -3    2.18    4.47
  11  -4  -3    4.15    5.67
  11  -4   3    6.41    4.95
 -11   4   3    3.23    4.08
  11  -4   3   -0.59    8.47
 -11   5  -3    5.59    8.93
  11  -5   3   23.20   12.43
  11  -5   3   45.50    9.68
 -11   6  -3   -0.86    4.12
  11  -6   3    0.49    5.04
  11  -6   3   -2.07    8.49
  12   7  -3   -3.20    8.91
  12   6  -3    2.44    7.73
  12   5  -3    0.63    5.64
  12   5  -3    0.48    7.71
  12   5   3    0.46    6.56
 -12  -5   3    1.91    3.61
  12   4  -3  -13.62    5.76
 -12  -4  -3    0.51    3.34
  12   4  -3    6.50    7.87
 -12  -4   3   -3.18    3.85
  12   4   3    0.86    6.22
  12   4   3    3.34    6.53
  12   3  -3    5.77    8.08
  12   3  -3   -0.51    5.01
 -12  -3  -3    0.50    4.20
 -12  -3   3    1.75    3.76
  12   3   3   -5.32    6.76
  12   3   3    3.56    5.31
  12   2  -3    0.46    5.34
  12   2  -3    2.91    8.46
 -12  -2  -3    0.49    4.42
  12   2   3   25.31    8.05
 -12  -2   3    2.50    4.75
  12   2   3    6.72    6.21
 -12  -2   3    3.70    4.33
  12   1  -3   21.51   10.07
  12   1  -3   13.47   13.53
 -12  -1  -3   28.71    9.41
  12   1   3    8.11   12.84
 -12  -1   3   27.38    8.99
 -12  -1   3   16.22    9.54
  12   1   3    2.57   10.61
  12   0  -3  -14.79    9.86
  12   0  -3   -5.36    5.74
 -12   0  -3   -9.24    5.35
 -12   0   3   -2.62    5.36
  12   0   3  -11.67    7.04
  12   0   3  -36.75   11.77
 -12   0   3   -2.24    5.15
 -12   1  -3   48.65   11.26
  12  -1  -3   20.40   11.45
  12  -1  -3   17.22   15.22
 -12   1   3   14.87   11.04
  12  -1   3   -3.77   15.76
  12  -1   3   50.81   12.80
 -12   1   3   29.63   11.33
  12  -2  -3    1.84    9.37
  12  -2  -3    2.97    5.70
 -12   2  -3    1.00    5.35
 -12   2   3    5.24    4.85
  12  -2   3   11.11    6.48
  12  -3  -3    3.20    5.88
 -12   3  -3    0.76    4.84
 -12   3  -3    4.28    5.36
  12  -3  -3    1.31    8.57
 -12   3   3    6.57    4.84
  12  -3   3   14.96    5.82
 -12   4  -3    0.81    4.62
  12  -4  -3    2.25    5.95
  12  -4  -3    4.27    8.77
  12  -4   3   -1.29    9.33
 -12   4   3    0.88    4.11
  12  -4   3   -0.50    5.33
 -12   5  -3    1.76    4.69
  12  -5   3    0.68    8.97
  12  -5   3    3.62    5.51
  12  -6   3    2.11    5.76
  13   7  -3    0.59    9.75
  13   6  -3   -6.60    9.55
  13   5  -3    4.04    5.92
  13   5  -3    4.91    8.93
 -13  -5   3    1.05    4.10
  13   4  -3    7.90    9.19
  13   4  -3    0.59    6.64
 -13  -4  -3    1.70    4.41
 -13  -4   3    7.07    4.83
  13   4   3   12.97    6.90
  13   3  -3   -2.82    5.71
 -13  -3  -3    3.31    4.47
  13   3  -3   -7.10    9.78
  13   3   3    2.59    6.18
 -13  -3   3    0.98    4.35
 -13  -2  -3   -3.26    4.36
  13   2  -3   -5.69    9.80
  13   2  -3    3.12    5.31
  13   2   3    0.62    5.84
  13   2   3   16.04    7.65
 -13  -2   3   -3.26    4.54
 -13  -2   3    0.70    4.77
  13   1  -3   12.30    9.10
  13   1  -3    5.53    5.58
 -13  -1  -3    3.76    4.52
  13   1   3   -3.44    6.48
 -13  -1   3   -2.39    4.48
 -13  -1   3   -2.11    5.00
  13   1   3   -2.15    8.53
 -13   0  -3    5.46    5.38
 -13   0  -3    6.77    4.83
  13   0  -3    8.35    5.70
  13   0  -3   -2.45   10.03
 -13   0   3    1.47    4.86
  13   0   3   -5.20    9.73
 -13   0   3    4.52    4.88
  13   0   3   -0.57    6.08
  13  -1  -3    5.73    9.54
 -13   1  -3   -1.59    4.93
 -13   1  -3   11.76    5.19
  13  -1  -3   -1.06    5.57
 -13   1   3   -3.87    5.44
  13  -1   3    3.63    9.52
  13  -1   3   -3.85    5.92
 -13   1   3   -5.39    4.43
  13  -2  -3    1.64    5.85
 -13   2  -3   -2.79    5.10
  13  -2  -3   17.57    9.98
  13  -2   3    0.56    5.69
 -13   2   3    1.66    4.69
 -13   2   3  -12.07    6.04
  13  -3  -3    3.49    6.24
  13  -3  -3   27.09    9.69
 -13   3  -3   -2.37    5.44
  13  -3   3   -7.70    5.96
 -13   3   3    3.61    4.45
 -13   6  -3    5.13    6.45
  13  -6   3    4.78   10.86
  13  -6   3   21.42    7.37
 -14  -5  -3    3.84    6.12
  14   5   3   19.72   10.20
  14   4  -3   -3.25    6.97
 -14  -4  -3    7.47    4.59
  14   4   3    4.67    6.47
 -14  -4   3   -3.91    5.16
  14   4   3   12.56    9.27
  14   3  -3   11.88    6.74
 -14  -3   3    3.30    5.10
  14   3   3    5.06    9.59
  14   2  -3    4.09    6.44
 -14  -2   3    0.53    5.10
  14   2   3   -9.49    9.76
  14   1  -3  -10.10    6.27
 -14  -1   3    3.23    5.34
  14   1   3   -1.21    9.92
 -14   0  -3    5.24    5.68
  14   0  -3    1.17    6.63
 -14   0   3    1.13    5.77
  14   0   3  -11.64   10.21
 -14   1  -3    1.76    5.68
  14  -1   3   -1.35   10.89
  14  -2   3   -0.62    6.08
  14  -2   3    6.39   11.53
 -14   3  -3    8.44    6.14
  14  -3  -3   -6.22    9.83
 -14   3   3   -5.96    5.21
  14  -3   3    4.24    6.79
  14  -4  -3   -3.35    7.37
 -14   4  -3    1.36    6.43
  14  -4  -3   16.62   10.81
 -14   4  -3    2.00    5.97
 -14   4   3   -2.11    4.81
  14  -4   3    2.47    6.83
 -14   5  -3   11.28    8.10
 -14   5  -3    3.21    7.20
  14  -5  -3   15.33    8.97
  14  -5   3   19.40   12.60
  14  -5   3    0.61    7.81
 -14   6  -3   14.62    5.98
  14  -6   3    2.51    6.74
  14  -6   3  -21.54   10.80
  14  -7   3  -11.61    8.39
  15   7  -3    7.74   13.14
  15   6  -3    0.73   11.96
 -15  -6   3    1.96    5.17
  15   5  -3   -3.93    6.81
 -15  -5  -3    0.70    5.02
  15   5  -3    8.75   12.32
  15   5   3   18.50   10.74
 -15  -5   3    1.90    4.77
 -15  -4  -3    8.91    4.89
  15   4  -3   12.85    7.36
  15   4  -3   -8.51   12.94
 -15  -4   3    8.67    5.24
  15   4   3   -7.59    7.90
  15   4   3   -3.20   10.77
 -15  -3  -3    2.71    5.56
  15   3  -3  -15.39   12.50
  15   3  -3   13.86    6.77
  15   3   3    0.77    7.57
  15   3   3    5.05   10.32
 -15  -3   3   12.92    5.44
 -15  -3   3  -14.48    6.64
 -15  -2  -3    5.41    6.14
  15   2  -3   14.40    6.91
  15   2  -3  -14.54   13.08
 -15  -2   3   17.86    5.52
  15   2   3    0.75    7.69
 -15  -2   3  -16.01    7.14
  15   2   3    2.67   11.33
 -15  -1  -3    0.98    6.95
 -15  -1  -3   -1.35    6.49
  15   1  -3   20.45    7.13
  15   1  -3  -37.68   13.69
  15   1   3  -32.66   12.57
  15   1   3  -12.75    8.21
 -15  -1   3   -0.91    6.61
 -15  -1   3   26.73    5.69
  15   0  -3    5.24    7.60
 -15   0  -3   -8.54    6.92
  15   0  -3    3.04   12.94
 -15   0  -3  -19.50    7.36
 -15   0   3   -0.93    5.92
  15   0   3  -26.10   13.50
  15   0   3  -16.80    8.89
 -15   0   3    5.67    6.47
  15  -1  -3   -2.04    7.46
 -15   1  -3   -2.69    6.47
  15  -1  -3   -3.12   11.93
 -15   1  -3    7.05    7.09
  15  -1   3  -20.20    8.45
 -15   1   3   -3.88    6.49
 -15   1   3    6.10    6.72
  15  -1   3  -21.09   13.27
  15  -2  -3    3.26   12.26
 -15   2  -3    7.56    7.00
 -15   2  -3   -2.06    7.15
  15  -2  -3    3.41    7.92
  15  -2   3   25.91   13.24
  15  -2   3    2.07    7.81
 -15   2   3   16.93    7.52
 -15   2   3    1.02    6.32
  15  -3  -3   -7.63   13.22
  15  -3  -3   -5.70    7.79
 -15   3  -3   -1.43    6.34
 -15   3   3   -4.73    7.62
 -15   3   3    5.46    5.64
  15  -3   3    9.36    7.22
 -15   4  -3   -3.00    6.90
  15  -4  -3  -22.51   12.17
  15  -4  -3   -2.19    8.34
  15  -4   3    0.68    7.33
 -15   4   3   -2.31    6.15
 -15   5  -3   -1.18    5.96
 -15   5  -3   -2.32    7.26
  15  -5  -3   -3.82    8.60
  15  -5   3   18.53   12.46
  15  -5   3   -0.69    7.42
 -15   5   3    9.71    6.37
 -15   6  -3    1.24    6.21
  15  -6   3    0.68    7.34
  15  -6   3  -28.04   11.80
 -15   7  -3    9.04    8.17
  15  -7   3   14.65    9.05
  16   7  -3   -0.86   14.30
  16   6  -3   10.63   13.81
 -16  -6   3   -2.14    5.69
  16   5  -3    5.98    7.72
  16   5  -3   -5.76   14.07
 -16  -5  -3   -0.77    5.44
  16   5   3   24.40   13.04
 -16  -5   3    0.70    5.51
  16   4  -3    7.85    7.67
  16   4  -3   -4.81   13.96
 -16  -4  -3   -3.02    5.40
  16   4   3    8.61   11.50
  16   4   3   -5.51    7.71
 -16  -4   3    4.12    5.52
  16   3  -3   -7.70    8.22
  16   3  -3    0.82   13.73
 -16  -3  -3   -0.75    6.24
 -16  -3   3    1.01    7.21
  16   3   3    0.85    8.09
 -16  -3   3   -5.50    6.11
  16   3   3  -14.17   12.36
  16   2  -3   -0.73    7.53
  16   2  -3  -18.84   13.31
 -16  -2  -3    6.02    6.85
 -16  -2   3   -8.97    7.61
  16   2   3   31.46   13.06
  16   2   3    0.83    7.95
 -16  -2   3    9.02    6.79
  16   1  -3   29.21   14.11
  16   1  -3   -5.16    7.73
 -16  -1  -3    3.03    6.92
 -16  -1  -3    8.70    7.65
 -16  -1   3    5.10    7.10
  16   1   3   -6.29    7.53
  16   1   3   -5.50   12.87
 -16  -1   3   14.38    6.58
  16   0  -3   -3.37   12.91
 -16   0  -3  -16.34    7.85
  16   0  -3   -5.83    8.74
 -16   0  -3   -2.95    6.58
 -16   0   3    1.44    7.34
 -16   0   3   -1.04    6.58
  16   0   3  -14.81    8.55
  16   0   3    0.81   13.20
  16  -1  -3    7.84   12.87
 -16   1  -3    6.01    7.26
 -16   1  -3    4.50    7.22
  16  -1  -3   -4.54    8.39
  16  -1   3   20.29   13.58
  16  -1   3    1.57    8.92
 -16   1   3    1.51    7.76
 -16   1   3    1.08    7.05
  16  -2  -3   -0.75    9.25
 -16   2  -3    6.10    7.77
  16  -2  -3    2.69   14.03
 -16   2  -3   20.73    8.85
 -16   2   3    6.45    8.43
  16  -2   3   -3.04    8.61
  16  -2   3   23.41   13.46
 -16   2   3   14.71    7.60
 -16   3  -3  -11.87    7.92
  16  -3  -3    4.71    8.63
  16  -3  -3   12.97   12.82
  16  -3   3  -23.01    8.37
 -16   3   3   18.07    7.20
  16  -3   3   14.31   12.87
 -16   3   3   25.14    9.01
 -16   4  -3   -7.35    8.02
  16  -4  -3    0.98   12.57
  16  -4  -3    2.39    8.91
  16  -4   3   -6.68    7.83
 -16   4   3    2.75    8.90
 -16   4   3   11.36    6.48
  16  -5  -3   14.10    9.65
 -16   5  -3    9.31    8.72
 -16   5  -3   13.11    8.49
 -16   5   3   -1.32    6.90
  16  -5   3    4.51    8.48
 -16   6  -3    0.87    8.27
 -16   6  -3    4.08    6.91
  16  -6   3  -12.92    8.68
  16  -6   3    8.13   13.46
 -16   7  -3    1.42    6.46
  16  -7   3   -3.78    8.35
  17   7  -3    1.94   15.73
  17   6  -3    5.80   16.05
 -17  -6   3  -12.46    6.47
  17   5  -3    0.93    8.20
  17   5  -3    2.78   15.39
 -17  -5  -3   -1.68    6.09
  17   5   3   14.07   13.71
 -17  -5   3   -3.83    5.70
 -17  -4  -3    3.33    6.38
  17   4  -3    6.53   16.74
  17   4  -3    9.52    8.93
  17   4   3    5.07   14.49
  17   4   3   -1.00    8.40
 -17  -4   3   -5.83    8.68
 -17  -4   3   -2.28    5.75
 -17  -3  -3   -8.32    7.47
  17   3  -3   -5.13    9.89
  17   3   3    3.89    9.92
 -17  -3   3    5.38    8.10
 -17  -3   3   12.46    8.38
  17   3   3   -3.35   13.72
  17   2  -3  -30.32   18.64
 -17  -2  -3   -3.66    8.64
 -17  -2  -3   -6.71    7.03
  17   2  -3   -2.46    9.33
 -17  -2   3    2.34    7.77
  17   2   3   -9.18    9.16
 -17  -2   3    4.57    8.93
  17   2   3  -23.52   15.32
  17   1  -3  -35.35   18.13
 -17  -1  -3   -3.40    8.88
  17   1  -3   -9.90   10.57
 -17  -1  -3   -1.21    8.84
  17   1   3  -37.00   16.25
  17   1   3   -3.65   10.79
 -17  -1   3   -9.26    8.60
 -17  -1   3   -8.00    9.10
 -17   0  -3   -0.83    8.39
  17   0  -3    2.43    9.13
  17   0  -3  -14.05   15.99
 -17   0  -3    1.21    8.38
 -17   0   3   -3.48    8.05
 -17   0   3   16.08    7.70
  17   0   3  -24.41   15.61
  17   0   3  -24.33    9.96
 -17   1  -3   -5.03    9.07
 -17   1  -3    1.68    8.19
  17  -1  -3  -11.82   10.68
  17  -1  -3  -26.94   15.45
  17  -1   3  -24.35   16.71
 -17   1   3   -3.62    7.91
 -17   1   3    1.67    8.62
  17  -1   3  -18.21   10.41
 -17   2  -3   12.93    8.45
 -17   2  -3    7.71    8.86
  17  -2  -3    7.82   10.35
  17  -2  -3    3.93   15.22
  17  -2   3   11.49   15.91
  17  -2   3   10.89    9.83
 -17   2   3    7.14    8.72
 -17   2   3   -1.26    8.08
 -17   3  -3    6.67    8.52
  17  -3  -3  -10.14   14.75
  17  -3  -3   -0.86    9.81
 -17   3  -3    0.87    8.61
  17  -3   3    7.63    9.67
 -17   3   3   -1.33    8.28
 -17   3   3    0.96   10.03
  17  -3   3   20.90   15.33
  17  -4  -3  -10.65   13.79
 -17   4  -3    2.70    8.49
  17  -4  -3   -8.93    9.96
  17  -4   3   13.90    9.35
 -17   4   3    1.39    7.32
 -17   4   3  -18.12   10.83
 -17   5  -3  -11.63    7.99
 -17   5  -3    7.43    9.13
  17  -5  -3   -0.90    9.88
  17  -5   3   -5.76    9.24
 -17   5   3    2.89    7.26
 -17   6  -3    3.01    8.01
 -17   6  -3   -7.58    8.93
  17  -6   3    9.99    9.31
  17  -6   3    3.33   14.57
 -17   7  -3   -2.90    9.25
 -17   7  -3   -3.11    7.90
  17  -7   3    0.82    9.34
  18   6  -3   -5.43   18.25
 -18  -6   3   -2.55    6.56
  18   5  -3   -4.18   17.02
 -18  -5  -3   -7.38    7.21
  18   5  -3   -3.06    9.51
  18   5   3  -23.41   17.62
 -18  -5   3    9.48   10.59
 -18  -5   3   -7.58    6.85
  18   4  -3  -17.87   16.71
 -18  -4  -3    8.27    6.66
  18   4  -3    6.97    9.82
  18   4   3   24.14    9.87
 -18  -4   3   -1.69    6.69
  18   4   3   -9.51   16.83
 -18  -4   3   -1.30    8.51
 -18  -3  -3    7.39    7.39
  18   3  -3  -23.85   17.18
  18   3  -3    0.95    9.83
  18   3   3  -19.79   16.25
 -18  -3   3   -6.01    8.01
  18   3   3   10.71   10.73
 -18  -3   3   -2.53    9.67
  18   2  -3   16.30   10.75
 -18  -2  -3    2.72   10.07
  18   2  -3   -1.04   16.76
 -18  -2  -3    4.68    8.22
  18   2   3  -15.56   17.49
 -18  -2   3    1.28    8.49
 -18  -2   3   15.83    8.61
  18   2   3    4.06   10.25
 -18  -1  -3   10.46    7.81
  18   1  -3   -0.93    9.68
  18   1  -3  -14.48   15.48
 -18  -1  -3   -1.35    9.55
  18   1   3  -20.75   17.56
  18   1   3    1.01    9.88
 -18  -1   3   21.72    8.54
 -18  -1   3    7.70    8.64
  18   0  -3   -1.89    9.90
 -18   0  -3    6.74    8.81
 -18   0  -3    1.39    9.56
  18   0  -3   39.52   16.81
  18   0   3   -3.02   17.16
 -18   0   3    6.32    8.88
 -18   0   3    1.31    8.63
  18   0   3    8.70    9.75
 -18   1  -3  -12.66    8.67
  18  -1  -3   -5.32   17.01
 -18   1  -3   -3.77    8.05
  18  -1  -3    2.81   10.25
 -18   1   3   15.20    9.57
  18  -1   3  -24.85   15.29
 -18   1   3   -5.39    8.12
  18  -1   3   -9.62    9.64
  18  -2  -3   15.14   15.97
 -18   2  -3    2.88   10.19
 -18   2  -3    5.73    9.39
  18  -2  -3   -4.83   10.89
  18  -2   3    4.23   16.62
  18  -2   3   20.27   10.68
 -18   2   3   -3.95   10.21
 -18   2   3    1.40    8.89
  18  -3  -3   40.37   16.33
 -18   3  -3   -5.79    9.79
  18  -3  -3    8.58   10.51
 -18   3  -3   -8.94    9.32
  18  -3   3  -26.29   16.74
 -18   3   3    8.35   10.55
 -18   3   3   -8.81    7.55
  18  -3   3    3.74   10.56
  18  -4  -3  -39.51   15.88
  18  -4  -3   -2.94   11.12
 -18   4  -3   17.83    9.83
  18  -4   3    0.94   10.35
  18  -4   3    3.37   17.20
 -18   4   3    4.57    7.61
 -18   4   3    1.11   11.35
  18  -5  -3  -29.31   11.80
 -18   5  -3   -3.04   10.13
 -18   5   3   -2.31   11.58
  18  -5   3    1.81   10.31
 -18   5   3    4.75    8.18
 -18   6  -3   -1.66    8.82
 -18   6  -3    9.36   11.07
  18  -6   3   19.11   10.14
  18  -6   3    1.21   15.82
 -18   7  -3   16.93   13.66
 -18   7  -3  -13.73   12.00
  18  -7   3   63.57   15.27
  19   6  -3  -14.72   20.66
 -19  -6   3    1.86    7.46
 -19  -5  -3    2.03    7.64
  19   5  -3  -18.26   21.18
  19   5  -3    7.85   10.58
  19   5   3  -27.44   20.10
 -19  -5   3  -10.23    7.37
 -19  -5   3    1.51   10.39
  19   4  -3   16.60   21.61
  19   4  -3   -6.62   12.92
 -19  -4  -3   -4.07    7.51
 -19  -4   3   -1.45    9.67
  19   4   3    9.65   18.85
  19   4   3  -20.51   13.48
 -19  -4   3   -4.70    8.15
 -19  -3  -3   22.59   12.19
  19   3  -3   13.98   22.84
 -19  -3  -3   -7.68   14.11
  19   3  -3   32.81   14.78
 -19  -3   3   18.87   13.57
  19   3   3  -12.65   20.60
 -19  -3   3   45.16   12.71
  19   3   3    7.09   15.40
  19   2  -3  -14.99   14.60
 -19  -2  -3   -1.51   12.51
  19   2  -3  -11.62   21.11
 -19  -2  -3  -21.92   12.88
 -19  -2   3  -25.70   12.00
  19   2   3  -80.78   22.77
 -19  -2   3  -18.66   12.86
 -19  -1  -3  -14.91   10.40
  19   1  -3    6.91   19.29
 -19  -1  -3    1.51   11.16
  19   1  -3    7.28   11.26
  19   1   3  -20.97   19.90
 -19  -1   3   -1.44   10.00
 -19  -1   3  -14.25   10.05
  19   1   3  -25.87   13.44
  19   0  -3   -4.23   11.55
 -19   0  -3   -9.73   11.50
  19   0  -3   -5.77   19.99
 -19   0  -3  -37.14   11.72
  19   0   3  -37.29   21.05
 -19   0   3    2.03   10.26
 -19   0   3   -2.94    9.96
  19   0   3  -21.53   12.94
 -19   1  -3   -3.16   10.51
  19  -1  -3   -8.31   10.78
  19  -1  -3   -4.70   18.75
 -19   1  -3  -51.95   12.43
 -19   1   3   -6.36    9.95
  19  -1   3  -21.42   13.69
  19  -1   3  -33.19   19.58
 -19   1   3    9.02    9.75
 -19   2  -3   -1.07   12.54
 -19   2  -3  -19.45   14.54
  19  -2  -3   -3.22   13.34
  19  -2  -3  -52.37   21.51
  19  -2   3  -65.36   14.84
 -19   2   3    1.55   12.25
 -19   2   3   -2.19   13.18
  19  -3  -3    4.39   15.83
 -19   3  -3   19.61   14.11
  19  -3  -3   13.54   21.51
 -19   3  -3   24.99   14.40
  19  -3   3   59.76   15.84
 -19   3   3   18.48   14.96
  19  -3   3   38.61   23.52
 -19   3   3    8.12   13.54
 -19   4  -3   -1.72   10.83
  19  -4  -3   19.08   18.39
 -19   4  -3    4.37   10.82
  19  -4  -3  -15.14   13.20
 -19   4   3    5.04    9.06
 -19   4   3   -4.83   11.83
  19  -4   3  -43.15   21.02
  19  -4   3   -7.26   11.77
  19  -5  -3   -5.56   11.28
 -19   5  -3    2.23   11.38
  19  -5   3   -3.11   11.77
 -19   5   3    7.62   13.34
 -19   6  -3  -15.86   11.12
 -19   6  -3   -1.85    9.25
  19  -6   3    7.99   11.64
 -19   7  -3   -6.97   11.71
 -20  -6   3   14.08   14.00
 -20  -5  -3    5.62    8.23
  20   5  -3   -8.65   10.83
  20   5  -3   -8.24   22.86
  20   5   3   -4.94   21.29
 -20  -5   3   -2.06    8.40
 -20  -5   3    1.68   11.92
 -20  -4  -3   -5.65    8.27
  20   4  -3   -2.67   21.73
  20   4  -3    3.67   11.69
 -20  -4  -3    3.51   13.27
  20   4   3    1.33   11.66
  20   4   3   21.70   20.65
 -20  -4   3   -1.63   11.37
 -20  -4   3    8.37    8.36
 -20  -3  -3   12.59    8.78
  20   3  -3   -9.44   12.70
 -20  -3  -3    1.71   11.50
  20   3  -3    3.96   21.92
 -20  -3   3    1.08    9.28
 -20  -3   3   -9.75   10.98
  20   3   3    5.24   11.60
  20   3   3   18.40   20.87
  20   2  -3   -9.07   21.77
 -20  -2  -3   -1.69   12.58
  20   2  -3   -7.19   12.43
 -20  -2  -3    2.33    9.14
 -20  -2   3    8.90   10.32
 -20  -2   3  -14.51   10.63
  20   2   3    5.00   12.69
  20   2   3   12.27   20.05
  20   1  -3  -10.27   20.74
  20   1  -3   -2.34   12.33
 -20  -1  -3   -6.89   11.46
 -20  -1  -3   -7.15   10.95
  20   1   3   -5.00   12.82
 -20  -1   3  -17.22   10.79
 -20  -1   3    8.04   11.04
  20   1   3  -17.26   19.94
 -20   0  -3  -53.72   11.66
  20   0  -3  -18.12   20.51
  20   0  -3    1.18   12.28
 -20   0  -3   -4.85   10.63
 -20   0   3   -2.29   10.68
  20   0   3   11.28   13.09
  20   0   3   20.08   20.75
 -20   0   3    1.64   10.76
  20  -1  -3   -7.80   19.31
  20  -1  -3   27.93   13.47
 -20   1  -3  -12.31   10.99
 -20   1  -3   -1.23   11.10
  20  -1   3    5.98   12.92
 -20   1   3   10.09   11.13
  20  -1   3   15.21   20.39
 -20   1   3   -1.19   10.81
 -20   2  -3   -8.39   11.00
 -20   2  -3   10.88   12.21
  20  -2  -3  -21.02   17.76
  20  -2  -3    5.97   12.48
  20  -2   3   -9.13   20.17
 -20   2   3    7.00    9.56
 -20   2   3    1.24   12.09
  20  -2   3   13.08   12.36
  20  -3  -3   -3.67   13.06
 -20   3  -3    1.86   11.56
 -20   3  -3   -1.21   12.18
  20  -3  -3   13.54   18.67
 -20   3   3    9.00    9.61
 -20   3   3    2.56   13.22
  20  -3   3   -2.27   13.11
  20  -3   3  -30.56   20.84
  20  -4  -3    3.59   12.56
  20  -4  -3  -19.53   20.85
 -20   4  -3   14.53   12.47
  20  -4   3   -4.07   19.14
 -20   4   3    3.71    9.63
 -20   4   3   -4.01   14.36
  20  -4   3    2.29   13.29
  20  -5  -3    1.22   13.14
 -20   5  -3   13.53   12.65
 -20   5   3   -9.81   15.59
 -21  -5   3   -7.99    9.63
  21   4  -3   30.07   25.43
  21   4  -3   -5.45   12.99
 -21  -4   3    3.73   11.75
 -21  -4   3   -5.84    8.99
  21   3  -3   -9.24   12.07
  21   3  -3   -7.40   25.68
 -21  -3   3   -3.61    9.87
  21   2  -3    4.03   13.40
  21   2  -3    4.34   25.27
 -21  -2   3   -3.75   11.79
  21   1  -3   24.68   16.45
  21   1  -3   28.62   23.98
 -21  -1   3   11.67   13.93
  21   0  -3  -48.92   24.09
  21   0  -3    6.67   13.85
 -21   0   3   -1.84    9.93
 -21   0   3   16.78   12.29
  21  -1  -3    1.44   18.87
  21  -1  -3    6.77   15.48
 -21   1   3    1.34   12.79
   0   0  -4   79.16   35.97
   0   0  -4   95.08   40.88
   0   0   4   76.07   41.20
   0   1  -4    0.06    0.45
   0   1  -4   -0.07    0.70
   1   0  -4   -0.13    0.91
   0  -1   4   -0.15    0.69
  -1   0   4   -0.26    0.81
   1   1  -4    0.95    0.80
  -1   1  -4    0.89    0.52
  -1   1  -4    0.44    0.45
  -1   1  -4    1.08    0.77
   1  -1   4    0.79    0.63
   1  -1   4    0.58    0.76
   1  -1   4    0.72    0.76
  -1  -1   4    1.33    0.88
   2   1  -4    0.99    0.58
   2   1  -4    1.38    0.98
  -1   2  -4    0.77    0.74
  -1   2  -4    0.34    0.82
   2   1  -4    0.64    0.66
   2   1  -4    0.31    0.93
  -1   2  -4    0.84    0.58
  -2  -1   4    1.38    0.55
   1  -2   4    0.57    1.11
   1  -2   4    0.57    0.70
   1  -2   4    0.99    0.65
  -2  -1   4    1.29    1.08
   0   2  -4   31.61    9.53
   0   2  -4   23.05   10.79
   2   0  -4   23.43    9.98
  -2   0  -4    7.95    9.59
   2   0   4   25.35   11.49
   0  -2   4   30.00    9.10
  -2   0   4   17.34   11.85
   2   0   4   24.73   11.36
   1   2  -4    1.01    0.89
  -2   1  -4    0.99    0.48
  -2   1  -4    1.21    0.76
  -2   1  -4    0.59    0.59
   1   2  -4    0.09    0.71
   2  -1   4    0.07    1.00
   2  -1   4    0.43    0.74
   2  -1   4    0.42    0.88
  -2   2  -4   22.97    8.71
  -2   2  -4   23.05    7.78
   2   2  -4   22.21    8.55
   2   2  -4   23.23    7.72
  -2   2  -4   19.63    7.71
   2   2  -4   23.17    8.71
  -2  -2   4   20.96    7.51
   2  -2   4   20.94    8.43
   2  -2   4   26.76    9.37
   2  -2   4   21.64    7.69
  -2  -2   4    0.23    7.96
   3   2  -4   27.11   10.36
   3   2  -4   25.28   11.76
   3   2  -4   27.38   11.89
   3   2  -4   21.27   13.42
  -3  -2   4   19.15   10.97
  -3  -2   4   29.70   10.06
   3   1  -4    3.33    1.91
  -3  -1  -4    0.40    1.99
   3   1  -4    8.32    2.14
   3   1  -4    3.78    2.37
   3   1  -4    3.58    2.77
  -3  -1   4    5.90    2.03
   1  -3   4    2.60    2.14
  -3  -1   4    6.35    2.51
   3   1   4    2.53    2.67
   3   1   4    3.68    2.47
   3   0  -4   -0.11    0.86
   3   0  -4    0.12    0.91
   3   0  -4   -0.14    1.47
   3   0  -4    0.14    1.19
   0   3  -4   -0.68    1.12
  -3   0  -4    0.12    0.62
   3   0   4   -0.14    1.21
  -3   0   4   -0.20    1.41
   0  -3   4   -0.30    0.96
  -3   0   4   -0.15    0.61
   3   0   4    0.10    1.05
   1   3  -4    2.71    2.31
  -3   1  -4    7.26    2.18
   1   3  -4    4.93    2.61
   3  -1   4    4.84    2.44
   3  -1   4    6.09    2.80
  -1  -3   4    5.06    2.27
  -3   2  -4   20.55    9.98
   2   3  -4   21.63   11.50
  -3   2  -4   28.18   12.01
   3  -2   4   27.77   11.16
   3  -2   4   22.71   12.57
   3   3  -4   16.64   13.42
  -3   3  -4   37.01   11.46
   3   3  -4   26.69   12.65
   3   3  -4   25.15   11.41
   3  -3   4   31.87   12.59
  -3  -3   4   30.86   11.06
   3  -3   4   25.66   14.50
   4   3  -4   23.45    7.72
   4   3  -4   20.62    7.00
   4   3  -4   23.15    7.58
   4   3  -4    6.84    8.98
  -4  -3   4   23.19    6.83
  -4  -3   4    0.12    7.05
   4   2  -4   13.04    5.49
   4   2  -4    8.30    5.35
   4   2  -4    8.03    4.60
   4   2  -4    9.88    5.22
  -4  -2   4   14.24    4.66
  -4  -2   4   14.05    4.52
   4   1  -4    3.58    1.88
   4   1  -4    2.00    2.66
   4   1  -4    3.88    2.24
  -4  -1  -4    1.31    1.71
   4   1  -4    4.04    1.67
  -4  -1   4    3.62    1.67
  -4  -1   4    4.77    2.35
  -4  -1   4    3.52    1.72
   4   1   4    3.69    2.17
   4   1   4    3.16    2.47
   4   0  -4   60.12   34.55
   4   0  -4   53.63   25.09
  -4   0  -4   88.08   24.97
   4   0  -4   47.28   30.79
   4   0  -4   63.56   26.83
   4   0   4   61.31   28.93
   4   0   4   69.76   28.14
  -4   0   4   71.41   26.73
  -4   0   4   39.56   32.02
  -4   1  -4    4.96    1.76
   4  -1  -4    1.83    2.30
  -1  -4   4    2.31    2.03
   4  -1   4    2.10    2.47
   4  -1   4    3.50    2.01
  -4   1   4    3.60    1.75
  -4   2  -4    5.50    3.99
   4  -2   4   10.29    5.53
   4  -2   4    8.03    4.61
  -4   3  -4   29.80    7.48
   4  -3   4   10.33    9.02
   4  -3   4   21.35    8.04
   5   4  -4    2.14    2.20
   5   4  -4    2.28    2.32
  -5  -4   4    2.08    2.21
   5   3  -4    1.07    2.13
   5   3  -4    0.53    2.00
  -5  -3   4    0.62    1.29
   5   2  -4    3.01    2.71
   5   2  -4    5.02    3.10
   5   2  -4    3.48    2.23
   5   2  -4    4.57    2.59
  -5  -2   4    4.10    2.13
  -5  -2   4    4.48    2.19
   5   1  -4   13.59    6.36
   5   1  -4   14.64    7.00
   5   1  -4    7.72    7.83
   5   1  -4   16.35    5.71
  -5  -1   4   13.76    6.13
  -5  -1   4   21.38    7.34
  -5  -1   4    8.39    5.82
   5   0  -4    1.29    1.53
   5   0  -4    0.86    3.04
  -5   0  -4    0.69    1.43
   5   0  -4    0.87    2.41
   5   0  -4    0.66    1.87
  -5   0   4    2.17    1.55
   5   0   4    0.61    1.92
  -5   0   4    2.58    2.47
  -5   1  -4   11.19    6.11
   5  -1  -4   12.28    6.75
   5  -1  -4   13.15    8.85
   5  -1  -4   22.44    6.84
  -5   1   4    8.53    8.65
   5  -1   4   17.67    6.69
  -5   1   4   16.00    6.70
  -5   4  -4    2.75    2.09
   5  -4   4   -0.34    3.80
  -5  -5   4    6.17    3.39
   6   5  -4    8.09    4.85
  -6  -5   4    7.84    4.04
   6   4  -4    4.38    3.03
   6   4  -4    0.76    2.28
  -6  -4   4   -0.56    2.27
   6   3  -4    3.74    2.63
  -6  -3   4    2.27    1.88
   6   2  -4   43.19   17.72
   6   2  -4   28.92   17.89
  -6  -2  -4    4.87   16.51
  -6  -2   4   63.63   15.97
  -6  -2   4   57.08   18.53
   6   2   4   23.57   19.88
   6   1  -4   -1.73    1.49
   6   1  -4    0.16    2.30
   6   1  -4   -0.18    1.86
  -6  -1  -4    0.69    1.60
  -6  -1   4   -1.18    1.48
  -6  -1   4   -0.12    2.50
   6   1   4    0.28    2.85
  -6   0  -4    6.16    2.49
   6   0  -4    3.48    2.34
   6   0  -4    5.36    3.60
  -6   0   4    3.17    3.63
   6   0   4    3.18    3.47
   6   0   4    6.74    3.14
   6  -1  -4   -0.41    2.12
  -6   1  -4    1.87    1.66
   6  -1   4   -0.22    3.11
  -6   1   4   -1.73    2.75
   6  -1   4    3.03    2.28
  -6   2  -4   60.11   17.09
   6  -2  -4   37.32   22.89
   6  -2   4   46.51   20.33
   6  -2   4   41.35   18.13
  -6   2   4   26.79   18.16
  -6   3  -4    2.84    2.03
   6  -3   4    1.82    4.25
   6  -3   4    1.47    2.61
  -6   4  -4    0.43    2.03
   6  -4   4   -1.06    2.52
   6  -4   4   -0.72    4.66
  -6   5  -4    5.62    3.21
   6  -5   4    4.21    3.67
   7   6  -4    5.21    5.71
   7   5  -4    6.51    4.89
   7   5  -4    8.02    4.39
  -7  -5   4   -0.36    3.88
   7   4  -4   10.54    4.32
   7   4  -4    6.56    3.76
   7   4  -4    8.02    4.41
   7   4  -4    2.79    4.72
  -7  -4   4    1.68    3.32
  -7  -4   4    8.68    3.77
   7   3  -4    3.26    3.89
   7   3  -4    7.03    3.02
   7   3  -4    5.68    3.45
  -7  -3  -4    0.29    2.55
   7   3  -4   10.76    3.74
  -7  -3   4    8.27    2.71
  -7  -3   4    2.67    3.00
   7   3   4    1.20    3.44
  -7  -2  -4   -0.56    1.91
   7   2  -4    6.45    2.16
   7   2  -4   -0.91    3.82
   7   2   4   -1.12    3.24
   7   1  -4    4.01    2.14
   7   1  -4   -2.55    4.42
   7   1  -4    3.11    2.59
  -7  -1  -4    0.26    1.97
   7   1   4    0.32    3.11
  -7  -1   4    5.05    1.84
  -7  -1   4   -0.90    2.06
  -7  -1   4    2.61    2.86
   7   0  -4    0.85    2.86
   7   0  -4   -0.14    1.57
   7   0  -4    2.96    4.15
   7   0  -4    0.23    2.35
  -7   0  -4    1.21    1.90
  -7   0   4    2.47    3.11
   7   0   4   -1.12    2.72
  -7   0   4    0.67    1.89
   7   0   4   -0.71    3.42
  -7   1  -4    0.74    2.04
   7  -1  -4   -0.19    2.05
   7  -1  -4   -1.35    2.80
   7  -1  -4   -0.34    4.40
  -7   1   4    0.78    2.27
   7  -1   4    0.79    2.63
   7  -1   4    0.26    3.83
  -7   1   4    2.40    3.04
   7  -2  -4    4.05    2.95
  -7   2  -4    0.27    2.26
   7  -2  -4   -0.34    3.47
  -7   2  -4   -0.73    2.20
   7  -2  -4   -1.17    4.12
  -7   2   4    1.81    2.25
   7  -2   4    1.07    2.71
   7  -2   4    0.30    4.23
  -7   3  -4    2.84    2.90
   7  -3   4    5.08    3.50
   7  -3   4    3.77    5.12
  -7   4  -4    8.01    3.81
   7  -4   4    7.90    6.37
   7  -4   4    6.91    4.16
  -7   5  -4    5.54    3.48
   7  -5   4    9.51    4.27
   7  -5   4    1.85    6.28
   8   6  -4    5.72    5.66
   8   6  -4    3.29    6.35
   8   5  -4    7.03    4.69
   8   5  -4    1.08    4.20
  -8  -5   4    4.99    3.51
   8   4  -4    8.07    4.48
   8   4  -4    3.81    3.67
   8   4  -4   11.22    4.69
   8   4  -4    8.29    4.74
  -8  -4   4    6.12    3.68
  -8  -4   4    0.56    3.22
  -8  -3  -4   -1.00    2.39
   8   3  -4   -5.34    4.79
   8   3  -4   -6.07    3.77
   8   3  -4   -4.20    3.12
   8   3  -4   -3.21    3.09
   8   3   4   -0.52    3.23
   8   3   4    0.92    3.91
  -8  -3   4   -5.18    2.66
  -8  -3   4   -3.43    3.17
  -8  -2  -4    5.72    3.89
   8   2  -4   17.80    6.46
   8   2   4    5.51    5.06
   8   2   4    2.71    4.62
   8   1  -4   -8.70    3.70
  -8  -1  -4    1.51    2.42
   8   1  -4  -20.47    7.07
   8   1   4   -0.17    1.87
  -8  -1   4   -2.12    2.83
  -8  -1   4   -4.54    3.02
   8   1   4    0.34    3.25
   8   0  -4    3.06    6.63
   8   0  -4    3.45    4.30
  -8   0  -4   10.92    4.01
  -8   0  -4    8.21    4.24
   8   0   4    7.70    4.62
  -8   0   4   12.51    3.94
   8   0   4    7.13    3.75
   8  -1  -4   -2.71    2.87
   8  -1  -4   -4.22    5.47
  -8   1  -4    1.14    2.71
   8  -1   4   -4.28    4.10
  -8   1   4   -5.53    4.28
   8  -1   4   -1.23    5.30
  -8   1   4    0.44    2.39
  -8   2  -4    5.31    4.64
  -8   2  -4    5.95    4.51
   8  -2  -4   16.92    5.21
   8  -2  -4   23.52    7.55
   8  -2   4    4.90    5.19
  -8   2   4    5.63    4.44
   8  -2   4    4.18    7.12
   8  -3  -4   -2.31    3.88
  -8   3  -4   -0.46    2.64
   8  -3   4   -0.96    3.51
  -8   3   4    0.56    2.55
   8  -3   4   -3.86    5.58
  -8   4  -4    7.82    3.59
   8  -4   4    2.01    4.02
   8  -4   4    6.08    6.12
  -8   5  -4    3.01    2.93
   8  -5   4   -2.47    6.60
   8  -5   4    2.11    3.45
   8  -6   4   10.65    5.39
   9   6  -4   36.06   16.56
   9   6  -4   31.13   16.17
   9   5  -4    9.36    5.30
   9   5  -4    7.58    5.13
  -9  -5   4    0.41    4.04
  -9  -5   4    0.34    2.95
   9   4  -4   30.42   13.65
   9   4  -4   30.20   12.81
   9   4  -4   22.81   15.19
   9   4  -4   38.57   14.11
  -9  -4   4    7.96   12.72
  -9  -4   4   34.37   12.76
   9   3  -4   -0.21    3.26
   9   3  -4    0.90    4.92
   9   3  -4    2.94    3.20
   9   3  -4   10.61    3.73
  -9  -3  -4   -0.75    2.65
   9   3   4    1.74    3.80
  -9  -3   4    3.55    2.88
   9   3   4    6.49    4.20
  -9  -3   4    5.75    2.99
  -9  -3   4    1.01    3.97
   9   2  -4    5.77    3.91
   9   2  -4   10.21    6.34
   9   2  -4    7.78    4.54
  -9  -2  -4    2.15    3.86
   9   2  -4    5.96    4.51
  -9  -2   4    6.44    5.08
   9   2   4    6.94    5.23
  -9  -2   4    7.29    3.78
  -9  -2   4    7.36    3.92
   9   2   4    8.64    5.53
   9   1  -4   -0.17    2.07
   9   1  -4    5.60    2.81
   9   1  -4    2.10    5.50
  -9  -1  -4   -0.34    2.72
   9   1  -4   -2.02    2.93
   9   1   4   -1.53    3.77
  -9  -1   4    0.41    2.22
  -9  -1   4    1.11    2.81
  -9  -1   4   -1.24    2.43
  -9   0  -4    0.64    2.73
   9   0  -4   -3.10    3.42
   9   0  -4   -5.42    6.09
  -9   0   4   -2.69    2.84
  -9   0   4   -2.20    3.24
   9   0   4   -4.01    3.55
  -9   1  -4   -0.66    3.10
   9  -1  -4    0.68    3.40
   9  -1  -4   -0.43    5.43
   9  -1   4    3.92    5.94
  -9   1   4    3.51    2.81
   9  -1   4    0.70    3.30
  -9   2  -4   10.27    4.90
  -9   2  -4    4.27    4.81
   9  -2  -4   10.38    7.52
   9  -2  -4   11.06    5.17
   9  -2   4   12.70    7.29
  -9   2   4    7.42    4.80
   9  -2   4   12.84    5.25
   9  -3  -4    2.63    5.96
   9  -3  -4    0.42    3.83
  -9   3  -4   -0.53    2.97
   9  -3   4   -3.56    3.92
   9  -3   4    6.94    6.17
  -9   3   4    1.25    3.07
  -9   4  -4   30.13   13.88
   9  -4   4   34.39   16.82
   9  -4   4   42.78   14.52
  -9   5  -4    2.63    3.87
   9  -5   4    9.47    7.29
   9  -5   4   10.51    4.73
  -9   6  -4   13.88   12.24
   9  -6   4   34.26   12.90
  10   6  -4  -12.44    6.41
  10   6  -4   -1.89    5.73
  10   5  -4    7.40    7.41
  10   5  -4   18.40    7.15
  10   5  -4   16.64    7.55
 -10  -5   4   13.52    6.15
 -10  -5   4    1.90    5.56
  10   4  -4    4.24    5.97
  10   4  -4    0.79    3.84
  10   4  -4    0.34    3.66
  10   4  -4    4.90    4.15
 -10  -4  -4    0.43    3.03
  10   4   4    6.19    4.67
 -10  -4   4    1.08    2.93
 -10  -4   4    4.12    3.59
  10   3  -4    6.33    3.87
  10   3  -4    2.70    4.10
  10   3  -4   10.05    6.23
  10   3  -4   -0.38    4.61
 -10  -3  -4    3.74    3.45
 -10  -3   4    5.64    3.85
  10   3   4    1.66    5.15
 -10  -3   4    5.90    4.82
  10   3   4    3.79    5.32
 -10  -3   4    6.39    3.50
  10   2  -4    4.17    3.76
  10   2  -4    1.11    6.10
 -10  -2  -4    1.60    3.58
  10   2  -4    0.36    3.81
  10   2  -4    4.88    3.10
  10   2   4    4.60    5.08
 -10  -2   4    3.45    4.53
 -10  -2   4    5.60    3.08
 -10  -2   4    0.26    3.43
  10   2   4    2.39    4.57
 -10  -1  -4   -2.71    3.24
  10   1  -4   -0.40    6.18
  10   1  -4   -0.55    2.16
  10   1  -4    2.42    3.75
  10   1  -4    0.71    3.92
 -10  -1   4    1.79    2.67
 -10  -1   4    2.39    4.36
  10   1   4   -2.57    3.81
 -10  -1   4    1.42    2.83
 -10  -1   4    1.28    3.29
  10   1   4   -6.68    5.73
 -10   0  -4   40.42   11.78
  10   0  -4   15.01   16.18
  10   0  -4   31.22   10.98
  10   0  -4   21.92   12.31
  10   0  -4   20.15   15.65
 -10   0   4   22.70   17.63
 -10   0   4   36.28   12.21
  10   0   4   29.22   12.80
 -10   0   4   31.10   11.71
  10  -1  -4    2.84    6.22
 -10   1  -4    0.55    3.80
  10  -1  -4    2.06    2.23
 -10   1  -4    5.23    3.40
  10  -1  -4   -4.94    3.77
 -10   1   4    3.37    3.22
  10  -1   4    3.18    4.17
  10  -2  -4    4.59    4.56
 -10   2  -4    1.68    3.84
 -10   2  -4    5.58    3.92
  10  -2  -4    5.54    3.47
  10  -2  -4    0.52    6.87
  10  -2   4    5.40    6.88
  10  -2   4    3.90    4.23
 -10   2   4    3.75    3.54
 -10   3  -4    8.94    4.43
  10  -3  -4   12.59    7.86
  10  -3  -4    3.68    5.08
 -10   3  -4    2.16    4.64
  10  -3  -4    5.40    5.17
  10  -3   4    6.78    7.61
 -10   3   4    8.31    4.30
  10  -3   4    6.50    4.85
 -10   4  -4    1.29    3.73
  10  -4  -4    4.01    4.72
  10  -4   4    0.41    4.47
  10  -4   4   -4.73    7.88
 -10   5  -4    3.59    5.74
  10  -5   4   14.03    6.37
  10  -5   4   19.36    9.35
 -10   6  -4    0.79    3.75
  10  -6   4   14.61    7.90
  10  -6   4   -2.21    4.56
  11   7  -4   -4.95    8.15
  11   7  -4    7.46    7.50
  11   6  -4    5.62    7.94
  11   6  -4    6.01    6.92
  11   5  -4    0.57    4.95
  11   5  -4   -9.32    6.86
  11   5  -4    5.81    5.46
 -11  -5   4    0.85    3.17
 -11  -5   4   -2.33    4.49
  11   4  -4   10.88    6.45
 -11  -4  -4   -1.91    5.54
  11   4  -4   17.44    8.62
  11   4  -4    5.41    6.03
  11   4  -4   18.47    7.11
  11   4   4    8.97    7.47
 -11  -4   4    8.84    6.15
 -11  -4   4   14.47    7.30
  11   4   4   12.48    7.36
 -11  -4   4    7.22    5.47
  11   3  -4   -3.36    7.09
 -11  -3  -4   -1.38    3.81
  11   3  -4    8.24    4.46
  11   3  -4   -1.71    4.86
  11   3  -4   10.81    4.18
  11   3   4   12.90    5.98
 -11  -3   4    9.14    3.89
 -11  -3   4    4.41    4.11
 -11  -3   4    6.75    5.40
  11   3   4    1.87    5.77
  11   2  -4   13.64    8.25
  11   2  -4    5.02    4.79
  11   2  -4    7.69    5.54
  11   2  -4    5.84    5.44
 -11  -2  -4   12.55    5.02
  11   2   4   16.43    7.05
 -11  -2   4   18.21    5.22
 -11  -2   4    0.57    6.28
 -11  -2   4    7.12    4.77
 -11  -2   4    4.55    4.92
  11   2   4   11.02    6.20
  11   1  -4   26.02   10.46
 -11  -1  -4   26.62    9.87
  11   1  -4   21.20   13.37
 -11  -1   4   14.97    9.57
 -11  -1   4   15.57    9.62
  11   1   4   38.17   11.18
 -11  -1   4   14.07    9.94
  11   1   4   25.16   12.10
 -11  -1   4   18.16   13.94
  11   0  -4   -2.39    4.86
  11   0  -4    7.39    7.70
 -11   0  -4    6.67    3.89
 -11   0   4   -1.21    3.95
  11   0   4    3.23    5.00
 -11   0   4    4.63    4.02
  11  -1  -4   17.31   14.05
 -11   1  -4   34.22   10.40
  11  -1  -4   30.89   10.97
 -11   1   4   10.89   10.48
 -11   1   4   16.36   10.68
  11  -1   4   31.73   11.20
 -11   2  -4   16.48    5.49
  11  -2  -4    5.69    8.46
  11  -2  -4    3.71    6.16
 -11   2  -4   13.44    5.48
  11  -2   4    8.60    8.71
 -11   2   4   13.09    5.39
  11  -2   4    0.87    5.73
  11  -3  -4   -0.62    8.42
  11  -3  -4   17.04    5.77
 -11   3  -4    9.61    5.16
 -11   3  -4    0.67    4.69
 -11   3   4    7.61    4.54
  11  -3   4    1.62    8.08
  11  -3   4    0.45    5.14
  11  -4  -4   21.16    8.11
 -11   4  -4   10.08    7.33
  11  -4   4   19.14    7.90
 -11   4   4   22.96    7.55
  11  -4   4   11.01   10.47
 -11   5  -4   -0.78    4.95
  11  -5   4    0.47    5.35
  11  -5   4   39.59   11.30
 -11   6  -4    1.71    4.72
  11  -6   4    9.50    8.90
  11  -6   4    5.28    5.43
  11  -7   4    2.98    5.59
  12   7  -4   12.68    9.51
  12   7  -4    3.26    9.01
  12   6  -4   -9.25    8.27
  12   5  -4    1.83    5.55
  12   5  -4  -10.10    7.96
 -12  -5   4   -0.47    3.50
  12   4  -4    0.46    7.50
  12   4  -4    1.60    5.02
 -12  -4  -4    3.68    3.51
  12   4   4    8.63    6.37
  12   4   4   -1.38    6.99
 -12  -4   4   -2.68    4.02
  12   3  -4   -1.92    8.08
 -12  -3  -4    2.04    3.60
  12   3  -4    2.85    4.72
 -12  -3   4   -4.29    3.78
  12   3   4    3.82    6.06
  12   3   4    9.69    6.70
  12   2  -4   14.08    9.07
 -12  -2  -4   10.50    4.71
  12   2  -4   -0.46    5.97
  12   2   4  -13.84    7.72
 -12  -2   4   16.23    4.64
  12   2   4    8.85    7.79
 -12  -2   4    5.47    4.92
  12   1  -4    7.84    9.40
 -12  -1  -4    4.91    5.20
  12   1  -4  -10.28    5.90
 -12  -1   4    8.29    4.84
 -12  -1   4   -0.61    5.17
  12   1   4   32.89    7.25
  12   0  -4   31.40   20.98
  12   0  -4   25.90   27.25
 -12   0  -4   82.83   20.38
 -12   0   4   31.34   20.82
 -12   0   4   41.08   19.79
  12  -1  -4   -4.34    5.72
  12  -1  -4   -5.81    8.92
 -12   1  -4   28.04    6.89
 -12   1   4   -0.51    5.09
 -12   1   4    4.91    4.72
  12  -2  -4   -4.36    9.08
  12  -2  -4   11.21    5.84
 -12   2  -4   12.46    5.93
 -12   2  -4   -4.01    6.19
  12  -2   4    0.51    7.04
 -12   2   4    8.37    5.14
  12  -3  -4    4.90    5.89
  12  -3  -4   16.17    8.56
 -12   3  -4    0.76    4.55
 -12   3  -4   -2.67    5.09
  12  -3   4    7.79    8.89
 -12   3   4    2.50    4.49
  12  -3   4    0.50    5.44
 -12   4  -4   -0.56    5.77
 -12   4  -4   -0.80    4.65
  12  -4  -4   -2.35    6.10
  12  -4   4    3.83    9.22
 -12   4   4   -2.69    4.71
  12  -4   4   -0.50    5.56
 -12   5  -4   -0.86    4.96
  12  -5   4  -13.36    5.63
  12  -5   4    1.35    9.56
  12  -6   4   -0.53    5.62
  13   7  -4    8.24    9.99
  13   6  -4    1.72    9.62
 -13  -6   4    1.62    4.83
  13   5  -4   -8.56    5.74
  13   5  -4    0.54    9.14
 -13  -5   4    0.52    3.86
  13   4  -4  -13.83    9.46
  13   4  -4    2.91    5.71
 -13  -4   4    0.50    4.51
  13   3  -4   10.42    9.50
  13   3  -4   -1.11    5.71
 -13  -3  -4   -1.69    5.01
 -13  -3   4    2.41    4.65
  13   3   4    9.71    6.70
  13   2  -4    0.51    5.43
  13   2  -4    6.28    9.24
 -13  -2  -4    1.11    4.37
 -13  -2   4    4.81    4.84
  13   2   4    4.44    6.31
  13   2   4    0.50    6.58
 -13  -2   4   -4.60    3.96
 -13  -1  -4    7.71    6.88
  13   1  -4    6.03    7.51
  13   1  -4    0.59   10.92
  13   1   4   43.33   10.34
 -13  -1   4   19.56    6.77
 -13  -1   4    7.79    6.94
  13   1   4    8.82    8.26
 -13   0  -4   -0.53    4.95
  13   0  -4    7.37    9.56
  13   0  -4    4.19    5.80
  13   0   4   19.45    8.63
  13   0   4  -17.26    6.30
 -13   0   4   -3.55    4.78
 -13   0   4   -7.34    4.19
 -13   1  -4    5.97    6.50
  13  -1  -4   13.39    7.25
  13  -1  -4   -0.65   10.69
 -13   1   4    1.12    6.62
 -13   1   4   14.08    6.51
  13  -1   4   13.87    7.63
 -13   2  -4    2.23    5.14
  13  -2  -4    4.09    9.52
  13  -2  -4   -4.48    6.12
  13  -2   4    3.95    6.43
 -13   2   4   -0.84    4.87
  13  -3  -4   -9.00    7.02
  13  -3  -4   22.68    9.24
 -13   3   4    7.31    5.25
 -13   5  -4   -2.85    4.99
  13  -5   4    0.74   10.06
 -13   6  -4    3.06    6.47
  13  -6   4   20.47   11.53
  13  -6   4   14.90    7.18
 -13   7  -4    3.25    5.49
  13  -7   4    0.58    6.56
  14   5  -4   -2.13    7.18
  14   5   4    8.40    8.90
 -14  -5   4    1.14    4.75
  14   4  -4   -0.64    6.51
 -14  -4  -4   -1.91    4.45
  14   4  -4   23.84    9.51
  14   4   4   -8.50    8.44
  14   4   4   -0.80    7.66
 -14  -4   4   -3.31    4.78
  14   3  -4   35.95   10.53
  14   3  -4    3.08    6.95
 -14  -3  -4   19.36    5.30
  14   3   4    2.27    6.75
 -14  -3   4    0.79    4.77
 -14  -3   4    4.88    5.43
  14   3   4   -1.67    9.40
  14   2  -4   34.28   10.37
  14   2  -4   -2.31    6.44
 -14  -2   4    3.64    4.98
  14   2   4   -3.49    5.88
  14   2   4   -3.53    9.66
 -14  -2   4   -3.10    5.05
  14   1  -4    1.69    6.39
 -14  -1   4    6.45    5.41
  14   1   4   -8.41    9.78
  14   0  -4    1.18    7.09
 -14   0  -4    0.89    6.35
  14   0   4   28.28   11.21
 -14   0   4    0.57    5.84
  14  -1   4  -13.44   10.71
  14  -1   4   -0.61    5.27
 -14   2  -4   20.45    7.04
  14  -2   4    5.01    7.39
 -14   3  -4   -7.77    6.22
 -14   3  -4   -1.91    5.47
  14  -3  -4   -2.38   10.36
  14  -3   4   29.35   11.95
 -14   3   4   -4.00    4.99
  14  -3   4    3.65    6.77
 -14   4  -4   -4.75    6.21
  14  -4  -4   -2.78    7.65
 -14   4  -4   12.00    6.15
  14  -4  -4    0.85   10.61
  14  -4   4   -0.62    6.50
 -14   4   4   -1.06    4.89
  14  -4   4    7.72   11.05
 -14   5  -4    7.37    6.88
 -14   5  -4   13.29    7.80
  14  -5   4   19.40    7.99
  14  -5   4  -10.44   11.82
 -14   6  -4   13.44    6.01
  14  -6   4  -24.75   12.07
  14  -6   4    4.97    6.92
 -14   7  -4    4.71    7.59
  14  -7   4   17.78    8.71
  15   7  -4   -3.09   13.06
  15   6  -4   -7.27   12.52
 -15  -6   4    0.65    6.36
  15   5  -4   -4.38   12.37
 -15  -5  -4    2.14    5.09
  15   5  -4    7.71    7.13
 -15  -5   4   -0.62    4.76
  15   5   4    0.63    9.09
 -15  -4  -4   -4.19    4.83
  15   4  -4   21.06    6.65
  15   4  -4   -6.41   13.35
  15   4   4   -2.60    7.19
  15   4   4    1.90   10.14
  15   3  -4   -1.45   12.50
 -15  -3  -4    2.07    6.10
 -15  -3   4    0.88    7.04
  15   3   4   21.27   10.66
  15   3   4    9.91    8.22
  15   2  -4   -5.11   12.94
 -15  -2  -4    2.75    5.38
  15   2   4    3.07    7.24
 -15  -2   4    1.74    6.10
  15   2   4   -2.64   10.95
  15   1  -4    4.48   12.50
  15   1  -4   23.21    7.03
 -15  -1  -4   -5.52    6.13
  15   1   4    2.70   11.61
 -15  -1   4    1.79    6.40
  15   1   4    6.80    7.97
  15   0  -4   -9.11   12.17
 -15   0  -4    0.99    6.49
 -15   0  -4   -0.67    6.16
  15   0  -4    7.25    7.37
  15   0   4   -7.85    7.64
  15   0   4  -43.11   13.18
 -15   0   4   24.11    6.22
 -15   0   4   -1.84    5.60
  15  -1  -4    3.31    7.24
  15  -1  -4  -11.86   11.51
 -15   1  -4   -4.98    6.68
 -15   1  -4   -0.68    6.30
 -15   1   4   -1.94    5.79
  15  -1   4  -17.85    7.78
  15  -1   4  -13.49   13.19
 -15   1   4   -8.25    6.39
 -15   2  -4    4.13    6.40
  15  -2  -4   -0.70    7.82
  15  -2  -4    9.00   12.57
  15  -2   4    0.69    7.66
 -15   2   4   -5.26    6.95
 -15   2   4   10.24    5.99
  15  -3  -4    8.58    8.27
 -15   3  -4    1.06    6.78
  15  -3  -4    2.59   11.15
 -15   3  -4    6.44    6.82
 -15   3   4   -3.29    5.78
  15  -3   4    2.80    7.72
 -15   3   4    2.43    7.91
 -15   4  -4   -6.70    6.36
  15  -4  -4    3.77    8.30
 -15   4  -4   15.52    7.22
  15  -4  -4   -1.83   11.97
 -15   4   4   -4.64    5.63
  15  -4   4  -12.73   12.17
  15  -4   4    0.68    7.44
 -15   5  -4   -4.67    7.47
 -15   5  -4   10.73    7.60
  15  -5   4  -14.93   13.52
  15  -5   4   11.65    7.70
 -15   6  -4   19.74    9.70
 -15   6  -4   22.71    9.85
  15  -6   4   34.32   14.45
  15  -6   4    6.76    9.65
 -15   7  -4    6.44    6.84
  15  -7   4  -15.81    8.12
  16   6  -4    0.86   14.76
 -16  -6   4    3.52    5.34
  16   5  -4   -6.60   14.75
  16   5  -4   -0.84    7.50
 -16  -5  -4   -3.90    5.73
  16   5   4   -0.73   11.53
 -16  -5   4   -2.74    5.14
  16   4  -4    2.32    7.65
  16   4  -4  -10.41   12.63
 -16  -4  -4    0.77    5.66
  16   4   4  -11.29    8.91
  16   4   4   -2.13   11.91
 -16  -4   4   -4.07    5.62
 -16  -4   4    5.08    7.15
  16   3  -4    3.81    7.63
 -16  -3  -4   -8.40    5.95
  16   3  -4   23.76   13.98
  16   3   4   -3.68   12.20
 -16  -3   4    1.97    7.41
 -16  -3   4    2.72    6.05
  16   3   4    2.71    8.75
 -16  -2  -4   -0.77    6.37
  16   2  -4    5.74   13.07
  16   2  -4    1.45    7.32
  16   2   4    1.69    7.74
  16   2   4  -14.82   12.33
 -16  -2   4   -2.75    5.90
 -16  -2   4  -16.95    6.50
  16   1  -4   -1.48    7.73
 -16  -1  -4   -6.61    7.05
  16   1  -4  -26.64   13.28
 -16  -1  -4   -3.08    6.09
 -16  -1   4   -3.01    5.91
 -16  -1   4    4.77    6.75
  16   1   4    5.28   12.27
  16   1   4   -3.34    8.08
 -16   0  -4    5.44    7.10
 -16   0  -4  -22.05    7.43
  16   0  -4    7.35    8.38
  16   0  -4   10.12   12.51
 -16   0   4    2.05    6.45
  16   0   4   -3.97    7.82
 -16   0   4   -1.42    7.05
  16   0   4   12.04   12.90
 -16   1  -4    1.14    7.80
  16  -1  -4    6.12    8.48
 -16   1  -4    5.31    6.99
  16  -1  -4  -18.32   13.68
 -16   1   4   -5.35    7.78
 -16   1   4    4.30    7.05
  16  -1   4   -9.98   13.55
  16  -1   4   -0.79    9.02
 -16   2  -4   -1.56    7.53
  16  -2  -4    8.97   12.44
  16  -2  -4   -2.30    8.82
 -16   2   4   -3.32    8.18
 -16   2   4   12.46    6.85
  16  -2   4    0.76    8.62
  16  -3  -4   10.46    9.23
 -16   3  -4   -1.58    7.53
  16  -3  -4    1.88   12.16
 -16   3   4    4.82    6.38
 -16   3   4   -3.56    8.72
  16  -3   4    1.55    8.13
  16  -4  -4    5.94   12.95
 -16   4  -4   -2.49    7.65
  16  -4  -4   -5.75    9.38
 -16   4  -4    5.69    7.69
 -16   4   4    7.59    6.41
  16  -4   4   13.98   13.83
  16  -4   4  -21.59    8.16
 -16   5  -4    1.31    7.54
 -16   5  -4   12.60    8.45
  16  -5   4   28.84   13.72
  16  -5   4  -20.22    8.54
 -16   6  -4   -1.71    8.31
 -16   6  -4    1.36    6.91
  16  -6   4    3.03   12.83
  16  -6   4   -4.53    8.14
 -16   7  -4   12.73    7.13
  16  -7   4    0.75    8.53
  17   6  -4   24.20   17.14
 -17  -6   4   -5.37    6.17
  17   5  -4    4.66   15.92
 -17  -5  -4   -0.86    5.95
  17   5  -4   -4.58    8.27
  17   5   4   -1.64   14.05
 -17  -5   4  -12.83    5.87
  17   4  -4   -5.61   15.61
 -17  -4  -4    2.54    6.00
  17   4  -4   -2.56    9.21
  17   4   4   11.16   13.53
 -17  -4   4   -3.01    7.14
  17   4   4    1.02    8.95
 -17  -4   4   -6.81    8.75
 -17  -3  -4   -1.69    6.87
  17   3  -4  -34.75   11.02
  17   3  -4  -26.80   18.70
 -17  -3   4   -9.94    8.23
  17   3   4   -5.95    9.55
 -17  -3   4  -19.03    8.40
  17   3   4    0.83   13.85
 -17  -2  -4   15.33   18.45
  17   2  -4   75.78   21.20
  17   2   4   49.93   24.48
  17   2   4    8.40   20.25
 -17  -2   4   76.66   18.86
 -17  -2   4   13.40   19.12
  17   1  -4  -60.18   19.24
 -17  -1  -4    9.80    9.02
  17   1  -4   -9.08    9.30
 -17  -1  -4   -1.72    8.08
  17   1   4   -1.85   10.55
  17   1   4  -35.72   16.34
 -17  -1   4   13.52    8.04
 -17  -1   4   13.08    7.48
  17   0  -4  -16.84   16.57
 -17   0  -4    4.91    9.56
 -17   0  -4   -1.74    9.26
  17   0  -4   -8.99    9.91
  17   0   4  -63.69   18.52
  17   0   4  -12.34   10.37
 -17   0   4   -8.08    8.49
 -17   0   4    4.63    8.27
  17  -1  -4  -21.17   14.76
  17  -1  -4   13.67    9.94
 -17   1  -4   17.83    7.95
 -17   1  -4    1.27    8.64
  17  -1   4  -62.50   17.68
 -17   1   4    3.59    7.78
  17  -1   4  -10.50    9.80
 -17   1   4   22.06    8.54
 -17   2  -4   26.81   16.39
  17  -2  -4   40.34   23.98
  17  -2  -4   13.62   17.39
 -17   2   4   -1.25   16.76
  17  -2   4   48.65   18.01
 -17   2   4   23.65   16.79
 -17   3  -4    7.84    8.89
  17  -3  -4    7.96   10.19
  17  -3  -4   15.42   14.62
 -17   3   4    5.87    9.96
  17  -3   4   -9.36    9.95
 -17   3   4    2.65    7.07
 -17   4  -4    6.94    8.62
  17  -4  -4  -13.78   10.61
  17  -4  -4  -18.28   14.42
 -17   4  -4   13.42    8.82
  17  -4   4    7.66    9.71
 -17   4   4   -8.29   10.45
 -17   4   4    1.38    7.21
 -17   5  -4    7.30    8.78
 -17   5  -4   -1.46    8.00
  17  -5   4    3.28    8.89
  17  -5   4  -22.11   16.38
 -17   6  -4    1.51    8.14
 -17   6  -4  -14.99    9.08
  17  -6   4   11.55    9.22
  17  -6   4   18.75   14.96
 -17   7  -4    7.79    7.91
 -17   7  -4    7.62    9.70
  17  -7   4    0.83    9.42
 -18  -6   4    0.84    6.77
  18   5  -4   27.06   19.28
  18   5  -4    5.02    9.19
 -18  -5  -4   -6.58    7.48
 -18  -5   4  -13.17    9.12
  18   5   4  -22.97   16.01
 -18  -5   4    0.83    6.20
 -18  -4  -4    2.80    6.79
  18   4  -4  -25.32   17.49
  18   4  -4    0.95   10.54
 -18  -4   4   12.68    8.58
  18   4   4   14.10   16.25
  18   4   4   -3.36    9.55
 -18  -4   4   -5.85    6.36
  18   3  -4    5.19   16.97
 -18  -3  -4   -2.81    7.64
  18   3  -4    4.72   10.34
 -18  -3   4    2.55    8.21
 -18  -3   4    3.80    8.76
  18   3   4   50.18   16.51
  18   3   4    5.45   10.77
  18   2  -4    6.23   16.85
 -18  -2  -4   -9.49    7.40
  18   2  -4  -10.96    9.68
 -18  -2  -4   -1.37    9.76
  18   2   4   -7.22   10.30
 -18  -2   4  -18.81    7.95
 -18  -2   4    0.87    7.81
  18   2   4    3.85   16.60
 -18  -1  -4    4.09    9.63
  18   1  -4   -3.70    9.48
 -18  -1  -4   -5.78    8.44
  18   1  -4    3.09   16.10
  18   1   4  -13.34    9.80
 -18  -1   4   -1.26    8.31
 -18  -1   4   -0.87    7.86
  18   1   4   16.57   15.63
  18   0  -4  -11.47    9.85
 -18   0  -4   16.81    9.96
  18   0  -4    8.38   15.19
 -18   0  -4    4.87    8.56
 -18   0   4   15.54    8.72
 -18   0   4  -16.28    9.33
  18   0   4    2.94    9.96
  18   0   4   -4.99   16.73
  18  -1  -4   17.12   10.64
  18  -1  -4   20.15   15.74
 -18   1  -4    7.60    8.80
 -18   1  -4   -1.42    9.08
 -18   1   4   -2.83    9.86
 -18   1   4   -1.34    9.11
  18  -1   4   -2.92    9.82
  18  -1   4   -9.29   16.09
  18  -2  -4    4.32   15.06
 -18   2  -4    6.74    8.76
 -18   2  -4    5.79    9.13
  18  -2  -4    3.93   11.32
 -18   2   4   12.08   10.35
 -18   2   4    9.82    8.55
  18  -2   4  -14.76   16.44
  18  -2   4    6.81   10.34
  18  -3  -4   18.52   11.18
  18  -3  -4    3.37   14.46
 -18   3  -4    0.98    9.56
  18  -3   4   -5.62   10.56
 -18   3   4   -8.75    7.54
 -18   3   4    3.20   10.88
 -18   4  -4   18.71    9.95
  18  -4  -4   -4.68   15.57
  18  -4  -4  -37.39   11.06
  18  -4   4   -0.94   10.42
 -18   4   4    9.09   11.54
 -18   4   4   -4.55    8.12
 -18   5  -4    4.02    9.91
 -18   5  -4    6.50    9.63
  18  -5   4  -26.55   17.64
  18  -5   4   -0.94   10.36
 -18   6  -4    6.11   10.14
 -18   6  -4   -1.67    8.81
  18  -6   4  -19.30   16.03
  18  -6   4  -18.05   10.46
 -18   7  -4  -10.33    8.66
 -18   7  -4    6.25   10.54
  19   5  -4  -11.04   10.27
 -19  -5  -4   -6.21    7.96
  19   5  -4   14.64   20.73
 -19  -5   4    2.94   10.51
  19   5   4  -53.08   18.66
 -19  -5   4    1.84    7.01
  19   4  -4   -8.74   12.27
  19   4  -4  -33.29   20.50
 -19  -4  -4   -1.04    7.35
 -19  -4   4    0.93    7.68
  19   4   4    7.38   11.10
  19   4   4   -8.45   17.96
 -19  -4   4   -1.42    9.29
  19   3  -4  129.38   32.71
 -19  -3  -4   -7.75   22.55
  19   3  -4   62.06   24.07
 -19  -3  -4    8.34   21.06
 -19  -3   4    2.83   21.73
 -19  -3   4   45.73   21.34
  19   3   4   79.37   25.15
  19   3   4  109.72   29.19
  19   2  -4  -41.63   22.33
 -19  -2  -4  -19.85   10.98
  19   2  -4   -7.48   13.74
 -19  -2  -4   10.58   10.48
  19   2   4  -33.11   13.83
 -19  -2   4    2.95    9.95
 -19  -2   4    2.82   10.64
 -19  -1  -4  -22.59   13.43
 -19  -1  -4  -12.16   13.64
  19   1  -4  -37.89   20.84
  19   1  -4  -10.41   13.63
 -19  -1   4   -4.22   12.24
  19   1   4  -46.70   17.57
 -19  -1   4  -25.43   12.25
  19   0  -4   -1.06   12.91
  19   0  -4  -26.72   19.67
 -19   0  -4  -21.87   13.69
 -19   0   4   -8.15   11.18
 -19   0   4  -21.70   10.87
 -19   1  -4  -39.70   16.06
  19  -1  -4  -16.88   14.63
  19  -1  -4  -45.65   20.67
 -19   1  -4  -31.91   14.33
 -19   1   4    1.49   12.05
 -19   1   4   -3.21   12.75
  19  -2  -4  -24.98   19.72
 -19   2  -4   35.51   12.23
 -19   2  -4   10.75   10.65
  19  -2  -4   -5.47   13.09
  19  -2   4    3.23   13.43
 -19   2   4   -3.11    8.17
 -19   2   4    4.46   11.31
 -19   3  -4    3.27   17.14
  19  -3  -4   -2.16   18.35
  19  -3  -4  130.64   27.36
  19  -3   4   -5.14   17.88
 -19   3   4   -1.61   16.51
 -19   3   4   29.50   17.54
 -19   4  -4    6.52   11.20
  19  -4  -4   12.22   12.05
 -19   4   4    1.67    8.57
 -19   4   4    1.25   13.01
  19  -4   4    9.33   11.81
 -19   5  -4   14.46   10.19
 -19   5  -4   -6.63   11.09
  19  -5   4   -1.03   12.15
 -19   6  -4   -7.84   11.93
 -19   6  -4   -1.86    9.92
  19  -6   4   11.90   17.97
  19  -6   4   20.85   11.69
 -19   7  -4   -6.87   11.96
 -19   7  -4   -1.91    9.78
  19  -7   4    8.97   11.78
  20   5   4  -14.65   20.30
 -20  -5   4   11.49   11.87
  20   4  -4    4.85   11.30
 -20  -4  -4   -2.30    8.50
  20   4  -4  -16.05   23.72
  20   4   4    6.77   12.54
  20   4   4    5.96   20.59
 -20  -4   4   17.87   11.28
 -20  -4   4   12.43    8.76
  20   3  -4   -1.32   22.29
 -20  -3  -4   10.45    8.71
  20   3  -4    7.05   11.72
 -20  -3  -4   -5.18   13.28
 -20  -3   4   -3.20    9.10
 -20  -3   4   -1.59   11.04
  20   3   4   12.12   20.39
  20   3   4   30.62   13.61
 -20  -2  -4    9.45    9.77
  20   2  -4   -4.79   13.29
  20   2  -4   33.54   21.65
 -20  -2  -4  -22.14   11.76
  20   2   4    7.60   13.04
  20   2   4    1.21   20.28
 -20  -2   4   -1.58   10.56
 -20  -2   4    7.74   10.11
 -20  -1  -4   -8.68   11.91
  20   1  -4    1.17   12.52
 -20  -1  -4   -1.20   11.00
  20   1  -4  -28.12   22.29
  20   1   4    1.26   12.89
 -20  -1   4    4.80   10.69
  20   1   4  -70.78   21.94
 -20  -1   4   -6.87   10.71
  20   0  -4   -8.35   13.03
 -20   0  -4  -12.21   13.39
 -20   0  -4    8.57   11.02
  20   0  -4   14.18   20.02
  20   0   4   56.15   21.08
  20   0   4   -2.53   13.71
 -20   0   4    1.15   10.97
 -20   0   4    1.62   11.25
 -20   1  -4  -16.12   10.75
  20  -1  -4   -1.29   18.54
  20  -1  -4    5.85   13.34
 -20   1  -4    1.77   12.13
 -20   1   4    2.39   11.31
 -20   1   4   -1.66   10.04
  20  -1   4  -15.68   12.38
  20  -1   4   29.00   20.01
 -20   2  -4  -18.28   11.54
 -20   2  -4   21.67   11.19
  20  -2  -4    7.30   12.67
  20  -2  -4   -5.29   19.13
  20  -2   4    5.98   13.73
  20  -2   4  -27.01   19.30
 -20   2   4  -10.37    9.27
 -20   2   4    8.67   11.96
  20  -3  -4  -11.24   12.77
 -20   3  -4  -18.19   11.94
  20  -3  -4   -8.12   19.00
 -20   3  -4    9.38   12.26
 -20   3   4  -10.44   14.12
 -20   3   4   10.67    9.60
  20  -3   4   21.25   20.64
  20  -3   4   -7.16   12.86
 -20   4  -4    1.23   13.23
  20  -4  -4    3.69   12.73
 -20   4   4    1.37   13.94
 -20   4   4    1.84    9.93
  20  -4   4  -17.10   14.00
 -21  -4   4   -1.82   12.53
 -21  -4   4   12.71    9.91
  21   3  -4   -7.88   12.07
  21   3  -4  -17.66   26.62
 -21  -3   4   -9.57    9.49
 -21  -3   4   12.53   11.87
  21   2  -4  -50.49   25.44
  21   2  -4   -4.03   15.63
 -21  -2   4   -7.08   13.20
 -21  -2   4   -8.71   12.75
  21   1  -4    1.32   15.60
  21   1  -4   60.43   23.71
 -21  -1   4    7.76   14.14
 -21  -1   4    5.38   12.89
  21   0  -4   41.48   22.37
  21   0  -4   -1.34   14.99
 -21   0   4   -9.09   10.94
 -21   0   4  -12.96   11.85
  21  -1  -4    6.86   14.70
 -21   1   4   -4.04   13.02
   0   0  -5    0.68    1.23
   0   0  -5    0.13    0.78
   0   0   5   -0.57    1.18
   0   1  -5    6.37    2.14
   1   0  -5    3.24    2.50
   0   1  -5    3.89    1.78
   0  -1   5    3.39    2.12
  -1   0   5    1.64    2.44
   1   1  -5    0.74    0.96
  -1   1  -5    0.09    0.95
  -1   1  -5    0.20    0.55
  -1   1  -5    0.11    0.37
   1   1  -5    0.09    0.63
   1  -1   5   -0.29    0.64
   1  -1   5    0.18    0.69
   1  -1   5    0.46    0.90
  -1  -1   5   -0.44    0.94
  -1   2  -5   15.87    6.50
  -1   2  -5   12.76    6.53
   2   1  -5   16.37    7.59
  -1   2  -5   13.96    7.71
   2   1  -5   15.73    6.34
   1  -2   5   11.91    7.29
   1  -2   5   14.53    8.58
   1  -2   5   15.43    6.15
  -2  -1   5   16.27    7.71
   2   0  -5    0.15    1.06
   0   2  -5    0.09    0.65
   2   0  -5    0.17    1.50
  -2   0  -5    0.20    0.57
   0   2  -5   -0.09    0.95
   2   0   5   -0.08    0.69
   0  -2   5   -0.48    0.67
   2   0   5    0.57    0.91
  -2   0   5    0.11    1.47
   1   2  -5   15.80    6.78
   1   2  -5   13.88    7.88
  -2   1  -5   16.82    8.16
  -2   1  -5   23.13    6.81
  -2   1  -5   17.91    7.05
   2  -1   5   10.61    8.12
   2  -1   5   16.92    8.09
  -1  -2   5   16.11    6.55
   2  -1   5   20.28    7.70
   2   2  -5   -0.46    1.29
  -2   2  -5    0.07    0.88
  -2   2  -5   -0.12    0.58
  -2   2  -5   -0.15    0.68
   2  -2   5   -0.11    1.51
   2  -2   5    0.45    0.61
   2  -2   5   -0.63    0.89
   3   2  -5    0.50    1.46
  -2   3  -5    0.09    1.19
   3   2  -5   -0.35    1.10
  -2   3  -5    0.80    0.93
   3   2  -5    1.17    1.15
  -2   3  -5    1.87    1.19
   3   2  -5    0.77    1.19
  -3  -2   5    0.61    0.71
   2  -3   5    2.05    1.24
  -3  -2   5    0.96    1.08
   2  -3   5    0.54    1.99
   2  -3   5    1.81    1.27
   3   1  -5   15.24    6.40
   3   1  -5   19.12    5.86
  -1   3  -5   10.49    7.06
   3   1  -5   15.12    8.66
  -1   3  -5   12.94    6.24
   3   1  -5   16.96    7.09
  -3  -1   5   13.18    7.23
  -3  -1   5   17.12    6.51
   3   1   5    3.31    7.35
   1  -3   5   21.57    6.11
   3   0  -5    1.83    1.26
   3   0  -5    1.22    1.59
  -3   0  -5    1.29    0.80
   0   3  -5    0.79    1.23
   0   3  -5    0.27    1.01
  -3   0   5   -0.72    1.65
   3   0   5    1.02    1.19
   0  -3   5    0.14    0.97
   3   0   5    0.17    1.49
   1   3  -5   13.18    6.38
  -3   1  -5   14.67    6.31
  -3   1  -5   16.62    7.85
   1   3  -5   17.67    7.13
  -3   1  -5   19.96    6.11
   3  -1   5   13.00    6.85
   3  -1   5    9.99    7.36
  -1  -3   5   18.27    6.10
   3  -1   5   11.40    7.83
   2   3  -5    1.54    1.58
  -3   2  -5    1.62    0.81
  -3   2  -5    0.83    0.93
  -3   2  -5    0.37    0.98
   3  -2   5    0.97    1.31
   3  -2   5    0.57    2.23
   3  -2   5    0.52    0.77
   3   3  -5   -0.08    1.25
   3   3  -5    2.61    1.49
   3   3  -5    1.37    1.74
  -3   3  -5    0.68    1.23
   3  -3   5    1.21    2.70
  -3  -3   5    0.17    1.37
   3  -3   5    0.88    1.61
   4   3  -5    5.84    7.29
  -4  -3   5    2.56    4.85
   4   2  -5    9.26    4.55
   4   2  -5    8.44    4.29
   4   2  -5    4.65    3.61
   4   2  -5    9.18    4.34
  -4  -2   5   10.22    3.61
  -4  -2   5    7.30    4.48
  -4  -2   5   10.48    3.66
   4   1  -5   47.74   17.26
  -4  -1  -5    3.48   16.93
   4   1  -5   56.69   15.72
   4   1  -5   39.08   18.98
   4   1  -5   41.90   22.39
   4   1   5   38.87   20.71
  -4  -1   5   29.49   19.58
   4   1   5   44.65   19.84
  -4  -1   5   46.23   17.32
   4   0  -5   -0.16    1.49
   4   0  -5   -0.74    2.00
   4   0  -5    1.30    2.27
   4   0  -5    0.59    1.38
  -4   0  -5   -0.48    1.08
   0   4  -5   -0.58    1.44
   0  -4   5   -0.88    1.42
  -4   0   5    0.42    0.88
   4   0   5   -0.19    1.50
   4   0   5    0.13    1.69
  -4   0   5   -0.13    2.14
   4  -1  -5   34.79   19.18
   1   4  -5   27.53   17.53
  -4   1  -5   61.24   17.06
  -1  -4   5   29.89   17.33
   4  -1   5   52.08   18.71
   4  -1   5   50.93   20.14
   2   4  -5   12.45    4.50
  -4   2  -5    8.13    4.13
  -4   2  -5   10.75    3.75
   4  -2   5    7.66    3.87
   4  -2   5   10.10    5.11
   4  -2   5    6.96    4.17
   4  -2   5    5.68    4.06
  -4   3  -5   35.69   10.18
   4  -3   5   29.13   11.41
   4  -3   5   28.08   10.62
   4   4  -5    0.52    1.83
  -4   4  -5    0.35    0.89
   4   4  -5    2.74    2.10
   4  -4   5    0.20    1.92
  -4  -4   5    0.97    1.86
   5   4  -5    0.60    2.11
   5   4  -5   -1.22    2.01
   5   4  -5   -0.88    2.46
  -5  -4   5    0.26    2.01
   5   3  -5    2.22    2.56
   5   3  -5    4.82    2.54
  -5  -3   5    1.92    1.79
   5   2  -5   11.48    5.80
   5   2  -5   13.65    6.40
   5   2  -5   10.69    5.83
   5   2   5    6.24    6.17
  -5  -2   5   13.63    6.11
  -5  -2   5   13.50    5.04
   5   1  -5    1.95    2.44
   5   1  -5    1.38    1.77
   5   1  -5    1.91    1.60
   5   1  -5    0.92    2.92
  -5  -1   5    2.87    1.52
  -5  -1   5    0.83    2.52
  -5  -1   5    2.24    1.55
   5   0  -5   21.02   12.23
   5   0  -5   13.29   10.82
   5   0  -5   27.67    9.25
   5   0  -5   25.08    8.68
  -5   0   5   19.17    9.35
  -5   0   5   17.95   11.30
   5  -1  -5    1.07    3.26
   5  -1  -5    2.30    2.56
  -5   1   5    2.40    1.55
  -5   1   5    1.67    2.94
   3   5  -5    4.55    2.69
  -3  -5   5    3.90    2.68
   4   5  -5    1.29    2.81
   4   5  -5    0.28    2.40
  -5   4  -5    0.75    1.83
  -4  -5   5   -0.31    2.14
   5  -4   5   -0.32    3.77
   5   5  -5    0.27    2.97
   5   5  -5   -1.18    2.56
   5  -5   5   -0.24    2.47
  -5  -5   5    1.62    2.41
   6   5  -5   -0.62    2.72
   6   5  -5    1.44    3.79
  -6  -5   5   -1.02    2.76
   6   4  -5    9.99    3.82
   6   4  -5   12.26    3.32
   6   4  -5    1.18    3.95
  -6  -4   5   -0.58    2.60
  -6  -4   5    6.93    3.31
   6   3  -5   73.24   31.97
   6   3  -5   78.96   35.16
   6   3  -5   66.53   28.48
  -6  -3   5   83.12   27.68
  -6  -3   5   49.34   29.86
   6   2  -5    0.72    1.81
  -6  -2  -5    0.25    1.56
   6   2  -5    4.47    2.97
   6   2   5    1.43    2.67
  -6  -2   5    1.11    1.58
   6   1  -5   13.73    5.07
   6   1  -5    8.02    5.74
  -6  -1  -5    6.98    4.26
   6   1  -5   10.13    4.42
  -6  -1   5   -0.50    4.18
  -6  -1   5    9.33    4.02
  -6  -1   5   12.85    5.34
   6   1   5   11.11    4.99
   6   1   5    8.37    5.21
  -6   0  -5    0.22    1.77
   6   0  -5    3.08    1.65
   6   0  -5   -1.75    2.76
  -6   0   5    0.16    2.80
   6   0   5    1.26    2.50
   6   0   5   -0.96    2.92
  -6   1  -5   13.45    4.54
   6  -1  -5   15.83    5.00
   6  -1   5    8.52    5.74
   6  -1   5    9.50    5.10
  -6   1   5    5.83    6.33
  -6   2  -5    0.92    1.93
  -6   2  -5    0.31    2.00
   6  -2   5    1.53    3.82
   6  -2   5    1.38    2.43
  -6   3  -5   70.71   26.03
   6  -3   5   39.22   32.11
   6  -3   5   79.03   28.71
  -6   4  -5   12.84    3.58
   6  -4   5    5.83    4.00
   6  -4   5    4.22    5.53
  -6   5  -5    0.50    2.47
   6  -5   5    3.40    5.33
   6  -5   5    1.40    2.74
   6   6  -5   -1.09    4.39
   7   6  -5    3.96    4.02
   7   6  -5    3.40    5.07
  -7  -6   5   -0.86    3.57
   7   5  -5    3.97    3.21
   7   5  -5    4.17    3.74
   7   5  -5   -0.92    4.30
  -7  -5   5    3.99    3.26
   7   4  -5   22.08    9.23
   7   4  -5   46.42    8.79
  -7  -4   5    0.90    8.25
  -7  -4   5   22.14    8.47
   7   3  -5    2.69    2.41
   7   3  -5    0.80    2.76
   7   3  -5    1.47    3.40
  -7  -3   5    0.24    2.39
   7   2  -5   10.26    3.67
   7   2  -5    7.77    5.44
   7   2  -5   16.08    4.34
  -7  -2  -5    1.16    3.58
   7   2   5    3.91    4.63
  -7  -2   5    7.59    3.65
   7   1  -5   -6.63    4.76
  -7  -1  -5    1.11    1.91
   7   1   5    0.22    2.69
  -7  -1   5    2.10    1.90
   7   1   5   -0.33    3.29
   7   0  -5    5.69    2.92
   7   0  -5    2.76    4.54
  -7   0  -5    1.25    2.50
   7   0   5    8.12    3.62
   7   0   5    1.43    3.77
  -7   0   5    2.79    2.42
   7  -1  -5    0.70    4.24
  -7   1  -5    0.74    1.96
   7  -1  -5   -0.85    2.90
   7  -1   5    0.27    2.68
  -7   1   5   -0.82    2.20
   7  -1   5   -1.32    3.75
  -7   2  -5    5.67    3.31
   7  -2  -5    4.92    3.65
  -7   2  -5    5.53    3.20
  -7   2   5    3.69    3.16
   7  -2   5    1.19    5.10
   7  -2   5    1.88    3.67
  -7   3  -5    0.80    2.29
   7  -3   5   -0.28    3.01
   7  -3   5   -2.03    5.23
  -7   4  -5    0.46    4.91
   7  -4   5    1.49    5.82
   7  -4   5    5.03    8.00
  -7   5  -5    1.09    2.66
   7  -5   5    3.15    3.37
   7  -5   5   -0.90    5.94
   7  -6   5   -0.99    3.39
   8   6  -5    7.47    5.54
   8   6  -5    9.35    5.06
  -8  -6   5    0.91    4.32
   8   5  -5   -0.26    3.95
   8   5  -5   -1.41    3.11
   8   5  -5    2.54    4.42
  -8  -5   5   -0.77    3.29
  -8  -5   5    0.28    1.70
   8   4  -5    3.94    3.96
   8   4  -5   -1.20    3.34
   8   4  -5   -2.99    3.36
   8   4  -5   -3.40    3.69
  -8  -4   5    1.93    2.87
  -8  -4   5    1.91    2.03
   8   3  -5    4.36    2.69
   8   3  -5    4.69    3.25
  -8  -3  -5    0.69    2.41
   8   3  -5   -5.08    3.13
   8   3  -5    0.25    4.21
   8   3   5    2.94    3.37
   8   3   5    6.70    3.69
  -8  -3   5    0.25    2.35
  -8  -3   5    0.27    2.89
  -8  -3   5    2.02    3.72
   8   2  -5  -11.69    4.15
   8   2  -5   -9.45    4.64
   8   2  -5  -11.24    3.54
  -8  -2  -5    0.33    2.44
   8   2   5    2.58    4.23
  -8  -2   5  -13.50    4.70
  -8  -2   5   -9.96    5.27
  -8  -1  -5    0.94    4.66
  -8  -1   5   22.60    5.72
   8   1   5    1.12    5.80
  -8   0  -5    2.89    2.80
   8   0  -5   -5.70    3.41
   8   0  -5   -3.18    2.58
   8   0  -5  -20.61    7.73
   8   0   5   -3.33    4.90
  -8   0   5   -2.81    3.11
   8   0   5   -1.65    3.91
  -8   1  -5    9.79    7.52
   8  -1  -5   37.42    8.25
   8  -1  -5   44.71   10.91
   8  -1   5   13.87   10.16
  -8   1   5    1.85    7.72
   8  -2  -5  -10.67    6.46
   8  -2  -5   -3.98    3.88
  -8   2  -5    8.16    2.96
  -8   2  -5    1.25    3.22
  -8   2   5    8.38    3.22
   8  -2   5    3.10    6.26
   8  -2   5    1.23    4.17
  -8   3  -5    4.14    3.10
   8  -3  -5    1.22    3.99
   8  -3   5    5.40    3.61
   8  -3   5    4.21    5.86
  -8   4  -5   -1.54    2.69
   8  -4   5    2.99    5.65
   8  -4   5    0.34    3.75
  -8   5  -5   -0.59    2.62
   8  -5   5   -3.86    3.16
   8  -5   5    2.87    6.09
  -8   6  -5    0.67    3.57
   8  -6   5   -0.36    3.74
   9   7  -5    3.55    6.94
   9   6  -5   10.29    6.68
   9   6  -5    7.40    7.12
   9   5  -5    9.35    6.46
   9   5  -5   14.67    8.15
   9   5  -5   22.89    7.77
   9   5  -5   14.46    7.44
  -9  -5   5   16.54    6.55
  -9  -5   5    0.33    6.18
   9   4  -5    5.14    3.26
   9   4  -5    0.30    5.08
   9   4  -5   -0.39    3.57
   9   4  -5   -0.53    3.86
  -9  -4   5    2.78    3.28
  -9  -4   5    0.31    2.45
   9   3  -5    6.54    3.51
   9   3  -5   -0.66    4.16
   9   3  -5    0.62    5.70
   9   3  -5    3.69    3.96
  -9  -3  -5    1.15    3.21
  -9  -3   5    6.80    4.60
  -9  -3   5    4.35    3.49
   9   3   5   -2.08    5.25
   9   3   5    7.35    4.45
  -9  -3   5   14.68    3.28
   9   2  -5    2.71    3.46
   9   2  -5    2.89    5.37
   9   2  -5    4.40    3.29
   9   2  -5   -0.42    2.56
  -9  -2  -5    2.59    2.61
  -9  -2   5    4.25    2.63
  -9  -2   5    1.72    2.62
  -9  -2   5    1.58    2.79
  -9  -2   5    0.17    3.89
   9   2   5    4.96    4.10
  -9  -1  -5   -1.42    2.78
   9   1  -5    0.24    3.75
   9   1  -5   -5.75    2.94
   9   1  -5   -0.36    5.42
   9   1  -5   -1.23    2.03
  -9  -1   5   -0.84    2.77
  -9  -1   5    0.82    2.56
  -9  -1   5    1.28    4.11
   9   1   5   -4.58    3.82
   9   0  -5    1.85    3.66
  -9   0  -5    2.65    3.07
   9   0  -5    6.91    2.62
   9   0  -5    1.98    5.86
   9   0  -5    0.29    4.44
   9   0   5    5.43    5.10
  -9   0   5    8.00    4.91
  -9   0   5    2.25    3.43
   9   0   5    6.36    3.97
  -9   0   5    2.74    3.27
   9  -1  -5    3.53    5.83
   9  -1  -5   10.12    3.77
  -9   1  -5    3.64    2.86
   9  -1  -5    0.43    2.66
   9  -1   5   -7.86    3.96
  -9   1   5   -0.52    2.82
   9  -1   5   -6.75    5.45
  -9   2  -5    1.98    3.20
   9  -2  -5   -1.59    3.79
  -9   2  -5   -0.35    3.42
   9  -2  -5    5.88    5.84
   9  -2  -5   -0.64    3.73
   9  -2   5    0.39    5.99
  -9   2   5   -1.17    3.07
   9  -2   5    1.40    3.88
   9  -3  -5    4.87    4.50
  -9   3  -5    6.83    3.65
  -9   3  -5    3.83    3.89
   9  -3   5    3.88    6.63
  -9   3   5    3.19    3.26
   9  -3   5    0.36    4.41
  -9   4  -5    2.29    3.26
   9  -4   5   -0.37    4.03
   9  -4   5   -6.60    6.21
  -9   5  -5   11.50    6.50
   9  -5   5   23.91    7.07
   9  -5   5    6.72    8.99
  -9   6  -5    2.89    4.39
   9  -6   5    4.10    7.88
   9  -6   5    7.61    4.94
  10   7  -5   20.61   13.81
  10   7  -5   27.96   13.24
  10   6  -5   18.93   10.71
  10   6  -5   12.91   10.67
  10   5  -5  -11.83    4.80
  10   5  -5   11.56    5.98
  10   5  -5   -3.77    4.97
  10   5  -5   -3.98    3.89
 -10  -5   5   -0.75    2.89
 -10  -5   5    1.77    4.00
  10   4  -5   30.71   14.92
  10   4  -5   32.16   13.48
  10   4  -5   31.11   14.84
  10   4  -5   27.45   12.98
 -10  -4   5   14.40   12.77
 -10  -4   5   29.99   12.90
  10   4   5   30.63   13.70
 -10  -3  -5   -1.28    2.62
  10   3  -5    1.41    3.24
  10   3  -5   11.52    4.10
  10   3  -5   -0.73    3.72
  10   3  -5    0.36    6.17
 -10  -3   5    1.89    3.29
  10   3   5   -4.57    4.88
 -10  -3   5   -3.11    4.76
  10   3   5   -9.54    4.63
 -10  -3   5   -1.97    2.98
 -10  -2  -5   -0.83    3.37
  10   2  -5   -0.38    6.27
  10   2  -5    6.85    3.21
  10   2  -5    4.70    3.95
  10   2  -5    6.50    4.05
  10   2   5    4.45    4.87
 -10  -2   5    2.66    3.23
 -10  -2   5    7.06    3.28
 -10  -2   5    0.91    3.29
 -10  -2   5    3.97    4.70
  10   1  -5    7.61    5.69
  10   1  -5   10.21    6.65
 -10  -1  -5    9.60    5.33
  10   1  -5   11.48    8.51
  10   1  -5   10.96    4.74
 -10  -1   5    9.45    7.62
 -10  -1   5    8.83    4.97
  10   1   5   13.91    6.51
 -10  -1   5    8.35    5.17
 -10  -1   5   10.10    5.45
  10   0  -5    2.33    2.26
  10   0  -5   -2.81    4.33
 -10   0  -5   -2.64    3.08
  10   0  -5   -2.15    4.06
  10   0  -5    8.44    6.40
 -10   0   5    2.55    3.55
  10   0   5   11.80    4.53
  10   0   5    5.37    5.75
 -10   0   5   -0.52    3.23
 -10   0   5   -0.46    4.70
  10  -1  -5   13.69    6.30
  10  -1  -5    3.42    8.65
  10  -1  -5   11.00    5.13
 -10   1  -5   16.96    5.77
  10  -1   5   13.73    6.39
  10  -1   5   12.58    8.48
 -10   1   5    5.76    6.09
 -10   2  -5   -0.57    3.58
  10  -2  -5    3.47    4.62
 -10   2  -5    3.59    3.79
  10  -2  -5    6.38    6.98
  10  -2  -5    1.75    3.71
 -10   2   5    0.65    3.70
  10  -2   5   10.66    4.44
  10  -2   5   -4.47    7.28
 -10   3  -5    2.39    3.47
 -10   3  -5   -2.58    3.77
  10  -3  -5    3.85    4.54
  10  -3   5   -4.35    7.09
 -10   3   5   -2.82    3.64
  10  -3   5    1.64    4.18
 -10   4  -5   27.58   12.72
  10  -4   5   26.29   15.92
  10  -4   5   35.18   13.50
 -10   5  -5    0.70    4.24
  10  -5   5    7.73    5.06
  10  -5   5   12.36    7.99
 -10   6  -5   21.05    9.37
  10  -6   5   22.78    9.80
  10  -6   5   15.58   12.66
  10  -7   5   15.37    9.52
  11   7  -5   -1.88    7.65
  11   7  -5    1.07    7.75
  11   6  -5   -2.56    7.47
  11   6  -5    6.83    6.65
  11   5  -5    0.68    5.72
  11   5  -5   16.08    5.94
  11   5  -5    2.93    7.60
  11   5  -5   13.49    4.81
 -11  -5   5   11.80    4.92
 -11  -5   5   -2.08    3.90
 -11  -4  -5   -0.49    3.44
  11   4  -5  -19.92    5.49
  11   4  -5    5.21    4.54
  11   4  -5    5.12    3.82
  11   4  -5    8.04    6.91
 -11  -4   5    4.72    3.74
 -11  -4   5    2.69    5.73
 -11  -4   5    4.86    4.48
  11   4   5    9.14    5.46
  11   3  -5   12.49    6.33
  11   3  -5    6.87    5.79
 -11  -3  -5   -0.47    5.37
  11   3  -5    7.96    8.56
  11   3  -5   11.65    6.50
 -11  -3   5   13.64    5.79
  11   3   5   10.85    7.26
 -11  -3   5   10.19    7.19
 -11  -3   5    9.68    5.54
  11   3   5   21.23    7.74
  11   2  -5   21.65   12.99
  11   2  -5   15.87   10.87
  11   2  -5   23.96   10.20
  11   2  -5   19.44    9.42
 -11  -2  -5   14.74    9.49
  11   2   5   11.94   11.22
 -11  -2   5   22.59   12.45
 -11  -2   5   19.82    9.52
  11   2   5   22.18   11.12
 -11  -2   5   24.59    9.14
 -11  -2   5   26.01    9.38
  11   1  -5    3.68    4.88
  11   1  -5    7.49    2.94
  11   1  -5   -1.18    4.63
 -11  -1  -5    4.05    3.85
  11   1  -5    7.91    7.62
 -11  -1   5    3.83    3.47
  11   1   5    4.12    5.23
 -11  -1   5   -2.72    5.49
 -11  -1   5    0.73    3.88
 -11  -1   5    3.08    3.14
 -11   0  -5   66.92   29.00
  11   0  -5   97.29   29.89
  11   0  -5   46.25   36.27
 -11   0   5   98.05   28.72
  11   0   5   81.32   30.93
 -11   0   5   79.22   29.92
 -11   0   5   32.40   42.78
  11  -1  -5   -6.50    4.71
 -11   1  -5    3.47    3.88
 -11   1  -5    4.47    4.56
  11  -1  -5    3.24    7.25
  11  -1   5    0.45    4.80
  11  -1   5    4.58    7.15
 -11   1   5    4.48    3.61
  11  -2  -5   14.51   14.93
 -11   2  -5   19.28   11.57
 -11   2  -5   17.51   11.12
  11  -2  -5   33.12   11.84
  11  -2   5   40.50   12.01
 -11   2   5   22.84   11.60
  11  -2   5   36.77   14.34
 -11   3  -5   17.26    7.09
  11  -3  -5    0.64   10.68
 -11   3  -5    6.08    6.75
  11  -3  -5   26.15    7.70
  11  -3   5   11.36    7.43
  11  -3   5   18.32   10.12
 -11   3   5   14.72    6.69
 -11   4  -5   -0.72    5.22
 -11   4  -5    1.52    5.61
  11  -4   5  -21.64    9.98
  11  -4   5    2.74    4.99
 -11   5  -5    9.27    4.78
  11  -5   5  -14.09   10.56
  11  -5   5    1.41    5.34
 -11   6  -5    0.85    4.54
  11  -6   5   10.50    5.87
  11  -6   5    6.02    8.84
 -11   7  -5    4.60    4.50
  11  -7   5   -1.96    5.30
  12   7  -5    2.69    8.37
  12   7  -5    9.92    9.52
  12   6  -5    2.53    8.35
  12   6  -5    7.35    6.89
 -12  -6   5    1.94    3.79
  12   5  -5   -5.78    5.46
  12   5  -5   -2.98    5.51
  12   5  -5    6.23    4.75
  12   5  -5    5.24    8.19
 -12  -5   5    1.01    4.67
 -12  -5   5    0.92    3.44
 -12  -5   5   -3.25    6.26
  12   4  -5    5.20    6.18
 -12  -4  -5    6.47    4.45
  12   4  -5    5.31    8.68
 -12  -4   5    6.93    5.20
  12   4   5   10.62    6.84
  12   4   5    5.62    6.82
 -12  -4   5    1.65    6.88
 -12  -4   5    3.51    4.72
  12   3  -5   11.19    4.99
  12   3  -5    7.20    8.33
 -12  -3  -5   -3.14    3.69
  12   3   5    8.54    6.18
 -12  -3   5   -0.42    3.88
  12   3   5   -0.84    6.44
  12   2  -5    5.43    4.73
  12   2  -5   -0.50    8.39
 -12  -2  -5   -1.54    4.16
 -12  -2   5    1.20    3.82
  12   2   5   -7.71    5.47
  12   2   5   -3.97    6.97
 -12  -2   5   -5.34    4.60
 -12  -1  -5   14.13    8.73
  12   1  -5   15.62    9.24
  12   1  -5   19.12   12.18
 -12  -1   5   22.92    8.81
 -12  -1   5   37.79    8.65
  12   1   5   13.11   10.00
  12   0  -5  -12.21    9.08
 -12   0  -5   -9.15    5.61
  12   0  -5   -8.16    5.62
 -12   0   5   -3.27    4.11
 -12   0   5   -0.92    4.70
  12  -1  -5   34.05    8.18
 -12   1  -5   -3.91    8.78
 -12   1  -5   12.96    8.65
  12  -1  -5    9.51   11.53
  12  -1   5   -2.67   13.51
 -12   1   5   32.04    8.10
  12  -1   5    1.01    9.14
 -12   1   5    7.80    7.51
  12  -2  -5    3.15    5.79
 -12   2  -5   -1.00    4.80
  12  -2  -5   -1.27    8.12
 -12   2  -5   -2.18    5.04
 -12   2   5    3.92    4.31
  12  -2   5   -1.54    5.53
  12  -2   5  -14.11   10.36
  12  -3  -5    8.26    9.19
 -12   3  -5    5.28    5.48
 -12   3  -5    3.05    5.50
  12  -3  -5   14.13    6.24
  12  -3   5    7.18    9.32
  12  -3   5    3.02    6.04
 -12   3   5  -11.01    4.46
 -12   4  -5    6.42    6.36
 -12   4  -5    2.79    6.80
  12  -4  -5    4.90    7.43
  12  -4   5   17.50    7.06
  12  -4   5   32.68   10.87
 -12   5  -5    5.13    5.37
  12  -5   5    2.57    6.01
  12  -5   5   14.06    9.33
  12  -6   5   -6.82    5.85
  13   7  -5    1.17    9.71
  13   6  -5   11.41   10.05
 -13  -6   5    2.13    4.87
  13   5  -5    3.78    9.16
  13   5  -5   -3.87    5.63
 -13  -5   5   -0.51    3.97
  13   4  -5    1.65    9.24
  13   4  -5    6.86    5.84
 -13  -4   5   -0.49    4.43
  13   3  -5    4.52    9.75
  13   3  -5   -4.69    5.49
 -13  -3   5    4.73    4.77
 -13  -3   5   -2.85    4.19
  13   2  -5   10.18    8.71
  13   2  -5   15.49   12.37
 -13  -2  -5    0.57    7.87
 -13  -2   5   22.12    7.87
  13   2   5   18.23    9.36
 -13  -2   5   19.57    7.55
  13   1  -5    2.39    9.25
  13   1  -5   -3.02    5.00
 -13  -1  -5   -5.64    4.49
 -13  -1   5   -1.40    4.56
 -13  -1   5    5.63    4.58
  13   1   5   -8.83    6.59
 -13   0  -5   40.52   12.95
  13   0  -5   24.69   17.84
  13   0  -5    6.61   13.44
 -13   0   5   34.33   13.32
  13   0   5   36.53   14.30
 -13   0   5   30.26   12.76
  13  -1  -5   -2.62   10.48
 -13   1  -5   -5.48    4.95
  13  -1  -5   -8.20    6.13
  13  -1   5    8.39    6.25
 -13   1   5   -4.59    5.46
 -13   1   5  -15.74    5.10
  13  -2  -5    7.48    9.76
 -13   2  -5   26.29    9.11
  13  -2  -5   17.96   12.94
  13  -2   5   22.32    9.90
 -13   2   5   18.94    9.20
  13  -3  -5   20.10    9.71
  13  -3  -5   -9.33    7.51
 -13   3   5   12.94    5.20
 -13   5  -5   -0.95    5.93
  13  -5   5  -14.64   11.26
 -13   6  -5    1.02    6.27
  13  -6   5   18.73   11.28
  13  -6   5   10.83    7.26
 -13   7  -5    2.15    5.29
  13  -7   5   -0.58    6.34
 -14  -6   5   -1.17    4.81
  14   5  -5   -0.70    8.25
  14   5  -5   48.21   11.63
 -14  -5   5    1.68    5.91
 -14  -4  -5   -3.90    4.61
  14   4  -5  -11.90   11.71
  14   4  -5    8.17    6.45
  14   4   5   -4.85    9.10
 -14  -4   5   -4.34    5.08
  14   4   5   13.16    7.55
  14   3  -5    3.84   10.32
  14   3  -5   -5.80    5.91
 -14  -3  -5    3.83    4.84
  14   3   5  -18.31    9.48
 -14  -3   5   -1.60    4.55
  14   3   5   -2.33    7.49
 -14  -3   5    9.13    5.12
  14   2  -5   -9.07   10.63
 -14  -2  -5    6.95    5.11
  14   2  -5  -12.58    5.87
 -14  -2   5    4.53    4.78
  14   2   5    7.87    6.16
  14   2   5    1.67    9.19
 -14  -2   5    0.52    4.70
  14   1  -5    7.91   10.69
 -14  -1  -5   34.68   10.25
  14   1  -5   29.35   14.78
  14   1   5   31.39   11.49
  14   1   5    5.38   13.73
 -14  -1   5   29.08   10.13
 -14  -1   5    6.46    9.87
 -14   0  -5   20.04    7.91
  14   0  -5    7.70    9.00
  14   0   5   39.34    9.53
 -14   0   5   -7.46    8.09
 -14   1  -5   19.04   11.01
  14  -1   5   30.68   12.34
 -14   2  -5   -4.68    6.71
 -14   2  -5   -3.11    5.75
  14  -2   5   -0.63    6.53
  14  -2   5    8.40   10.92
 -14   3  -5    2.88    6.32
  14  -3  -5   -6.45   10.30
 -14   3  -5   -5.19    6.12
 -14   3   5   14.12    5.64
  14  -3   5    8.80   11.63
  14  -3   5    0.64    6.99
 -14   4  -5   -2.03    6.25
  14  -4  -5  -20.93    8.56
 -14   4  -5   -5.01    6.12
 -14   4   5   -4.29    5.51
  14  -4   5   -9.30    6.51
  14  -4   5   -2.31   12.34
 -14   5  -5   -3.15    6.18
 -14   5  -5   -0.70    6.65
  14  -5   5   -0.63    6.77
  14  -5   5    0.80   12.01
  14  -6   5   22.93    9.51
  14  -6   5   16.11   13.10
 -14   7  -5    1.17    6.20
  14  -7   5  -14.49    7.41
  15   6  -5   -0.81    7.47
  15   6  -5    7.60   13.05
 -15  -6   5    8.27    4.65
  15   5  -5    5.82   12.46
  15   5  -5   -2.27    6.49
 -15  -4  -5    7.13    5.17
  15   4  -5    4.24   12.36
  15   4   5    1.78    7.58
  15   4   5   19.56   10.06
 -15  -4   5   -6.15    6.99
 -15  -3  -5    2.11    5.26
  15   3  -5   -5.07   12.28
  15   3   5    0.62   10.21
 -15  -3   5   17.10    6.56
  15   3   5   -0.85    8.42
  15   2  -5    3.64   12.11
 -15  -2  -5   -1.40    5.88
  15   2   5    2.36    7.37
  15   2   5   -8.52   10.64
 -15  -2   5   -7.81    6.00
 -15  -1  -5   -5.63    5.98
  15   1  -5  -22.31   11.80
  15   1   5   17.41   11.40
  15   1   5    0.77    7.71
 -15  -1   5    5.29    5.53
  15   0  -5   14.63    8.22
 -15   0  -5    1.41    7.21
  15   0  -5    3.80   12.76
 -15   0   5   25.63    7.11
  15   0   5   -3.57   12.06
 -15   0   5   10.13    7.24
  15   0   5    2.91    8.80
  15  -1  -5    0.67    7.53
 -15   1  -5    2.75    6.15
  15  -1  -5   17.44   12.14
 -15   1   5   -6.99    6.74
  15  -1   5   -8.67    7.67
 -15   1   5   -0.97    5.88
 -15   2  -5   -3.14    7.29
  15  -2  -5   -2.86    7.98
 -15   2  -5    0.70    6.49
  15  -2  -5    6.59   11.63
  15  -2   5   -0.70    7.95
 -15   2   5   -8.46    7.27
 -15   2   5    3.12    5.52
 -15   3  -5    7.52    7.46
  15  -3  -5   -3.50   11.54
 -15   3  -5    5.72    7.25
  15  -3  -5    5.17    8.37
  15  -3   5    7.28   13.05
  15  -3   5   19.08    8.53
 -15   3   5   -1.10    5.69
 -15   4  -5   -1.12    6.74
  15  -4  -5   -2.35    8.78
 -15   4  -5    0.74    6.98
 -15   4   5   -4.66    5.79
  15  -4   5  -21.19   12.33
  15  -4   5    0.68    7.26
 -15   5  -5    7.63    7.48
 -15   5  -5    7.02    7.17
  15  -5   5   -7.02   13.36
  15  -5   5   15.09    7.95
 -15   6  -5   -7.78    7.69
 -15   6  -5   -1.23    6.22
  15  -6   5   -2.77   11.94
  15  -6   5    4.83    7.65
 -15   7  -5    1.29    7.25
  15  -7   5   18.42    8.30
  15  -7   5   -0.97   13.33
 -16  -6   5    4.16    5.35
  16   5  -5  -10.71   15.10
  16   5  -5    0.83    7.74
  16   5   5   -2.91   12.39
 -16  -5   5   -3.38    5.04
 -16  -4  -5   -4.70    5.67
  16   4  -5    1.53    7.55
  16   4  -5    5.78   13.88
 -16  -4   5    0.98    7.38
  16   4   5   -6.75    9.65
  16   4   5    5.64   11.74
 -16  -4   5   12.05    5.67
  16   3  -5   -0.75    7.64
  16   3  -5   13.09   13.99
 -16  -3  -5    4.67    5.79
 -16  -3   5   -4.70    6.05
  16   3   5    0.92    9.23
  16   3   5   -4.87   11.19
 -16  -3   5  -12.46    7.07
 -16  -2  -5    0.78    6.84
  16   2  -5   -0.72    7.48
  16   2  -5   -2.48   13.16
  16   2   5    3.45    8.52
  16   2   5  -27.17   12.10
 -16  -2   5   -1.95    6.52
 -16  -2   5    8.54    6.39
 -16  -1  -5    5.50    6.56
 -16  -1  -5   -1.12    7.58
  16   1  -5   -9.63    7.85
  16   1  -5   -7.45   12.89
 -16  -1   5    6.82    6.78
 -16  -1   5   -0.99    6.32
  16   1   5    7.67    8.88
  16   1   5    1.50   12.03
  16   0  -5    5.89   12.48
 -16   0  -5    4.74    7.08
  16   0  -5   -3.72    8.86
 -16   0  -5    3.35    7.72
 -16   0   5    5.01    7.22
  16   0   5   11.95   12.61
 -16   0   5    1.03    6.46
  16   0   5    0.81    9.36
 -16   1  -5    2.31    7.53
  16  -1  -5    1.74   14.00
  16  -1  -5    4.67    9.14
 -16   1   5   15.53    7.72
  16  -1   5    3.21    8.81
 -16   1   5    1.07    7.02
  16  -2  -5  -20.70   12.21
 -16   2  -5   -6.26    7.76
  16  -2  -5  -13.38    9.51
 -16   2   5    2.29    6.30
 -16   2   5    8.48    8.81
  16  -2   5  -26.08    8.94
 -16   3  -5   15.01    7.67
  16  -3  -5    0.83    9.28
 -16   3  -5    6.00    7.42
  16  -3  -5   -5.70   12.72
  16  -3   5   -8.93   13.01
 -16   3   5   -8.43    6.22
 -16   3   5    0.91    8.91
  16  -3   5    8.56    8.69
  16  -4  -5    7.65    9.85
 -16   4  -5   -2.44    8.12
 -16   4  -5   11.25    8.67
  16  -4   5   28.79    9.04
  16  -4   5   -0.93   13.90
 -16   4   5   -1.27    6.88
 -16   5  -5   21.55    8.39
 -16   5  -5    1.30    7.68
  16  -5   5  -17.29   14.60
  16  -5   5    0.75    8.04
 -16   6  -5    1.37    7.47
 -16   6  -5   -0.85    8.04
  16  -6   5  -22.62    8.85
  16  -6   5    8.06   13.62
 -16   7  -5    2.83    7.33
 -16   7  -5   18.97    9.03
  16  -7   5  -12.13    8.76
  16  -7   5    8.44   13.89
  17   5  -5    1.92   16.29
  17   5  -5    8.12    8.81
  17   5   5   22.76   14.68
 -17  -5   5   -4.47    6.28
 -17  -5   5    3.43    8.55
  17   4  -5    7.60    8.41
  17   4  -5   -1.87   15.65
 -17  -4  -5   -2.59    5.83
 -17  -4   5    3.30    7.53
  17   4   5    4.19    9.48
 -17  -4   5   -6.69    5.85
  17   4   5    9.46   13.67
  17   3  -5   -9.25    9.35
 -17  -3  -5    2.58    6.58
  17   3  -5  -45.99   18.55
 -17  -3   5    3.30    8.40
 -17  -3   5   -7.54    7.11
  17   3   5  -14.74   13.38
  17   3   5   11.14    9.67
  17   2  -5   -1.62   10.81
 -17  -2  -5    0.87    7.11
  17   2  -5  -12.91   18.65
  17   2   5    0.95    9.28
 -17  -2   5   -1.09    7.75
 -17  -2   5   -4.62    8.69
  17   2   5   31.28   14.11
 -17  -1  -5   -1.24   14.23
  17   1  -5   42.22   15.36
 -17  -1  -5    2.63   13.63
 -17  -1   5   42.98   13.53
  17   1   5   10.37   19.76
  17   1   5   28.28   15.88
 -17  -1   5   19.88   13.70
  17   0  -5   53.65   18.74
  17   0  -5   -8.28   12.19
 -17   0  -5    9.94   11.84
 -17   0  -5   21.22   10.93
  17   0   5   14.35   12.67
  17   0   5    2.67   17.53
 -17   0   5   22.87   11.02
 -17   0   5   29.32   10.88
  17  -1  -5   54.64   21.27
  17  -1  -5   -1.73   14.86
 -17   1  -5   19.78   13.72
 -17   1   5   13.09   13.57
  17  -1   5   55.07   16.54
 -17   1   5   -6.03   13.65
  17  -2  -5    3.48    9.92
  17  -2  -5   -1.97   13.80
 -17   2  -5    6.97    8.27
  17  -2   5  -23.12    9.65
 -17   2   5   -2.52    7.90
 -17   2   5    5.57    9.85
 -17   3  -5   -1.36    8.47
  17  -3  -5    9.30   13.68
  17  -3  -5   -9.10   11.06
 -17   3  -5    8.00    8.26
  17  -3   5   -0.86    9.58
 -17   3   5   12.04    9.67
 -17   3   5    1.32    6.55
  17  -4  -5   -7.41   10.65
 -17   4  -5   11.61    9.13
 -17   4  -5    8.38    8.79
 -17   4   5   -4.15    7.22
  17  -4   5   -0.86    9.67
 -17   4   5  -20.32   11.92
  17  -4   5  -34.80   15.55
 -17   5  -5   11.83   10.01
 -17   5  -5   -2.90   10.13
  17  -5   5   36.16   10.84
  17  -5   5   -3.16   17.03
 -17   6  -5   -1.51    7.99
 -17   6  -5   13.96    9.64
  17  -6   5    6.58    9.20
  17  -6   5    1.10   14.19
 -17   7  -5    0.94   11.36
 -17   7  -5   -4.69   11.08
  17  -7   5  -50.53   11.73
 -18  -5   5   -5.75    6.26
  18   5   5   18.18   15.00
 -18  -5   5   -2.55    8.71
  18   4  -5    4.21   17.31
 -18  -4  -5    3.81    6.56
  18   4  -5    0.93    9.00
 -18  -4   5  -11.08    8.54
  18   4   5    4.65   15.41
  18   4   5   -6.87    9.51
 -18  -4   5    7.44    6.95
  18   3  -5   11.26    9.66
  18   3  -5  -27.13   17.71
 -18  -3  -5   16.22    7.40
  18   3   5   32.14   16.04
 -18  -3   5   -5.91    8.44
  18   3   5    4.45    9.84
 -18  -3   5    4.92    8.32
 -18  -2  -5   -1.39    9.71
 -18  -2  -5    7.71    8.33
  18   2  -5    4.56    9.96
  18   2  -5   -4.11   17.05
 -18  -2   5    9.81    8.86
  18   2   5  -14.74   16.07
 -18  -2   5   26.88    8.35
  18   2   5   -7.35   11.34
 -18  -1  -5    1.38    9.73
 -18  -1  -5   -9.77    8.67
  18   1  -5   -5.56    9.57
  18   1  -5   32.80   16.80
 -18  -1   5    1.23    7.74
 -18  -1   5    4.33    7.90
  18   1   5  -12.54   16.14
  18   1   5   -7.30    9.79
 -18   0  -5    0.99    8.67
  18   0  -5   -2.76   10.36
  18   0  -5    4.17   15.89
 -18   0  -5   -9.68   10.67
  18   0   5  -15.86   16.62
 -18   0   5   10.93    8.99
  18   0   5    7.27   10.22
 -18   0   5   -1.28    8.85
  18  -1  -5   34.82   15.84
 -18   1  -5   -4.29   10.36
 -18   1  -5    4.81    8.67
  18  -1  -5   -9.66   10.13
 -18   1   5   -1.32    8.59
 -18   1   5  -12.43    9.78
  18  -1   5   -3.95   10.04
  18  -1   5  -25.70   15.60
 -18   2  -5   17.47    9.47
  18  -2  -5   31.33   15.90
  18  -2  -5   -6.01   12.73
  18  -2   5    2.94   11.28
 -18   2   5   20.53   10.95
 -18   2   5    5.56    8.51
 -18   3  -5    9.84    9.14
  18  -3  -5  -11.28   15.25
  18  -3  -5   -6.01   10.95
  18  -3   5  -12.19   10.94
 -18   3   5  -13.26   10.76
 -18   3   5   -4.34    7.07
  18  -4  -5    2.09   11.59
 -18   4  -5   13.76    9.94
 -18   4  -5    4.68    9.62
 -18   4   5    3.51   11.89
 -18   4   5   -3.02    8.29
  18  -4   5   -6.61    9.78
  18  -4   5   44.96   17.44
 -18   5  -5   21.24   10.20
 -18   5  -5   -4.00   10.55
  18  -5   5    1.88   10.40
  18  -5   5  -26.54   18.20
 -18   6  -5   -1.01   10.92
 -18   6  -5   -1.68    9.75
  18  -6   5  -36.02   13.00
 -18   7  -5   -9.28   10.32
 -18   7  -5   -5.19    9.47
  18  -7   5  -11.75   11.39
  19   5   5   37.52   21.89
  19   4  -5  -15.58   12.04
 -19  -4  -5   -1.05    7.95
  19   4   5   28.18   17.45
  19   4   5  -10.03   10.51
 -19  -4   5   19.32    7.60
 -19  -4   5   -2.82    9.66
  19   3  -5   40.88   21.77
 -19  -3  -5  -18.01    9.65
  19   3  -5   -1.05   11.71
  19   3   5   -9.81   12.74
  19   3   5  -26.87   17.62
 -19  -3   5  -44.19   10.20
 -19  -3   5   -5.67    9.61
  19   2  -5   24.07   34.10
 -19  -2  -5   -1.54   25.24
  19   2  -5   43.82   26.84
 -19  -2  -5   63.26   24.22
  19   2   5  166.15   29.42
 -19  -2   5   13.75   24.06
 -19  -2   5   59.61   23.86
 -19  -1  -5    6.54   11.22
  19   1  -5  -53.58   22.09
 -19  -1  -5   27.60   11.49
  19   1  -5  -11.48   12.99
  19   1   5  -20.78   14.80
 -19  -1   5   -4.88   10.27
 -19  -1   5   -4.19   10.10
 -19   0  -5   -8.85   13.42
  19   0  -5   -6.46   12.78
 -19   0  -5    1.58   12.81
  19   0  -5  -42.71   19.98
  19   0   5  -41.45   18.09
 -19   0   5  -11.25   11.91
 -19   0   5    7.12   10.51
  19  -1  -5  -43.03   19.71
 -19   1  -5    6.71   12.35
 -19   1  -5   49.59   14.06
  19  -1  -5   15.04   12.48
  19  -1   5   25.23   15.52
 -19   1   5    3.25   11.25
 -19   1   5   10.28    9.65
  19  -2  -5   -2.40   29.34
 -19   2  -5   74.88   21.80
  19  -2  -5    1.12   22.22
 -19   2   5   -2.27   20.64
 -19   2   5   -4.61   20.29
  19  -2   5  118.28   24.54
 -19   3  -5   -8.73   11.57
  19  -3  -5  -13.58   17.23
  19  -3  -5    4.43   13.46
 -19   3   5  -13.28   12.92
 -19   3   5   -6.37    8.72
  19  -3   5   -5.42   13.77
 -19   4  -5    6.63   11.01
 -19   4  -5   -5.23   10.96
  19  -4  -5   -6.88   11.77
 -19   4   5    6.44   13.74
 -19   4   5    4.96    8.74
  19  -4   5    4.15   12.12
 -19   5  -5   -1.10   11.45
 -19   5  -5    3.64   11.30
  19  -5   5    6.21   12.52
  19  -5   5   16.47   19.09
 -19   6  -5   20.57   11.00
 -19   6  -5   16.67   11.54
  19  -6   5   -6.17   12.21
  19  -6   5    1.32   18.15
 -19   7  -5   -1.92   11.17
 -19   7  -5    8.97   12.51
  19  -7   5   19.79   11.97
 -20  -4  -5   -9.34    8.77
  20   4   5    1.18   19.16
 -20  -4   5    1.58   10.86
  20   4   5    1.38   11.73
  20   3  -5   14.04   11.75
 -20  -3  -5   -1.74   13.78
  20   3  -5   32.62   21.74
 -20  -3  -5  -12.97    8.89
 -20  -3   5    6.22   10.34
  20   3   5    9.59   20.14
 -20  -3   5   -8.47   10.88
  20   3   5   14.93   12.58
  20   2  -5   19.20   21.99
 -20  -2  -5  -42.91   13.42
 -20  -2  -5    1.20    9.45
  20   2  -5  -10.78   12.83
 -20  -2   5   -1.10   10.19
  20   2   5    4.03   12.99
  20   2   5   19.15   19.84
 -20  -2   5    6.16    9.98
 -20  -1  -5   13.39   10.57
  20   1  -5   -9.39   13.44
  20   1  -5   23.06   20.47
 -20  -1  -5   10.26   12.56
 -20  -1   5   10.95   10.34
  20   1   5    2.56   13.00
  20   1   5   18.15   20.39
 -20  -1   5   14.88   11.23
 -20   0  -5   -1.76   11.99
  20   0  -5   -7.67   19.17
 -20   0  -5   13.63   10.98
  20   0  -5  -10.84   13.00
  20   0   5   -6.39   13.14
  20   0   5  -34.69   19.26
 -20   0   5   -1.59    9.26
 -20   0   5   -1.15   10.93
  20  -1  -5    2.57   19.02
 -20   1  -5    5.01   11.09
  20  -1  -5   -2.38   13.66
 -20   1  -5   -3.58   11.82
  20  -1   5   -1.22   12.60
 -20   1   5  -10.90   11.51
  20  -1   5   -5.03   19.87
 -20   1   5    1.66    9.22
 -20   2  -5   -9.21   11.62
  20  -2  -5   17.40   14.04
 -20   2  -5    9.70   11.53
  20  -2  -5    5.28   18.24
 -20   2   5   -6.30   12.58
 -20   2   5    8.51   10.13
  20  -2   5   12.83   20.42
  20  -2   5  -16.92   14.99
 -20   3  -5   12.19   12.29
  20  -3  -5    6.39   14.46
  20  -3  -5   17.61   19.97
 -20   3   5    2.67   13.02
 -20   3   5    3.51    9.86
  20  -3   5  -16.74   13.52
  20  -4  -5    2.53   14.26
 -20   4  -5  -29.37   13.62
 -20   4   5    5.62   14.78
 -20   4   5    1.82   10.38
  20  -4   5    4.55   13.63
 -21  -3   5   -6.98   13.24
 -21  -3   5    8.31   10.22
  21   2  -5   11.44   22.75
  21   2  -5   -6.72   14.34
 -21  -2   5  -17.49   13.02
 -21  -2   5    6.20   12.45
  21   1  -5  -12.84   21.75
  21   1  -5   14.55   14.36
 -21  -1   5    1.75   11.22
 -21  -1   5   14.22   12.52
  21   0  -5    5.67   21.17
  21   0  -5   -1.35   14.26
 -21   0   5   -6.49   12.78
 -21   0   5  -10.70   10.44
  21  -1  -5  -27.90   14.88
  21  -1  -5  -22.75   20.81
 -21   1   5  -12.23   12.60
 -21   2   5  -17.15   13.48
   0   0  -6    0.21    1.40
   0   0  -6    0.32    1.02
   0   0   6   -0.28    1.47
  -1   0  -6    0.15    0.92
   0   1  -6   -0.20    0.75
   0   1  -6   -0.25    1.17
   1   0  -6   -0.20    1.74
   1   0  -6   -0.34    1.26
   0  -1   6    0.08    1.17
  -1   0   6   -0.13    1.85
  -1   1  -6    1.87    2.70
  -1   1  -6    4.65    3.28
  -1   1  -6    8.73    2.84
   1   1  -6    9.66    3.29
   1   1  -6    8.06    2.78
  -1  -1   6    6.91    3.28
   1  -1   6    4.52    3.32
   1  -1   6    3.51    3.25
   1  -1   6    8.88    3.27
  -1   2  -6    1.56    1.14
  -1   2  -6    4.16    1.03
  -1   2  -6    1.47    1.02
   2   1  -6    1.70    1.60
  -1   2  -6    0.85    1.54
  -2  -1   6    0.50    1.80
   1  -2   6    1.53    1.55
   1  -2   6    1.02    1.64
   1  -2   6    3.34    1.22
   0   2  -6   26.01   11.26
   0   2  -6   31.98    9.66
   2   0  -6   24.77   12.47
   0  -2   6   24.68   11.28
   2   0   6   11.51   12.20
  -2   0   6   22.05   12.53
  -2   1  -6    1.71    1.22
   1   2  -6    2.99    1.23
   1   2  -6    1.21    1.66
  -2   1  -6    1.75    1.72
  -2   1  -6    2.27    1.11
   2  -1   6    2.24    1.70
  -1  -2   6    2.06    1.70
   2  -1   6    1.94    1.53
   2  -1   6    2.48    1.51
   2   2  -6  138.04   74.29
  -2   2  -6  205.08   64.81
  -2   2  -6  149.62   65.47
  -2   2  -6  162.73   75.51
  -2   2  -6  174.13   65.46
   2  -2   6  117.24   79.29
   2  -2   6  126.84   61.64
   2  -2   6  149.18   74.82
  -2  -2   6  153.63   75.42
   2  -2   6  163.73   71.31
  -2   3  -6   14.36    7.35
  -2   3  -6   19.43    8.47
   3   2  -6   18.26    8.08
   3   2  -6   14.73    6.86
   3   2  -6   15.94    8.49
   3   2  -6   20.30    9.16
  -2   3  -6   24.17    7.32
   2  -3   6   17.00    8.29
   2  -3   6   16.21    9.47
   2  -3   6   14.47    7.06
  -3  -2   6   14.09    8.26
  -3  -2   6   18.72    7.24
  -1   3  -6    5.05    2.39
   3   1  -6    4.96    2.28
   3   1  -6    4.94    3.31
   3   1  -6    3.72    2.89
   3   1  -6    6.61    2.37
  -1   3  -6    6.14    2.71
  -3  -1   6    4.62    2.36
   1  -3   6    4.86    2.24
   1  -3   6    4.54    2.60
  -3  -1   6    2.53    3.00
   3   0  -6    0.56    1.40
   3   0  -6    0.20    1.83
  -3   0  -6    0.14    0.78
   0   3  -6    0.54    1.19
   0   3  -6    0.12    1.47
   3   0   6    0.77    1.76
   3   0   6   -0.33    1.29
   0  -3   6   -0.28    0.98
  -3   0   6    0.14    1.84
  -3   1  -6    5.44    2.25
  -3   1  -6    4.83    2.35
  -3   1  -6    5.28    3.19
   1   3  -6    5.17    2.48
   1   3  -6    6.09    2.88
  -1  -3   6    4.75    2.28
   3  -1   6    4.90    2.91
   3  -1   6    5.22    2.69
   3  -1   6    3.94    3.16
   2   3  -6   16.36    8.01
  -3   2  -6   11.46    7.91
  -3   2  -6   17.42    6.89
  -3   2  -6   17.81    6.85
   3  -2   6   17.61    6.41
   3  -2   6   14.28    8.41
   3  -2   6   13.04    7.71
   3  -2   6   17.58    7.48
   3   3  -6   -0.66    1.93
  -3   3  -6    0.13    1.36
   3   3  -6    1.04    1.21
  -3   3  -6    0.43    1.25
  -3   3  -6    0.09    1.46
   3  -3   6   -0.19    2.83
   3  -3   6    0.14    1.26
   3  -3   6    0.28    1.66
  -3   4  -6    9.77    3.03
   4   3  -6    9.65    3.39
   4   3  -6    3.99    3.85
  -4  -3   6    0.42    2.88
   3  -4   6    3.92    3.33
   4   2  -6   55.85   27.32
   4   2  -6   51.61   31.01
   4   2  -6   64.17   28.01
   2  -4   6   52.89   25.27
  -4  -2   6   69.20   24.41
  -4  -2   6   55.47   28.19
   4   1  -6   11.22    6.02
   4   1  -6   15.09    6.91
  -1   4  -6   13.85    6.70
   4   1  -6   12.29    8.69
  -1   4  -6   14.58    5.93
  -4  -1  -6   -0.19    5.76
   4   1  -6   12.96    5.47
  -4  -1   6   19.96    6.27
   4   1   6    8.73    7.50
   1  -4   6   15.59    5.88
  -4  -1   6   11.26    7.18
   4   1   6   11.61    7.07
   4   0  -6    1.30    2.52
   0   4  -6    1.52    1.76
   0   4  -6    1.77    1.85
   4   0  -6    1.70    1.86
  -4   0  -6    1.03    1.26
  -4   0   6   -0.30    2.54
   0  -4   6    0.20    1.64
   4   0   6    1.07    1.94
  -4   0   6    2.09    1.06
   4   0   6    0.66    1.80
   1   4  -6   18.19    7.69
  -4   1  -6   18.75    7.15
  -4   1  -6   20.94    6.83
   4  -1  -6   11.80    7.89
   4  -1   6   15.72    8.09
   4  -1   6   19.60    7.55
  -4   2  -6   60.31   24.64
  -4   2  -6   58.31   25.29
  -4   2  -6   59.00   28.44
   4  -2   6   51.92   23.90
   4  -2   6   48.29   27.48
   4  -2   6   59.72   29.46
   4  -2   6   74.44   26.57
  -4   3  -6    8.04    3.44
   3   4  -6   10.51    3.78
  -4   3  -6   11.69    3.77
  -3  -4   6    4.06    3.50
   4  -3   6    7.00    4.87
   4  -3   6    8.39    3.83
   4   4  -6    9.94    3.92
  -4   4  -6    4.03    3.06
   4   4  -6    4.33    3.70
   4   4  -6    4.49    3.33
   4  -4   6    7.87    3.75
  -4  -4   6    9.39    3.33
   5   4  -6   18.95    9.10
   5   4  -6   20.50   10.07
   5   4  -6   25.76   10.30
  -5  -4   6   17.05    8.75
   5   3  -6   49.28   21.12
   5   3  -6   50.56   25.09
   5   3  -6   60.32   19.11
   5   3  -6   50.01   21.97
  -5  -3   6   30.36   20.78
  -5  -3   6   46.69   18.56
   5   2  -6   14.99    7.26
   5   2  -6   12.45    8.41
  -5  -2   6   16.74    6.36
   5   1  -6   31.46   12.92
   5   1  -6   26.34   10.32
  -5  -1   6   25.83   10.48
   5   0  -6    0.69    2.65
   5   0  -6    1.41    3.07
   5   0  -6   -0.19    2.02
  -5   0   6    0.54    1.46
  -5   0   6   -0.81    2.80
   1   5  -6    6.90    6.56
  -5   1   6   13.09    9.97
  -1  -5   6    4.53    6.59
   2   5  -6   16.74    7.09
   2   5  -6   15.15    7.74
  -2  -5   6   15.65    6.94
   3   5  -6   48.35   20.90
  -5   3  -6   45.71   22.77
   4   5  -6   18.16    9.49
  -5   4  -6   20.75    8.30
   4   5  -6   15.62    8.56
   5  -4   6   16.18   11.04
  -4  -5   6   17.68    8.32
  -5   5  -6    0.46    1.86
   5   5  -6    0.80    3.39
   5   5  -6    1.24    2.48
   5   5  -6    0.30    2.60
   5  -5   6    2.70    2.59
  -5  -5   6   -0.64    2.53
   6   5  -6    0.32    3.00
   6   5  -6    2.87    3.94
  -6  -5   6    1.36    2.92
   6   4  -6   29.98    9.04
   6   4  -6   31.25    9.92
   6   4  -6   18.02   12.02
   6   4  -6   19.77    9.81
  -6  -4   6    1.12    9.38
  -6  -4   6   23.61    8.73
   6   3  -6   14.13    5.22
   6   3  -6    8.29    5.53
   6   3  -6    9.42    5.48
   6   3  -6   11.49    4.56
  -6  -3   6    7.98    4.45
  -6  -3   6   10.12    4.64
   6   2  -6   59.63   19.00
   6   2  -6   49.89   24.89
  -6  -2  -6   -0.80   20.42
   6   2  -6   53.24   21.80
   6   2  -6   39.46   22.37
  -6  -2   6   53.24   19.56
  -6  -2   6   59.11   23.35
  -6  -2   6   72.45   20.20
   6   2   6   33.39   25.13
   6   2   6   45.98   23.46
   6   1  -6    0.95    3.50
  -6  -1  -6   -0.50    1.65
   6   1  -6    1.38    1.96
   6   1   6   -0.32    2.42
  -6  -1   6    1.85    1.47
   6   1   6    1.14    2.32
  -6   0  -6    3.76    2.69
   6   0   6    7.79    3.49
   6   0   6    3.89    3.69
  -6   1  -6   -1.31    1.68
   6  -1   6    0.43    3.14
   6  -1   6   -0.24    2.23
  -6   2  -6   75.16   21.39
  -6   2  -6   39.22   21.12
   6  -2   6   43.44   24.92
   6  -2   6   55.93   22.48
  -6   3  -6    8.13    5.08
  -6   3  -6   11.02    4.74
   6  -3   6   11.40    6.69
   6  -3   6   16.03    5.37
  -6   4  -6   33.08    9.50
   4   6  -6   22.15   10.60
  -4  -6   6   15.51    9.65
   6  -4   6   20.97   10.32
   6  -4   6   35.65   11.75
   5   6  -6    4.90    4.04
   5   6  -6   -0.35    2.90
  -6   5  -6   -0.49    2.54
  -5  -6   6    0.39    3.11
   6  -5   6   -2.06    6.68
   6  -5   6    4.76    3.79
   6   6  -6    1.38    4.58
   6   6  -6    5.21    3.31
  -6  -6   6    3.28    3.26
   6  -6   6    0.59    3.04
   7   6  -6   -4.02    4.76
   7   6  -6    2.39    3.99
   7   6  -6    4.31    3.38
  -7  -6   6    4.76    3.70
   7   5  -6    5.26    3.93
   7   5  -6    2.42    4.15
   7   5  -6    5.05    3.39
  -7  -5   6    3.25    3.58
   7   4  -6    3.64    4.07
   7   4  -6    3.84    3.30
   7   4  -6   -1.03    4.15
  -7  -4   6    5.98    3.04
   7   3  -6   19.20    9.29
   7   3  -6   20.54    8.23
  -7  -3   6   26.55    8.08
  -7  -3   6    9.30    9.81
  -7  -2  -6    1.51    4.35
   7   2  -6    9.51    4.15
   7   2  -6   13.61    5.46
   7   2   6   11.93    5.96
  -7  -2   6   10.57    4.40
  -7  -2   6    6.54    4.26
   7   2   6    8.20    5.27
  -7  -2   6   11.13    5.78
   7   1  -6    7.50    3.91
   7   1  -6    0.67    2.82
   7   1  -6    7.24    5.36
  -7  -1  -6    4.33    3.03
   7   1   6    4.22    3.89
  -7  -1   6   18.37    4.31
  -7  -1   6    4.07    2.95
   7   1   6    2.40    3.65
  -7   0  -6    0.26    2.11
   7   0  -6    2.15    2.22
   7   0  -6    7.09    4.74
   7   0  -6   -2.19    2.68
   7   0   6   -0.69    3.36
   7   0   6   -3.66    2.82
  -7   0   6   -0.37    1.80
   7  -1  -6    5.93    3.53
   7  -1  -6    1.67    3.75
   7  -1  -6    2.20    5.11
  -7   1  -6    4.10    2.70
   7  -1   6    2.50    3.30
  -7   1   6    2.98    2.89
   7  -1   6    3.04    4.27
  -7   2  -6   13.16    4.77
   7  -2  -6   13.86    5.31
  -7   2  -6    6.93    4.62
   7  -2   6    7.56    5.18
   7  -2   6    8.03    6.42
  -7   3  -6   24.79    8.00
  -7   3  -6   18.59    8.37
   7  -3   6   11.45    8.89
   7  -3   6   15.20   10.59
  -7   4  -6   -0.45    3.02
   7  -4   6   -0.38    6.17
   7  -4   6    5.10    3.55
  -7   5  -6    0.53    2.97
   7  -5   6   -0.44    6.07
   7  -5   6    1.58    3.39
  -7   6  -6    3.73    2.68
   7  -6   6    0.33    3.39
   7   7  -6    7.62    6.72
   8   7  -6    2.82    6.27
   8   6  -6   -0.39    4.98
   8   6  -6    0.41    3.67
   8   6  -6    3.75    4.68
  -8  -6   6   -0.46    3.71
   8   5  -6   -0.36    3.46
   8   5  -6   -0.64    4.23
   8   5  -6   -1.55    4.18
  -8  -5   6    1.16    3.51
  -8  -5   6   -1.66    1.71
   8   4  -6    5.87    3.46
   8   4  -6    5.78    3.25
   8   4  -6    1.85    3.65
   8   4  -6   -3.79    4.75
  -8  -4   6   -0.97    3.30
  -8  -4   6    2.13    2.25
  -8  -3  -6    2.13    2.39
   8   3  -6   -0.85    3.21
   8   3  -6    5.92    2.80
   8   3  -6    6.09    3.73
   8   3  -6    3.67    4.63
  -8  -3   6    0.97    2.58
  -8  -3   6    5.18    4.13
  -8  -3   6    1.08    2.93
   8   2  -6    7.71    3.83
   8   2  -6    4.01    6.44
  -8  -2  -6    0.34    4.07
   8   2  -6    4.74    4.39
   8   2  -6    6.51    5.14
   8   2   6    9.42    5.11
  -8  -2   6    3.83    5.56
   8   2   6    7.17    5.50
  -8  -2   6   12.10    3.91
  -8  -2   6   13.98    4.03
  -8  -2   6   10.91    4.10
  -8  -1  -6    0.33    2.77
   8   1  -6   -6.97    3.00
   8   1  -6  -14.57    5.10
   8   1  -6   -6.22    3.51
  -8  -1   6  -13.41    5.11
   8   1   6   -1.96    4.14
  -8  -1   6   -1.83    3.22
   8   1   6    1.29    4.07
  -8  -1   6   -5.84    3.36
   8   0  -6  -10.23    9.06
   8   0  -6   16.08    4.33
   8   0  -6    5.03    5.11
  -8   0  -6   16.81    4.56
   8   0  -6    7.00    6.64
  -8   0   6   -0.63    6.90
  -8   0   6    5.44    4.70
   8   0   6    8.64    5.33
   8   0   6   18.18    6.03
   8  -1  -6   -2.42    3.44
   8  -1  -6   -4.60    3.63
   8  -1  -6   -4.07    6.93
  -8   1  -6   -1.78    3.20
  -8   1   6   -0.97    2.82
   8  -1   6   -2.88    4.39
  -8   1   6   -4.61    4.98
   8  -1   6   -7.73    6.48
  -8   2  -6   11.38    4.83
   8  -2  -6    9.53    5.40
   8  -2  -6   14.29    5.89
  -8   2  -6    8.64    4.70
   8  -2   6   10.27    5.20
  -8   2   6   10.63    4.81
   8  -2   6    4.11    7.14
  -8   3  -6    0.92    2.66
  -8   3  -6    2.70    3.20
   8  -3   6    4.23    3.65
   8  -3   6   -1.50    5.44
  -8   4  -6   -1.01    2.94
   8  -4   6   -2.92    5.75
   8  -4   6    1.01    3.66
  -8   5  -6    1.15    2.73
   8  -5   6   -1.75    3.68
   8  -5   6   -2.35    5.87
  -8   6  -6    1.33    3.41
   8  -6   6   -2.17    7.19
   8  -6   6   -6.19    3.50
   8  -7   6    6.77    4.66
   9   7  -6   38.82   17.95
   9   7  -6   37.38   17.99
   9   6  -6   15.14    6.85
   9   6  -6    1.75    5.60
   9   6  -6   10.53    7.05
  -9  -6   6    3.89    5.64
   9   5  -6   -2.76    4.60
   9   5  -6    1.14    4.13
   9   5  -6    6.86    5.50
   9   5  -6    9.14    5.22
  -9  -5   6    9.54    4.11
  -9  -5   6    2.26    2.97
   9   4  -6   -4.22    3.66
   9   4  -6    3.43    3.56
   9   4  -6   -1.18    5.19
   9   4  -6   -1.36    4.07
  -9  -4   6   -2.09    3.75
  -9  -4   6    4.26    2.57
   9   3  -6   -4.16    3.64
   9   3  -6    1.24    3.56
   9   3  -6    0.53    2.96
  -9  -3  -6   -1.19    2.69
   9   3  -6    5.57    4.96
  -9  -3   6    0.19    4.47
   9   3   6   -7.55    3.97
  -9  -3   6    0.59    3.06
  -9  -3   6    0.54    2.51
   9   2  -6    6.65    3.87
   9   2  -6    9.72    6.73
   9   2  -6    7.19    5.11
   9   2  -6    7.24    4.48
  -9  -2  -6   -0.76    3.96
  -9  -2   6    5.71    5.57
  -9  -2   6   11.86    3.92
  -9  -2   6   10.54    4.06
  -9  -2   6   10.44    4.11
   9   2   6    5.88    5.70
   9   1  -6    4.01    4.03
   9   1  -6   -0.29    3.00
   9   1  -6   -3.70    5.43
  -9  -1  -6   -0.37    2.79
   9   1  -6   -0.38    2.11
   9   1   6    2.95    4.13
  -9  -1   6    0.28    2.86
  -9  -1   6   -0.41    4.44
   9   1   6   -3.47    4.00
  -9  -1   6   -1.26    2.76
   9   0  -6   -0.81    5.66
   9   0  -6    0.32    3.28
   9   0  -6    2.59    2.35
  -9   0  -6    0.34    2.73
   9   0  -6    2.21    4.32
  -9   0   6   -1.42    3.15
   9   0   6    0.96    4.50
   9   0   6    1.17    3.63
  -9   0   6   -2.54    4.40
   9  -1  -6    0.76    2.98
  -9   1  -6   -1.37    2.74
   9  -1  -6    6.88    3.83
   9  -1  -6   -3.62    6.53
  -9   1   6    4.65    4.41
  -9   1   6   -1.07    2.73
   9  -1   6   -0.36    5.77
   9  -1   6   -0.36    4.05
   9  -2  -6   12.47    5.29
   9  -2  -6   12.68    5.34
  -9   2  -6    7.42    4.65
  -9   2  -6    8.06    4.51
   9  -2  -6    6.05    7.09
   9  -2   6    5.90    5.28
   9  -2   6    8.62    7.11
  -9   2   6    1.79    4.72
   9  -3  -6    0.47    4.43
  -9   3  -6    3.43    3.52
  -9   3  -6    1.05    2.97
   9  -3   6   -3.86    6.25
   9  -3   6    4.04    4.09
  -9   4  -6   -1.14    3.10
   9  -4   6    1.87    3.94
   9  -4   6    1.85    6.58
  -9   5  -6    2.52    3.43
   9  -5   6    2.35    4.50
   9  -5   6   -6.12    6.60
  -9   6  -6    9.27    5.55
   9  -6   6   17.82    8.84
   9  -6   6    8.82    6.08
   9  -7   6   19.40   12.56
  10   7  -6    2.43    6.34
  10   7  -6    3.59    7.29
  10   6  -6    8.78    7.17
  10   6  -6   19.25    8.80
  10   6  -6   16.77    8.57
 -10  -6   6    5.68    7.18
  10   5  -6   22.29   10.32
  10   5  -6   22.99    9.46
  10   5  -6   20.98   11.64
  10   5  -6   36.00   11.30
 -10  -5   6    3.66    9.41
 -10  -5   6   17.73    9.50
  10   4  -6    1.48    4.41
  10   4  -6   -0.34    5.88
  10   4  -6   -5.05    3.86
  10   4  -6    2.78    3.74
 -10  -4   6   -0.34    2.69
 -10  -4   6    0.38    3.85
 -10  -4   6   -2.02    5.20
  10   3  -6   22.42   11.87
 -10  -3  -6    0.44   10.47
  10   3  -6   26.37   13.55
  10   3  -6   22.34   11.78
  10   3  -6   29.67   10.60
 -10  -3   6   25.17   10.55
  10   3   6   22.13   13.01
 -10  -3   6   29.03   10.42
 -10  -3   6   24.47   12.78
  10   2  -6    7.98    3.71
  10   2  -6   -0.39    6.53
  10   2  -6    1.05    3.97
 -10  -2  -6    0.85    3.07
  10   2  -6    3.25    2.75
 -10  -2   6    1.82    2.86
 -10  -2   6    0.45    2.93
 -10  -2   6    1.25    4.71
  10   2   6    0.51    4.84
 -10  -2   6   -0.56    2.92
  10   1  -6    4.64    4.18
  10   1  -6    1.68    7.16
 -10  -1  -6    1.66    3.74
  10   1  -6    4.47    3.00
  10   1  -6    3.75    4.80
 -10  -1   6    2.70    5.65
 -10  -1   6    6.13    3.56
 -10  -1   6    4.81    3.49
  10   1   6    6.24    4.89
  10   1   6    6.34    5.49
  10   0  -6    7.11    5.78
  10   0  -6   17.74    4.74
  10   0  -6    6.48    7.37
  10   0  -6   17.24    8.68
 -10   0  -6    7.37    5.35
  10   0   6   13.97    6.32
  10   0   6    5.85    7.18
 -10   0   6   17.01    5.60
 -10   0   6    4.08    5.61
 -10   0   6    2.51    7.97
 -10   1  -6    1.55    3.74
  10  -1  -6    6.15    3.35
  10  -1  -6    2.83    4.54
  10  -1  -6   -2.00    6.78
 -10   1   6   10.66    3.90
  10  -1   6    6.08    6.54
  10  -1   6   -2.86    4.80
  10  -2  -6   -1.36    4.32
  10  -2  -6   -3.45    4.02
  10  -2  -6    5.51    7.06
 -10   2  -6   -1.15    3.33
 -10   2  -6   -1.20    3.70
 -10   2   6   -1.32    3.19
  10  -2   6    0.89    7.02
  10  -2   6    0.42    4.46
 -10   3  -6   34.81   12.85
  10  -3  -6   39.98   13.49
 -10   3  -6   23.17   12.80
  10  -3   6   25.05   15.76
  10  -3   6   34.96   13.39
 -10   4  -6   -0.91    4.11
 -10   4  -6    1.26    3.70
  10  -4   6   -3.07    7.31
  10  -4   6    0.41    4.38
 -10   5  -6   24.94    9.45
  10  -5   6   22.79    9.96
  10  -5   6   19.48   12.51
 -10   6  -6    3.09    6.10
  10  -6   6   23.58    7.14
  10  -6   6    0.61   10.65
 -10   7  -6    1.70    4.81
  10  -7   6    0.45    5.01
  11   7  -6   -3.16    9.39
  11   7  -6   20.70    9.25
  11   6  -6    6.96    7.67
  11   6  -6    8.83    8.15
 -11  -6   6    8.77    6.14
  11   5  -6    3.80    5.28
  11   5  -6    7.55    4.92
  11   5  -6    1.72    4.47
  11   5  -6   -2.47    7.07
 -11  -5   6   -0.82    3.09
 -11  -5   6   -2.37    4.16
  11   4  -6   16.61    9.63
  11   4  -6   13.37   10.10
  11   4  -6   30.46   12.45
  11   4  -6   15.28   11.15
 -11  -4   6    8.88    9.28
 -11  -4   6   16.58   11.11
 -11  -4   6   20.98    9.56
  11   3  -6    6.72    4.12
  11   3  -6    2.03    4.75
 -11  -3  -6   -2.43    3.75
  11   3  -6   -3.26    4.84
  11   3  -6    2.09    7.49
 -11  -3   6    8.95    4.16
 -11  -3   6    6.74    5.88
  11   3   6    7.54    6.14
  11   3   6    8.65    5.83
 -11  -3   6    8.40    3.95
 -11  -3   6    9.66    4.07
  11   2  -6    4.01    7.31
  11   2  -6    0.25    2.93
  11   2  -6    0.76    4.03
  11   2  -6    3.49    4.32
 -11  -2  -6   -1.42    3.83
 -11  -2   6   -0.51    3.10
 -11  -2   6   -0.35    3.20
 -11  -2   6    2.39    3.14
 -11  -2   6    1.37    5.31
  11   2   6    0.56    5.39
  11   1  -6   66.79   22.99
  11   1  -6   56.23   25.31
  11   1  -6   36.87   30.59
  11   1  -6   48.39   31.73
 -11  -1  -6   57.46   24.74
 -11  -1   6   45.68   23.62
 -11  -1   6   79.62   24.95
  11   1   6   81.70   27.35
 -11  -1   6   34.90   35.02
 -11  -1   6   54.55   23.46
 -11   0  -6   -0.44    3.66
  11   0  -6   -2.46    4.38
  11   0  -6    1.10    5.01
  11   0  -6   -0.51    7.18
  11   0  -6    0.63    2.69
 -11   0   6   -2.09    4.16
  11   0   6  -12.18    5.29
  11   0   6    8.27    6.72
 -11   0   6   -5.18    5.65
 -11   0   6   -1.19    3.82
  11  -1  -6   68.77   24.79
  11  -1  -6   67.45   27.18
 -11   1  -6   70.34   26.24
  11  -1  -6   34.01   34.25
  11  -1   6   66.54   31.43
  11  -1   6   81.07   27.98
 -11   1   6   56.96   27.86
  11  -2  -6    2.96    5.28
 -11   2  -6    0.45    4.12
 -11   2  -6    1.31    4.21
  11  -2  -6   -4.20    7.91
 -11   2   6   -1.46    3.47
  11  -2   6   -6.52    8.09
  11  -2   6   -2.34    5.02
 -11   3  -6    6.12    5.17
  11  -3  -6    6.57    6.02
 -11   3  -6    6.18    5.01
  11  -3   6   13.46    8.77
 -11   3   6    3.15    4.33
  11  -3   6   -0.46    5.84
 -11   4  -6   20.20   10.87
 -11   4  -6   22.68   10.79
 -11   5  -6    3.84    4.40
  11  -5   6    0.47    5.11
  11  -5   6    6.09    8.65
 -11   6  -6    2.52    5.53
  11  -6   6   11.57    6.36
  11  -6   6    9.25    9.50
 -11   7  -6   11.86    6.06
  11  -7   6    8.28    6.67
  12   8  -6  -11.88   11.23
  12   7  -6    7.10    8.97
  12   6  -6    1.29    6.57
  12   6  -6    5.98    8.52
 -12  -6   6   -2.33    5.28
 -12  -6   6   -0.96    3.76
  12   5  -6    2.94    6.08
  12   5  -6   -2.91    5.26
  12   5  -6    2.26    4.64
  12   5  -6    5.16    8.09
 -12  -5   6    6.06    4.70
 -12  -5   6    0.91    3.45
 -12  -5   6   -2.79    6.77
 -12  -4  -6   -3.31    5.36
  12   4  -6   14.83    9.29
  12   4  -6   10.18    5.85
  12   4  -6    7.13    7.00
  12   4  -6   17.33    6.53
 -12  -4   6   12.98    6.13
 -12  -4   6    5.32    7.77
  12   4   6   13.47    7.54
 -12  -4   6    6.04    5.58
  12   3  -6   15.09    5.42
 -12  -3  -6   -1.07    3.77
  12   3  -6    5.42    8.59
 -12  -3   6    0.24    5.74
  12   3   6    0.84    6.44
 -12  -3   6    5.20    4.41
 -12  -3   6    7.86    4.24
 -12  -3   6    2.97    4.37
  12   3   6    2.04    6.74
  12   2  -6   25.85   18.62
 -12  -2  -6   17.87   14.48
  12   2  -6   51.25   15.22
 -12  -2   6   28.98   14.37
 -12  -2   6   43.30   13.97
  12   2   6   29.35   16.37
 -12  -1  -6    4.14    4.62
  12   1  -6    3.12    5.10
  12   1  -6    3.73    8.25
 -12  -1   6    2.09    4.19
  12   1   6    5.86    6.07
 -12  -1   6    0.62    4.03
  12   0  -6   22.98   31.60
 -12   0  -6   65.59   24.40
  12   0  -6   58.50   25.11
  12   0   6   67.23   29.20
 -12   0   6   48.41   25.11
  12   0   6   61.97   26.33
 -12   0   6   69.83   23.95
  12  -1  -6   -4.82    7.86
  12  -1  -6    4.44    5.60
 -12   1  -6    0.73    4.79
 -12   1  -6    1.49    4.42
 -12   1   6    0.72    4.07
  12  -1   6   -4.30    5.71
  12  -1   6    7.21    8.42
 -12   2  -6   45.88   14.50
  12  -2  -6   32.16   15.19
 -12   2  -6   31.69   15.14
  12  -2  -6   13.69   19.42
  12  -2   6   47.36   18.91
  12  -2   6   26.65   15.48
 -12   2   6   27.90   15.18
  12  -3  -6    8.28    6.48
 -12   3  -6   -2.30    5.54
 -12   3  -6    0.53    5.01
 -12   3   6    2.58    4.42
  12  -3   6    4.20   10.01
  12  -3   6    6.10    6.27
 -12   4  -6    7.25    6.15
 -12   4  -6   10.60    6.74
  12  -4   6    7.78    6.88
  12  -4   6   10.04   10.72
 -12   5  -6    3.40    4.52
 -12   5  -6   -0.58    5.43
  12  -5   6   22.68    9.42
  12  -5   6  -10.30    5.36
  12  -6   6    2.10    5.95
  13   6  -6    9.56   10.08
 -13  -6   6   -4.20    4.30
  13   5  -6    1.26    6.13
  13   5  -6   16.26    9.93
 -13  -5   6   -1.00    3.95
  13   4  -6  -10.38    9.77
  13   4  -6    1.12    6.38
 -13  -4   6   -0.48    4.74
  13   3  -6   11.22   10.33
  13   3  -6   -1.02    6.11
 -13  -3   6    7.47    4.77
 -13  -3   6    9.14    5.25
  13   2  -6    3.55    5.90
  13   2  -6    4.01    9.33
 -13  -2   6    4.02    4.39
 -13  -2   6   -1.80    4.61
  13   1  -6   14.15    9.96
 -13  -1  -6    5.20    9.14
  13   1  -6   25.59   13.79
 -13  -1   6   20.26    8.73
 -13  -1   6   21.48    8.93
  13   1   6    3.23   11.09
  13   0  -6    6.18    6.15
 -13   0  -6   -1.72    4.81
  13   0  -6    8.69    9.34
 -13   0   6   -1.56    5.06
 -13   0   6   -3.70    4.59
  13   0   6   -0.60    6.63
 -13   1  -6   57.33   11.97
  13  -1  -6   13.41   12.47
  13  -1  -6   19.80   15.69
 -13   1   6   21.49   11.79
  13  -1   6   23.91   12.57
 -13   1   6   35.80   11.97
  13  -2  -6    2.83    9.43
  13  -2  -6    4.76    6.55
 -13   2   6   -0.87    4.71
  13  -3  -6   -3.23    7.44
  13  -3  -6   22.81   10.10
 -13   3   6    0.94    4.70
 -13   5  -6    3.78    5.94
  13  -5   6    6.58   10.74
 -13   6  -6   -1.01    5.74
  13  -6   6  -11.64   10.71
  13  -6   6   14.27    6.46
 -13   7  -6    2.15    5.25
  13  -7   6    5.79    6.64
  13  -7   6   -4.97   10.89
 -14  -6   6   -0.57    5.00
  14   5  -6   13.69    7.32
  14   5  -6    3.18   10.92
 -14  -5   6    0.55    5.00
  14   4  -6   17.95    8.05
 -14  -4  -6    1.99    5.92
  14   4  -6   19.81   12.65
  14   4   6    5.90    9.27
 -14  -4   6    9.10    6.36
 -14  -4   6    3.77    6.36
  14   4   6   -2.53    8.41
  14   3  -6   -2.87    6.21
 -14  -3  -6   -1.96    4.38
  14   3  -6   -8.92   11.27
 -14  -3   6   -1.47    5.53
  14   3   6   -0.55    8.87
 -14  -3   6   -4.21    4.89
  14   3   6    5.58    7.40
 -14  -2  -6   -0.65    5.13
  14   2  -6   -0.57    6.20
  14   2  -6    1.29   10.39
 -14  -2   6    8.29    5.37
  14   2   6  -12.47    7.13
  14   2   6   14.39    9.03
 -14  -2   6    2.56    5.10
 -14  -1  -6   -1.93    5.41
  14   1  -6   -9.95   10.69
  14   1  -6   -4.55    5.93
 -14  -1   6   -6.37    5.40
  14   1   6   -0.71    6.71
 -14  -1   6   10.09    4.95
  14   0  -6    5.19   10.80
 -14   0  -6   22.50   10.11
  14   0  -6   41.63   14.15
  14   0   6   22.16   11.51
 -14   0   6   11.04    9.86
 -14   1  -6    7.35    6.50
 -14   1  -6    1.25    5.71
 -14   1   6   -5.19    6.46
  14  -1   6  -12.60    7.76
  14  -1   6   16.64   11.20
 -14   2  -6    0.95    6.71
 -14   2  -6    9.58    6.11
  14  -2   6    5.76    6.88
  14  -2   6  -19.59   11.37
 -14   3  -6   -3.88    7.43
 -14   3  -6    0.65    5.81
  14  -3  -6   -4.92   10.67
  14  -3   6   -3.67   12.07
  14  -3   6  -16.21    7.50
 -14   3   6    3.05    5.43
 -14   4  -6    2.69    8.26
  14  -4  -6   52.17   11.52
 -14   4  -6   -6.06    7.73
  14  -4   6    0.63    8.68
  14  -4   6   54.95   14.23
 -14   5  -6    6.31    6.59
 -14   5  -6   10.44    7.12
  14  -5   6  -21.63   12.25
  14  -5   6   15.15    7.26
 -14   6  -6   -4.97    7.00
 -14   6  -6   -2.24    6.55
  14  -6   6  -10.04   12.93
  14  -6   6  -26.04    7.63
 -14   7  -6   -2.34    6.34
  14  -7   6  -19.64   12.10
  14  -7   6   -3.76    7.31
  14  -8   6   -5.74    7.48
  15   5  -6   41.86   18.33
 -15  -4  -6   -2.19    5.18
 -15  -4   6    1.69    6.36
  15   4   6    5.47    8.34
  15   4   6    7.53   10.38
 -15  -3  -6   -0.72    5.26
 -15  -3   6    4.14    5.99
  15   3   6  -27.18   10.78
  15   3   6    1.74    8.30
 -15  -2  -6    5.73    5.82
  15   2   6  -12.88    7.59
  15   2   6  -22.12   10.65
 -15  -2   6    6.78    5.43
  15   1  -6    5.91   12.21
 -15  -1  -6    4.31    5.97
  15   1   6   -0.79    7.28
 -15  -1   6    1.74    5.58
  15   1   6  -19.96   10.77
  15   0  -6   -3.07   12.38
 -15   0  -6    3.60    6.66
  15   0  -6   25.53    7.74
 -15   0   6   -0.91    6.08
  15   0   6    5.96    8.57
 -15   1  -6   -4.10    7.53
  15  -1  -6    1.37    8.23
 -15   1  -6   -3.49    6.40
  15  -1  -6    3.17   11.43
  15  -1   6    0.74    7.96
 -15   1   6   -0.97    6.33
 -15   1   6   -0.72    6.92
 -15   2  -6   -4.24    6.96
  15  -2  -6   -2.51   11.44
 -15   2  -6    2.84    6.61
  15  -2  -6   -2.93    8.69
  15  -2   6  -20.40    8.26
 -15   2   6    6.32    7.86
 -15   2   6    4.17    5.61
  15  -2   6   -0.78   12.12
  15  -3  -6   -3.54   12.02
 -15   3  -6    1.09    7.14
  15  -3  -6   -3.06    8.51
 -15   3  -6   -7.18    7.01
 -15   3   6    1.11    5.84
  15  -3   6   -8.58    7.64
  15  -3   6    2.43   12.92
  15  -4  -6    7.34    9.26
 -15   4  -6   11.10    7.74
 -15   4  -6    6.77    7.50
  15  -4   6    5.72    8.40
  15  -4   6    7.56   12.83
 -15   5  -6   10.69    7.97
 -15   5  -6   -2.34    8.18
  15  -5   6   21.36    8.79
  15  -5   6  -16.68   13.68
 -15   6  -6    1.24    7.39
 -15   6  -6   12.42    8.13
  15  -6   6    0.69    8.12
  15  -6   6   11.05   13.02
 -15   7  -6    6.29    8.06
 -15   7  -6   -3.86    6.29
  15  -7   6    4.76    7.70
  15  -7   6   10.64   12.53
  15  -8   6  -13.77    9.29
 -16  -5   6   -8.01    7.72
 -16  -5   6   -0.98    8.47
  16   4  -6    4.53    7.58
  16   4  -6   -2.46   13.70
 -16  -4  -6   -6.40    5.68
  16   4   6    0.99    8.25
  16   4   6   -0.70   11.34
 -16  -4   6   -2.84    6.78
 -16  -4   6    0.66    5.92
  16   3  -6    9.73    8.20
 -16  -3  -6    4.76    6.19
  16   3  -6   -3.24   13.40
 -16  -3   6    0.95    6.25
  16   3   6   -5.68    9.84
 -16  -3   6    0.67    6.08
  16   3   6    2.76   11.29
  16   2  -6    4.08   13.53
  16   2  -6   -0.72    7.20
 -16  -2  -6    5.56    6.28
 -16  -2   6   -6.66    6.34
  16   2   6  -13.26    8.91
 -16  -2   6   -5.22    5.86
  16   2   6   10.93   11.80
  16   1  -6    1.42    7.88
  16   1  -6   10.68   12.67
 -16  -1  -6   14.40    6.75
  16   1   6  -14.15   12.15
 -16  -1   6   -0.68    6.82
 -16  -1   6   -1.94    6.33
  16   1   6    2.61    8.40
  16   0  -6   -2.26    8.46
  16   0  -6    5.08   12.88
 -16   0  -6    8.85    7.44
  16   0   6    0.82    7.97
 -16   0   6   -3.61    7.46
 -16   0   6   -1.02    6.27
  16  -1  -6  -11.43    8.82
  16  -1  -6   -8.69   12.03
 -16   1  -6   13.26    6.80
  16  -1   6  -13.06    9.03
 -16   1   6   -2.37    7.72
 -16   1   6   -1.07    7.27
  16  -2  -6    7.27    9.03
 -16   2  -6   -5.54    7.52
  16  -2  -6    0.91   12.06
 -16   2  -6   -4.74    8.38
  16  -2   6   -0.87   14.35
 -16   2   6  -18.28    5.89
  16  -2   6    0.82    9.45
 -16   2   6   -1.74    8.55
  16  -3  -6  -16.30   13.12
 -16   3  -6    3.17    7.17
  16  -3  -6   -1.67    9.72
 -16   3  -6   13.35    7.92
  16  -3   6    0.79    8.66
 -16   3   6  -24.51    9.25
 -16   3   6    4.82    5.78
  16  -3   6    3.57   13.83
 -16   4  -6    2.52    8.58
 -16   4  -6   -4.88    7.72
  16  -4  -6    9.73   10.07
  16  -4   6   19.59   14.37
  16  -4   6    0.79    8.73
 -16   5  -6    9.13    8.46
 -16   5  -6    5.80    9.03
  16  -5   6  -47.13   15.90
  16  -5   6  -36.20    9.25
 -16   6  -6    2.74    7.63
 -16   6  -6    4.24    8.73
  16  -6   6  -17.10   15.66
  16  -6   6  -18.13    8.90
 -16   7  -6   -7.09    7.54
 -16   7  -6   21.44    8.40
  16  -7   6   18.20    8.55
  16  -7   6  -28.38   14.41
 -16   8  -6   14.72    9.10
  16  -8   6    1.49    8.96
  17   4  -6  -11.11   15.62
 -17  -4  -6   -2.64    6.40
  17   4  -6   15.03    8.39
 -17  -4   6    9.54    7.69
  17   4   6    5.36   10.11
  17   4   6  -20.36   15.47
 -17  -4   6   -3.68    5.60
  17   3  -6   -7.36   15.20
  17   3  -6   -4.18    9.33
 -17  -3  -6   -0.88    6.39
  17   3   6    5.69   12.77
 -17  -3   6    0.75    7.04
 -17  -3   6    1.06    6.92
  17   3   6    2.07    9.68
  17   2  -6  -61.92   20.41
 -17  -2  -6   -0.88    7.09
  17   2  -6   -7.28   10.23
 -17  -2   6    1.07    7.11
  17   2   6  -12.64    9.77
 -17  -2   6   -3.68    8.16
  17   2   6   11.41   13.81
 -17  -1  -6    2.51    8.92
 -17  -1  -6   -0.89    7.58
  17   1  -6   -5.00   10.14
  17   1  -6  -30.15   17.26
  17   1   6    4.14   14.20
 -17  -1   6   -6.14    8.03
  17   1   6    0.96    9.55
 -17  -1   6    1.09    7.51
 -17   0  -6    0.90    8.75
  17   0  -6   -3.74   14.91
  17   0  -6  -15.94    9.88
 -17   0   6    7.26    8.24
  17   0   6   -2.86   10.45
 -17   0   6  -36.13    7.85
  17  -1  -6    1.76   10.03
  17  -1  -6  -11.45   14.59
 -17   1  -6    1.75    8.87
  17  -1   6  -26.24   11.28
 -17   1   6  -16.64    8.84
 -17   1   6   -1.18    7.91
 -17   2  -6   -7.05    8.90
  17  -2  -6   -7.12   10.16
  17  -2  -6  -11.95   14.12
 -17   2  -6   -5.29    8.48
 -17   2   6    7.59    9.33
  17  -2   6    5.39    9.62
 -17   2   6    2.51    7.06
  17  -3  -6    6.57   11.54
 -17   3  -6    8.12    8.52
 -17   3  -6  -10.73    8.87
  17  -3  -6    9.36   14.14
 -17   3   6   -2.07   10.55
  17  -3   6   -6.89   15.00
  17  -3   6    2.58    9.32
 -17   3   6    1.31    6.93
 -17   4  -6   -8.04    9.22
 -17   4  -6   -9.85    8.22
  17  -4  -6   14.44   11.09
  17  -4   6    4.10   14.87
  17  -4   6    3.46    9.32
 -17   4   6    8.84   11.09
 -17   5  -6   -5.83    9.80
 -17   5  -6    7.28    8.96
  17  -5   6    9.49   15.69
  17  -5   6   10.32    9.65
 -17   6  -6   -8.27    9.78
 -17   6  -6   13.70    9.01
  17  -6   6   20.60    9.83
  17  -6   6    1.10   15.30
 -17   7  -6    4.68    9.42
 -17   7  -6    3.14    8.04
  17  -7   6   19.47   15.28
  17  -7   6  -30.55    9.44
 -17   8  -6    2.83   10.45
  17  -8   6  -28.24   11.02
 -18  -4  -6    0.97    7.03
  18   4   6   39.55   16.19
  18   4   6   -5.84    9.28
 -18  -4   6    3.65    8.30
  18   3  -6   -7.46   10.68
  18   3  -6  -24.73   18.37
 -18  -3  -6   -0.97    6.78
 -18  -3   6   -1.19    8.09
  18   3   6   13.66   10.47
 -18  -3   6    5.02    7.83
  18   3   6   48.23   16.51
  18   2  -6    9.14   17.15
  18   2  -6   -8.18   10.28
 -18  -2  -6    7.83    8.10
  18   2   6  -50.31   16.40
  18   2   6    7.82   10.93
 -18  -2   6  -25.10    8.17
 -18  -2   6   -1.72    7.93
  18   1  -6   26.36   15.36
 -18  -1  -6   -4.17   10.34
  18   1  -6   -1.86    9.93
 -18  -1  -6    8.92    8.49
 -18  -1   6    9.52    8.52
  18   1   6   -0.96   15.95
  18   1   6   -2.12   10.37
 -18  -1   6   15.90    8.84
 -18   0  -6    6.99    9.82
 -18   0  -6   11.04    8.64
  18   0  -6    3.10   15.32
  18   0  -6    3.73   10.38
  18   0   6    9.50   10.81
 -18   0   6   -0.92    8.99
 -18   0   6    2.52    8.07
  18   0   6  -13.79   17.35
  18  -1  -6   -8.39   14.47
  18  -1  -6    7.87   11.63
 -18   1  -6   -4.05    8.58
 -18   1   6   -1.31    6.64
 -18   1   6   -3.88    9.89
  18  -1   6   -2.01    9.77
 -18   2  -6    4.43    9.99
  18  -2  -6    2.96   11.19
 -18   2  -6   -6.88    9.19
  18  -2  -6    4.36   15.21
 -18   2   6    1.38    7.68
 -18   2   6    6.29   10.96
  18  -2   6    3.97   10.40
  18  -3  -6   -4.53   16.04
 -18   3  -6   27.51   10.09
 -18   3  -6    2.97    9.84
  18  -3  -6    8.26   12.07
  18  -3   6  -15.88   10.95
 -18   3   6   -5.75    7.08
  18  -3   6  -11.91   15.77
 -18   3   6    2.27   11.47
  18  -4  -6    7.55   12.18
 -18   4  -6    6.90    9.86
 -18   4  -6    1.57    9.87
  18  -4   6   -2.25   17.51
  18  -4   6    2.85   11.07
 -18   4   6    3.63   12.36
 -18   5  -6    4.87   10.52
 -18   5  -6    6.98    9.85
  18  -5   6   -6.62   11.27
  18  -5   6    2.31   17.10
 -18   6  -6  -16.93   14.44
 -18   6  -6   -1.01   14.15
  18  -6   6   -9.64   24.79
 -18   7  -6    1.74    8.60
 -18   7  -6   -1.01   10.14
  18  -7   6  -20.03   18.29
  18  -7   6   -0.90   10.07
 -19  -4  -6   -7.51    7.99
  19   4   6    1.03   18.23
  19   4   6   -6.39   10.10
 -19  -3  -6   -7.54    7.73
 -19  -3   6    9.39    8.98
  19   3   6  -13.28   18.30
  19   3   6   -5.01   12.31
 -19  -3   6  -15.02    9.53
 -19  -2  -6   -8.71    9.96
 -19  -2  -6    3.10   10.83
  19   2  -6   54.38   21.60
  19   2  -6   -2.04   11.38
 -19  -2   6   -9.35    9.40
 -19  -2   6   -2.91    9.23
  19   2   6  -37.02   14.35
 -19  -1  -6   35.38   27.32
  19   1  -6   45.10   29.21
 -19  -1  -6   -4.64   28.50
  19   1  -6   67.16   38.26
 -19  -1   6   50.71   26.29
 -19  -1   6   -1.37   26.32
  19   1   6   82.08   31.30
 -19   0  -6    1.56   29.08
  19   0  -6   28.53   36.26
  19   0  -6   42.55   28.87
 -19   0  -6  107.69   28.88
  19   0   6  182.36   32.70
 -19   0   6    5.14   26.21
 -19   0   6    5.60   26.65
 -19   1  -6   93.94   32.17
  19  -1  -6   41.61   32.32
  19  -1  -6   69.30   40.23
  19  -1   6  159.30   35.05
 -19   1   6   10.26   30.59
 -19   1   6   20.51   30.25
 -19   2  -6   -4.38   11.16
  19  -2  -6  -36.49   14.58
  19  -2  -6   32.24   17.64
 -19   2   6   -6.07    7.82
  19  -2   6  -11.02   14.36
 -19   2   6   12.75   11.86
  19  -3  -6    1.14   13.49
 -19   3  -6   16.51   11.34
 -19   3  -6   -8.53   10.39
  19  -3   6  -58.35   21.96
 -19   3   6   -3.15    9.01
  19  -3   6  -13.10   13.38
 -19   3   6   -8.66   13.43
 -19   4  -6  -11.07   11.69
  19  -4  -6   14.22   12.71
 -19   4  -6   10.54   11.39
 -19   4   6    9.29   13.25
  19  -4   6   -1.04   11.82
  19  -4   6   -3.71   19.44
 -19   5  -6    9.07   10.62
 -19   5  -6    2.19   11.13
  19  -5   6   -6.34   20.38
  19  -5   6   -7.28   11.02
 -19   6  -6   -5.53   11.72
 -19   6  -6    5.65   10.07
  19  -6   6   -1.03   12.08
  19  -6   6  -15.86   17.67
 -19   7  -6   -1.11   11.35
  19  -7   6   -9.88   10.76
 -20  -4  -6   -7.13    9.06
  20   4   6    1.16   15.78
 -20  -3  -6   -1.75   10.72
 -20  -3  -6    3.59    9.54
  20   3   6   20.75   13.82
  20   3   6   30.99   20.02
 -20  -2  -6  -12.14    8.67
  20   2  -6    8.85   21.42
  20   2  -6    8.40   13.70
 -20  -2  -6   12.09   12.23
 -20  -2   6   18.63   10.26
 -20  -2   6  -18.19   10.67
  20   2   6  -14.19   19.80
  20   2   6   -9.56   14.55
 -20  -1  -6   -5.17   11.72
  20   1  -6    2.36   12.85
 -20  -1  -6    3.70   10.59
  20   1  -6  -17.72   19.07
  20   1   6    1.20   18.99
 -20  -1   6    9.90   10.96
 -20  -1   6  -29.05   10.94
  20   1   6    6.50   13.01
  20   0  -6    1.22   12.67
  20   0  -6  -35.35   18.85
 -20   0  -6    1.77   12.12
 -20   0  -6   -5.01   11.27
 -20   0   6   -3.12    9.06
  20   0   6    1.30   13.13
  20   0   6  -13.40   19.87
 -20   0   6    2.31   11.12
 -20   1  -6   14.43   12.89
  20  -1  -6    2.43   13.73
  20  -1  -6   28.03   18.54
 -20   1  -6   10.14   11.40
 -20   1   6   -1.63    8.47
  20  -1   6   16.29   20.55
 -20   1   6    2.45   11.84
  20  -1   6  -18.07   13.99
 -20   2  -6    7.64   11.97
  20  -2  -6   25.40   14.91
  20  -2  -6   -9.18   18.98
 -20   2   6  -11.72    9.74
  20  -2   6    4.89   13.34
 -20   2   6   19.25   13.27
  20  -3  -6    7.87   13.98
 -20   3  -6   -7.37   11.70
  20  -3   6    1.21   12.68
 -20   3   6    6.84   13.77
 -20   3   6    1.73    9.76
  20  -4  -6  -19.58   13.62
 -20   4   6   13.02   14.74
 -21  -2   6    8.51   12.05
  21   1  -6  -54.88   22.14
  21   1  -6   15.96   14.92
 -21  -1   6    3.43   11.13
 -21  -1   6    1.29   13.01
  21   0  -6   11.19   19.93
  21   0  -6   -2.74   15.39
 -21   0   6    2.61   12.21
 -21   0   6   -8.74   10.07
  21  -1  -6   -2.84   16.49
  21  -1  -6  -14.23   21.32
 -21   1   6   -1.81    7.72
 -21   1   6   12.34   13.50
  21  -2  -6  -12.72   15.93
 -21   2   6   34.24   14.70
   0   0  -7   -0.49    2.43
   0   0  -7   -0.19    1.42
   0   0   7   -0.49    1.90
  -1   0  -7    2.90    3.47
   1   0  -7   10.01    4.19
   1   0  -7    6.16    3.48
   0   1  -7    7.01    3.72
   0   1  -7   11.39    3.21
   0  -1   7    5.82    3.67
  -1   0   7    5.29    4.09
  -1   1  -7    0.45    1.61
   1   1  -7   -0.16    1.46
  -1   1  -7   -0.22    1.01
   1   1  -7   -0.27    1.02
   1  -1   7    1.39    1.48
  -1  -1   7    0.11    1.71
   1  -1   7   -0.41    0.95
   2   1  -7    2.24    2.09
  -1   2  -7    2.06    1.30
  -1   2  -7    1.42    1.06
  -1   2  -7    1.70    1.84
  -2  -1   7    0.94    2.07
   1  -2   7    2.22    1.83
   1  -2   7    2.48    1.41
   1  -2   7    1.58    1.71
   0   2  -7    0.13    1.45
   0   2  -7    0.11    0.95
   2   0  -7    0.46    2.05
  -2   0   7    0.47    2.06
   2   0   7    0.36    0.94
   0  -2   7    0.27    1.53
  -2   1  -7    2.33    2.19
  -2   1  -7    2.47    1.44
  -2   1  -7    1.28    1.23
   1   2  -7    3.38    1.45
   1   2  -7    1.93    1.89
   2  -1   7    3.81    1.77
  -1  -2   7    1.89    1.92
   2  -1   7    3.09    1.68
   2  -1   7    2.44    2.12
  -2   2  -7    0.66    0.86
   2   2  -7   -0.45    1.86
  -2   2  -7   -0.65    1.49
  -2   2  -7   -0.70    0.74
  -2  -2   7    0.66    1.98
   2  -2   7   -0.59    1.65
   2  -2   7    0.07    1.44
   2  -2   7    0.40    1.31
   3   2  -7   97.56   40.40
   3   2  -7   90.04   51.09
  -2   3  -7   92.60   42.08
  -2   3  -7   87.07   36.30
  -2   3  -7   79.22   35.58
   3   2  -7   70.73   39.90
  -3  -2   7   99.36   35.46
  -3  -2   7   60.91   40.54
   2  -3   7   94.45   45.05
   2  -3   7   86.33   33.91
   2  -3   7   89.88   39.71
  -3  -2   7  101.96   38.71
  -1   3  -7    9.53    4.73
  -1   3  -7   14.42    4.74
   3   1  -7   12.47    5.68
  -1   3  -7   11.81    5.57
   3   1  -7    8.20    4.65
   3   1  -7    9.65    4.99
  -3  -1   7    5.66    5.74
   1  -3   7   11.11    4.41
   1  -3   7   11.14    5.24
   1  -3   7   15.45    6.38
   0   3  -7   66.13   17.67
   3   0  -7   59.90   21.35
   0   3  -7   76.59   20.07
   3   0  -7   36.56   18.69
  -3   0  -7    1.83   17.92
   3   0   7   50.56   21.05
   3   0   7   27.67   21.21
  -3   0   7   27.69   21.50
   0  -3   7   50.10   16.84
   1   3  -7   13.31    4.80
  -3   1  -7    8.98    5.15
  -3   1  -7   11.50    4.78
  -3   1  -7    6.88    6.29
   1   3  -7   11.22    5.62
   3  -1   7    8.81    6.21
   3  -1   7   12.63    5.53
  -1  -3   7   15.14    4.54
   3  -1   7   10.07    5.73
  -3   2  -7   96.49   33.25
  -3   2  -7   84.57   33.54
  -3   2  -7   66.12   39.25
   2   3  -7   76.46   38.57
   3  -2   7   60.01   38.12
   3  -2   7   92.59   36.58
   3  -2   7   70.27   40.32
  -3   3  -7   -0.20    1.17
   3   3  -7   -0.37    1.35
  -3   3  -7   -0.10    1.65
  -3   3  -7    0.37    1.39
   3  -3   7    2.34    2.98
   3  -3   7   -0.37    1.20
   3  -3   7    0.14    1.63
   4   3  -7   57.42   18.70
  -3   4  -7   58.79   19.58
   4   3  -7   27.05   26.18
   4   3  -7   55.33   20.87
  -3   4  -7   48.87   22.04
   4   3  -7   45.69   21.93
   3  -4   7   49.33   19.62
  -4  -3   7   18.52   20.91
   3  -4   7   45.44   23.98
   3  -4   7   46.95   21.83
  -4  -3   7   62.39   18.21
  -2   4  -7    0.38    1.71
   4   2  -7    1.55    2.42
  -2   4  -7    3.34    1.90
   4   2  -7    0.50    1.23
   2  -4   7    1.39    1.80
   2  -4   7    1.17    1.60
  -4  -2   7   -0.43    1.10
  -4  -2   7    0.34    1.00
   4   1  -7   17.82   10.11
  -1   4  -7   30.16    9.96
   4   1  -7   19.88   13.73
  -1   4  -7   18.78   11.02
   1  -4   7   33.39    9.56
  -4  -1   7   24.69   10.64
   0   4  -7   -0.47    2.10
   0   4  -7    2.10    1.64
  -4   0  -7    0.18    1.33
   4   0  -7    0.74    2.69
   0  -4   7    2.70    1.46
   4   0   7    0.41    1.91
  -4   0   7    0.17    2.83
   4   0   7   -0.23    2.19
  -4   1  -7   30.02    9.14
  -4   1  -7   23.22   10.06
   4  -1   7   22.87   10.25
   4  -1   7   13.40   10.93
  -4   2  -7    1.36    0.96
  -4   2  -7    0.46    1.45
   2   4  -7   -0.61    1.78
  -4   2  -7    1.52    1.73
   4  -2   7    1.85    2.85
  -2  -4   7    1.90    1.65
   4  -2   7    0.20    0.89
   4  -2   7   -0.50    1.81
   4  -2   7    0.77    1.58
  -4   3  -7   48.68   22.42
   3   4  -7   45.45   23.35
   3   4  -7   56.18   21.59
  -4   3  -7   41.46   19.33
  -4   3  -7   45.33   20.16
   4  -3   7   56.81   23.18
   4  -3   7   57.00   21.16
   4  -3   7   60.34   19.76
  -4   4  -7    0.94    1.63
   4   4  -7    0.23    2.20
   4   4  -7   -0.10    1.65
   4   4  -7    0.65    2.67
   4  -4   7   -0.19    2.26
  -4  -4   7    0.96    2.01
   5   4  -7   25.28   12.11
   5   4  -7   27.64   12.28
   5   4  -7   23.70   10.74
  -5  -4   7   19.43   10.24
   5   3  -7   20.12   11.37
   5   3  -7   17.89    9.58
   5   3  -7   21.43    8.20
   5   3  -7   16.93   10.15
  -5  -3   7   18.85    9.19
  -5  -3   7   22.05    7.99
  -5  -3   7   15.30    9.82
   5   2  -7   84.39   30.62
   5   2  -7   66.80   26.96
   5   2  -7   55.08   36.89
  -5  -2   7   72.33   32.61
  -5  -2   7   93.87   29.44
  -5  -2   7   63.60   27.94
   5   1  -7   -1.26    2.91
   5   1  -7    0.58    1.78
   5   1   7   -0.87    2.15
  -5  -1   7    0.23    1.36
   5   0  -7  109.65   46.33
  -5   0   7  111.79   47.48
   1   5  -7    2.18    2.19
   1   5  -7   -0.51    2.22
  -5   1  -7    0.73    0.76
  -1  -5   7    0.27    1.98
  -5   2  -7   69.02   26.28
   2   5  -7   55.44   28.50
  -5   2  -7   66.45   32.18
   2   5  -7   48.40   26.03
   5  -2   7   55.40   31.46
  -2  -5   7   55.80   25.04
   5  -2   7   49.81   24.34
   3   5  -7   20.73   10.21
  -5   3  -7   20.72   10.46
   5  -3   7   24.14   10.13
   4   5  -7   16.65   14.12
   4   5  -7   30.28   11.90
  -5   4  -7   23.97   13.87
  -5   4  -7   36.00   11.50
   4   5  -7   34.01   12.82
  -4  -5   7   21.29   11.41
   5  -4   7   37.51   14.40
   5   5  -7    0.61    2.81
   5   5  -7    0.16    2.43
  -5   5  -7   -0.45    2.32
   5   5  -7    0.27    3.33
   5  -5   7    1.73    2.66
   5  -5   7    1.52    4.84
  -5  -5   7   -0.95    2.43
   6   5  -7    1.44    3.58
   6   5  -7    1.61    3.20
   5  -6   7    4.14    2.89
  -6  -5   7    0.68    2.92
   6   4  -7   21.90    7.59
   6   4  -7   15.57   10.72
   6   4  -7   15.24    8.48
   6   4  -7   20.47    8.63
  -6  -4   7   20.92    7.28
  -6  -4   7    1.08    8.14
   6   3  -7   35.32   14.66
   6   3  -7   36.91   17.79
   6   3  -7   39.63   16.59
   6   3  -7   25.74   18.42
  -6  -3   7   44.43   17.04
  -6  -3   7   41.07   14.35
  -6  -3   7   31.18   15.85
   6   2  -7   36.63   16.20
   6   2  -7   33.41   13.27
   6   2  -7   34.74   18.70
   6   2  -7   32.50   15.24
  -6  -2   7   37.01   14.51
  -6  -2   7   31.08   13.76
   6   2   7   28.83   16.83
  -6  -2   7   30.97   16.85
   6   1  -7   10.03    5.07
   6   1  -7    7.53    6.03
   6   1  -7   16.15    4.71
   6   1  -7   10.92    7.28
  -6  -1  -7    2.91    4.93
   6   1   7   12.52    5.74
  -6  -1   7   17.11    5.24
   6   1   7   11.89    6.27
  -6  -1   7    9.97    6.43
  -6   0  -7    0.25    1.74
   6   0  -7    4.19    2.92
   6   0  -7   -2.04    2.45
   6   0   7   -0.30    3.07
   6   0   7   -0.20    2.85
  -6   1  -7   10.80    4.52
   6  -1  -7    9.67    5.54
  -1  -6   7   10.01    5.00
   6  -1   7    8.49    5.98
   6  -1   7    8.01    5.22
   2   6  -7   23.33   14.65
   2   6  -7   32.54   16.07
  -6   2  -7   31.40   14.34
   6  -2   7   40.05   15.62
  -2  -6   7   33.47   14.51
   6  -2   7   41.24   17.51
  -6   3  -7   36.72   15.14
  -6   3  -7   41.76   14.65
  -6   3  -7   24.87   16.82
   3   6  -7   43.71   16.35
   6  -3   7   34.82   17.98
   6  -3   7   30.16   15.96
   6  -3   7   41.02   16.03
   4   6  -7   16.96    8.87
   4   6  -7   26.66    9.57
  -6   4  -7   29.24    8.58
  -6   4  -7   25.98    9.95
   6  -4   7   17.27   10.62
  -4  -6   7   15.65    8.66
   6  -4   7   22.38    9.42
   5   6  -7   -1.58    3.89
   5   6  -7    2.53    3.18
  -6   5  -7    1.45    2.37
   6  -5   7   -0.56    3.27
   6  -5   7   -2.39    6.67
  -5  -6   7    1.17    3.08
   6   6  -7   -0.34    4.28
   6   6  -7   -0.38    3.22
   6  -6   7    0.59    3.02
  -6  -6   7    2.04    2.99
   7   6  -7    3.64    5.55
   7   6  -7    6.88    4.94
   7   6  -7    6.80    4.65
  -7  -6   7   11.22    4.67
   7   5  -7    2.12    3.65
   7   5  -7    3.75    3.52
   7   5  -7    3.69    4.10
  -7  -5   7   -0.36    3.42
   7   4  -7   17.71   13.17
   7   4  -7   32.02   11.96
  -7  -4   7   31.89   11.55
   7   3  -7   56.50   18.71
  -7  -3   7   30.41   16.43
  -7  -2  -7    0.32   13.19
   7   2  -7   32.70   14.94
   7   2  -7   40.44   12.11
   7   2   7   39.32   15.16
  -7  -2   7   19.34   15.79
   7   2   7   35.46   16.33
  -7  -1  -7   -0.30    1.92
   7   1  -7   -4.05    4.29
   7   1  -7   -1.89    2.12
   7   1  -7    4.07    3.50
   7   1   7    0.74    3.14
  -7  -1   7    1.63    2.07
   7   1   7    1.34    2.92
  -7  -1   7   -0.19    3.69
   7   0  -7    2.10    4.01
  -7   0  -7    1.71    2.51
   7   0  -7    1.99    4.91
   7   0  -7    0.23    2.69
   7   0  -7    8.40    3.26
   7   0   7    2.89    3.34
  -7   0   7    7.67    4.22
   7   0   7   -0.23    3.69
  -7   0   7    3.84    2.51
   7  -1  -7    3.77    3.49
   7  -1  -7   -0.64    3.50
  -7   1  -7    1.31    2.19
   7  -1   7    2.30    3.91
   7  -1   7    3.89    2.95
  -7   1   7   -3.51    3.86
  -7   1   7    0.86    1.97
  -7   2  -7   37.95   15.19
   7  -2   7   40.92   17.97
   7  -2   7   39.12   16.22
  -7   3  -7   35.35   15.78
  -7   3  -7   24.35   15.30
   7  -3   7   27.51   16.75
   7  -3   7   53.79   19.38
  -7   4  -7   33.44   11.96
   7  -4   7   24.23   13.39
   7  -4   7   25.53   15.30
  -7   5  -7    2.07    2.89
   5   7  -7    0.76    4.92
  -5  -7   7    1.40    3.48
   7  -5   7    3.84    5.84
   7  -5   7    1.89    3.32
  -7   6  -7    4.30    3.60
   6   7  -7   11.36    5.94
   7  -6   7    0.51    6.68
   7  -6   7    2.64    4.41
  -6  -7   7    8.73    4.36
   7   7  -7    2.59    5.75
  -7  -7   7   -2.54    3.95
   7  -7   7   -2.38    3.50
   8   7  -7   24.52   10.49
   8   7  -7   27.01   10.65
  -8  -7   7    9.08    8.90
   8   6  -7   -1.36    4.37
   8   6  -7   -0.42    3.69
   8   6  -7    4.62    5.22
  -8  -6   7    1.37    3.99
   8   5  -7   -0.36    3.69
   8   5  -7    8.58    4.78
   8   5  -7   -1.49    4.59
  -8  -5   7    1.54    3.64
  -8  -5   7   -1.08    1.75
   8   4  -7    9.86    5.63
   8   4  -7    5.32    5.75
   8   4  -7    7.43    4.75
   8   4  -7    2.95    6.06
  -8  -4   7   15.25    4.90
  -8  -4   7    5.96    4.61
  -8  -4   7   17.02    6.07
   8   3  -7    2.16    2.57
   8   3  -7   -0.25    3.53
   8   3  -7    3.92    4.74
   8   3  -7    1.36    3.22
  -8  -3   7    2.34    4.25
  -8  -3   7   -1.11    2.76
  -8  -3   7   -1.36    2.17
   8   2  -7   23.69   11.03
   8   2  -7   22.51   10.08
   8   2  -7   18.49   12.64
   8   2  -7   28.84    8.88
  -8  -2  -7   -1.06    9.55
  -8  -2   7   16.26   11.77
   8   2   7   15.02   11.73
  -8  -2   7   24.64    9.54
  -8  -2   7   32.89    9.12
   8   2   7   23.63   10.87
  -8  -2   7   19.77    8.93
   8   1  -7    7.53    4.11
   8   1  -7    9.38    3.31
   8   1  -7    3.56    4.85
  -8  -1  -7    4.07    3.47
   8   1  -7   10.61    6.19
  -8  -1   7    5.43    3.46
  -8  -1   7    2.63    3.54
   8   1   7    4.08    4.65
   8   1   7    6.52    4.59
  -8  -1   7    5.76    5.37
   8   0  -7    1.93    3.96
   8   0  -7   -1.16    3.09
   8   0  -7   -1.13    5.41
   8   0  -7   -0.69    2.51
  -8   0  -7   -1.62    2.58
  -8   0   7   -0.44    2.19
  -8   0   7    1.16    4.17
   8   0   7    1.41    4.17
   8   0   7   -0.72    3.26
   8  -1  -7    9.45    4.32
   8  -1  -7    3.38    6.37
  -8   1  -7   12.46    3.79
   8  -1  -7    8.99    4.48
  -8   1   7    5.04    5.64
   8  -1   7    3.77    4.57
   8  -1   7    1.78    5.39
  -8   1   7    5.45    3.79
   8  -2  -7   18.59   11.04
  -8   2  -7   27.22   10.15
  -8   2  -7   28.69   10.57
   8  -2  -7   26.00   11.59
   8  -2   7   18.97   12.62
   8  -2   7   26.34   10.96
  -8   3  -7   -1.34    3.35
  -8   3  -7   -0.91    2.65
   8  -3   7   -0.37    5.65
   8  -3   7   -1.96    3.79
  -8   4  -7    5.97    4.75
   8  -4   7   10.30    7.60
   8  -4   7   13.80    5.73
  -8   5  -7    2.82    3.12
   8  -5   7    8.34    6.37
   8  -5   7   -1.77    4.27
  -8   6  -7    0.66    3.29
   8  -6   7    2.66    7.08
   8  -6   7   -3.66    3.75
   8  -7   7    7.14    7.05
   9   8  -7   42.30   22.45
   9   7  -7    7.76    6.93
   9   7  -7    0.71    5.67
  -9  -7   7   -3.38    4.75
   9   6  -7   11.69    7.09
   9   6  -7    4.01    6.13
   9   6  -7   12.97    7.32
  -9  -6   7    8.75    5.89
   9   5  -7    3.46    4.30
   9   5  -7    6.69    4.81
   9   5  -7   12.13    5.77
   9   5  -7   -6.11    5.59
  -9  -5   7    6.60    4.34
  -9  -5   7    0.95    3.10
   9   4  -7    1.59    3.28
   9   4  -7    4.35    5.12
   9   4  -7   -0.30    4.41
   9   4  -7    0.74    3.56
  -9  -4   7   -0.70    3.68
  -9  -4   7    2.68    2.63
  -9  -4   7    4.45    5.02
   9   3  -7   12.96    3.64
   9   3  -7    8.08    4.50
   9   3  -7   -0.31    4.36
   9   3  -7    0.31    5.76
  -9  -3  -7    0.41    3.36
  -9  -3   7    7.22    3.81
  -9  -3   7    1.89    5.25
  -9  -3   7    6.31    3.23
   9   2  -7   -2.98    3.82
   9   2  -7    1.71    5.82
   9   2  -7    1.14    3.04
   9   2  -7   -0.90    2.52
  -9  -2  -7   -1.97    2.66
  -9  -2   7   -1.91    2.67
   9   2   7   -9.18    4.98
  -9  -2   7   -1.91    2.54
  -9  -2   7    5.85    4.47
   9   2   7    7.23    3.95
  -9  -2   7   -2.56    2.42
   9   1  -7    2.64    5.79
   9   1  -7    2.65    4.36
  -9  -1  -7    0.38    3.34
   9   1  -7    2.91    3.44
   9   1  -7    0.21    2.65
   9   1   7    6.75    4.29
  -9  -1   7    5.43    3.07
  -9  -1   7    0.86    3.04
   9   1   7   -0.30    4.31
  -9  -1   7    5.62    4.90
   9   0  -7    0.42    6.01
  -9   0  -7   -0.74    3.01
   9   0  -7    1.38    4.51
   9   0  -7   -0.46    2.65
   9   0  -7    0.65    3.42
  -9   0   7    2.76    4.94
  -9   0   7    0.98    2.74
   9   0   7   -7.28    3.72
   9   0   7   11.65    4.98
   9  -1  -7    3.80    4.32
   9  -1  -7    0.47    5.74
   9  -1  -7    5.38    3.65
  -9   1  -7    2.78    3.05
  -9   1   7   -1.11    3.18
  -9   1   7    2.82    4.81
   9  -1   7    7.86    5.68
   9  -1   7    5.05    3.99
   9  -2  -7    2.63    4.36
   9  -2  -7   -1.29    4.83
  -9   2  -7    2.48    3.11
  -9   2  -7    4.12    3.33
   9  -2   7    3.38    3.97
  -9   2   7    0.61    2.80
   9  -2   7   -1.18    6.19
  -9   3  -7    5.33    4.09
  -9   3  -7    9.14    4.16
   9  -3   7    4.23    6.91
   9  -3   7    4.07    4.58
  -9   4  -7    1.68    3.44
  -9   4  -7    1.22    3.80
   9  -4   7    0.75    3.98
   9  -4   7   -5.51    7.01
  -9   5  -7    4.97    4.63
   9  -5   7   14.51    5.51
   9  -5   7    6.07    7.66
  -9   6  -7    5.64    5.84
   9  -6   7   12.00    6.47
   9  -6   7   16.97    9.09
  -9   7  -7    1.58    4.00
   9  -7   7   -0.41    4.22
  10   8  -7    3.66    8.13
  10   7  -7   29.47   13.13
 -10  -7   7   17.91   11.40
  10   6  -7    4.68    7.10
  10   6  -7    7.52    5.69
  10   6  -7    8.57    7.42
 -10  -6   7    6.73    5.73
  10   5  -7    8.56    4.28
  10   5  -7    3.47    5.38
  10   5  -7    3.50    6.26
  10   5  -7    8.73    4.99
 -10  -5   7   -1.08    3.29
 -10  -5   7   -1.77    4.60
  10   4  -7    6.39    7.83
  10   4  -7   13.10    6.65
  10   4  -7   10.24    6.60
  10   4  -7    9.80    5.63
 -10  -4   7    9.05    5.73
 -10  -4   7   13.73    7.14
 -10  -4   7    5.05    5.33
  10   3  -7    2.60    6.40
  10   3  -7    8.38    4.58
  10   3  -7    3.79    3.42
 -10  -3  -7    0.91    3.11
  10   3  -7    2.11    3.84
 -10  -3   7    6.16    3.52
  10   3   7   -1.81    4.85
 -10  -3   7   -0.61    2.87
 -10  -3   7    0.86    3.14
 -10  -3   7   -3.16    5.26
  10   2  -7    2.42    3.00
 -10  -2  -7    0.44    3.22
  10   2  -7    1.65    3.68
  10   2  -7    2.99    4.39
  10   2  -7    2.75    6.74
 -10  -2   7   -2.64    3.05
 -10  -2   7   -0.88    2.98
  10   2   7    4.66    4.93
 -10  -2   7    3.65    5.18
 -10  -2   7    5.63    2.99
  10   2   7   -0.55    5.46
  10   1  -7    0.85    8.43
  10   1  -7    4.14    7.05
  10   1  -7   13.70    4.77
 -10  -1  -7    4.27    5.34
  10   1  -7   15.99    5.92
  10   1   7   19.27    7.21
 -10  -1   7    6.16    8.01
 -10  -1   7   -0.49    5.51
 -10  -1   7   14.13    5.24
  10   1   7    8.93    6.78
  10   0  -7   -1.11    4.93
  10   0  -7   -1.83    4.19
 -10   0  -7   -2.49    3.44
  10   0  -7   -0.47    6.41
  10   0  -7    2.09    2.84
 -10   0   7    1.09    3.37
  10   0   7   -6.32    4.72
 -10   0   7   -7.63    5.36
  10   0   7   -7.72    6.09
 -10   1  -7   14.66    6.24
  10  -1  -7   15.33    9.66
  10  -1  -7   13.33    7.03
  10  -1  -7   18.20    6.20
 -10   1   7   12.34    6.53
  10  -1   7    8.76    7.17
  10  -1   7   15.03    8.75
 -10   2  -7    6.83    3.77
  10  -2  -7   -2.26    6.37
  10  -2  -7    1.21    4.66
 -10   2  -7    1.76    3.66
  10  -2  -7    6.67    4.91
  10  -2   7    3.56    7.41
 -10   2   7   -0.67    3.59
  10  -2   7   -2.54    4.73
 -10   3  -7   -2.13    4.05
  10  -3  -7   -2.68    5.10
 -10   3  -7   -1.21    3.51
  10  -3   7    4.15    4.47
  10  -3   7   -7.62    8.01
 -10   4  -7   12.67    5.98
 -10   4  -7    3.64    6.49
  10  -4   7   16.73    6.98
  10  -4   7   15.82    9.34
 -10   5  -7    2.06    3.96
  10  -5   7    4.75    5.02
  10  -5   7    4.98    8.25
 -10   6  -7    7.66    4.84
  10  -6   7    8.43    5.82
  10  -6   7   -4.25    9.80
 -10   7  -7   15.19    9.68
  10  -7   7   25.59   10.65
  11   8  -7   -1.27    9.85
  11   7  -7   12.35    8.56
 -11  -7   7    4.41    5.84
  11   6  -7    1.73    6.33
  11   6  -7   -1.49    5.01
  11   6  -7    0.43    7.48
 -11  -6   7    6.60    5.18
  11   5  -7   26.13   11.42
  11   5  -7   13.16   11.09
  11   5  -7   19.19   10.26
  11   5  -7   27.60    9.48
 -11  -5   7   26.10   10.87
 -11  -5   7    0.40    9.09
 -11  -5   7   24.09    9.41
  11   4  -7    3.29    7.29
  11   4  -7   -4.98    5.39
  11   4  -7   -5.97    4.13
  11   4  -7   -1.62    5.46
 -11  -4   7   -3.03    3.96
 -11  -4   7    1.53    6.07
 -11  -4   7    2.43    4.20
  11   3  -7    7.53    5.32
  11   3  -7    9.17    4.94
 -11  -3  -7    0.50    3.80
  11   3  -7   -0.43    7.44
  11   3  -7    8.72    4.19
  11   3   7    5.86    6.31
 -11  -3   7    4.38    6.22
 -11  -3   7    5.88    3.98
 -11  -3   7    3.50    4.23
 -11  -3   7    6.21    3.60
 -11  -2  -7    2.43    7.93
  11   2  -7   18.34   11.63
  11   2  -7   23.06    7.50
  11   2  -7   10.55    8.57
  11   2  -7   12.03    9.48
 -11  -2   7   29.10    7.77
 -11  -2   7    9.89   10.72
 -11  -2   7   21.40    7.64
 -11  -2   7   13.34    7.96
  11   2   7   24.76    9.90
  11   1  -7    1.14    4.22
  11   1  -7    0.48    7.15
  11   1  -7    0.70    2.81
 -11  -1  -7    1.91    3.82
  11   1  -7   -3.41    5.01
  11   1   7    8.76    5.32
 -11  -1   7    1.34    6.05
  11   1   7   -2.80    6.37
 -11  -1   7    1.64    3.40
 -11  -1   7   -1.11    3.85
  11   0  -7   42.70   15.40
  11   0  -7   41.50   13.62
  11   0  -7   23.82   19.70
 -11   0  -7   23.82   14.81
  11   0  -7   20.96   19.86
 -11   0   7   40.53   14.63
 -11   0   7   38.70   15.39
  11   0   7   47.77   17.67
  11   0   7   36.22   16.25
 -11   0   7   20.03   21.64
  11  -1  -7    1.39    5.05
  11  -1  -7    2.51    3.47
 -11   1  -7   -1.34    4.33
  11  -1  -7    5.59    7.39
  11  -1   7   -3.21    7.41
 -11   1   7    1.36    3.27
  11  -1   7   -9.81    5.54
  11  -2  -7   13.52   12.84
 -11   2  -7   12.64    9.37
  11  -2  -7   28.56    9.16
 -11   2  -7   20.83    8.98
  11  -2  -7   24.78    9.90
  11  -2   7   23.30    9.79
  11  -2   7   15.56   12.23
 -11   2   7   12.61    9.18
  11  -3  -7    4.61    5.82
 -11   3  -7    6.19    5.10
 -11   3  -7    3.34    5.04
  11  -3   7  -41.62   12.92
  11  -3   7    0.46    6.56
 -11   4  -7    1.01    4.84
 -11   4  -7   -0.71    4.12
  11  -4   7  -16.14    5.75
  11  -4   7  -25.49   10.64
 -11   5  -7   28.98    9.58
 -11   5  -7   19.83    8.89
  11  -5   7   21.78    9.50
  11  -5   7    3.64   12.68
 -11   6  -7    5.02    4.59
  11  -6   7   -6.49    8.60
  11  -6   7    0.97    5.49
 -11   7  -7    2.72    4.48
  11  -7   7   -3.91    5.52
  11  -7   7    5.72    9.46
  11  -8   7    2.00    6.00
  12   8  -7   10.46   12.68
  12   7  -7    8.66    9.38
  12   6  -7    2.19    7.09
  12   6  -7   -0.52    5.32
 -12  -6   7    6.58    3.68
 -12  -6   7    1.17    5.40
 -12  -6   7    5.01    7.99
  12   5  -7   -5.70    5.55
  12   5  -7    3.19    5.34
  12   5  -7    4.35    8.43
  12   5  -7    1.53    6.09
 -12  -5   7   11.94    7.02
 -12  -5   7   -0.45    3.91
 -12  -5   7   -2.53    5.12
  12   4  -7    2.83    8.29
  12   4  -7    2.13    5.43
  12   4  -7    3.55    4.34
  12   4  -7   -2.50    5.62
 -12  -4   7   -5.39    6.72
 -12  -4   7    2.55    4.02
 -12  -4   7   -4.77    4.83
  12   3  -7   26.51   10.36
 -12  -3  -7    0.55    9.02
  12   3  -7   26.93   13.07
  12   3  -7   15.88    9.03
  12   3  -7   23.18   10.45
 -12  -3   7    9.12   11.83
 -12  -3   7   17.84    8.98
 -12  -3   7   27.87    9.11
 -12  -3   7   24.70    8.96
  12   3   7   19.66   11.43
  12   2  -7    2.99    4.67
  12   2  -7    0.51    8.18
 -12  -2  -7   -2.16    4.55
 -12  -2   7   -3.01    3.60
 -12  -2   7    1.16    3.89
 -12  -2   7   -3.20    6.06
 -12  -2   7   -3.16    4.17
  12   2   7   -1.32    5.98
  12   1  -7   77.30   39.35
  12   1  -7   72.21   31.52
 -12  -1  -7   40.42   30.82
  12   1   7   72.98   33.82
 -12  -1   7   78.67   29.51
 -12  -1   7   67.56   31.05
  12   1   7   85.89   35.09
  12   0  -7    2.82    5.55
  12   0  -7    1.72    7.75
 -12   0  -7   -3.15    4.54
  12   0   7   -7.83    6.08
 -12   0   7    0.67    4.09
  12   0   7   -5.40    7.77
 -12   0   7   -0.48    4.80
  12  -1  -7   96.13   33.42
  12  -1  -7   36.62   41.99
 -12   1  -7   93.01   32.45
  12  -1   7  105.61   34.51
  12  -1   7   68.22   38.49
 -12   1   7   66.29   34.40
 -12   2  -7   -4.50    5.24
  12  -2  -7    2.27    6.45
  12  -2  -7   12.63    8.84
 -12   2  -7    0.52    5.17
  12  -2   7   13.76    6.78
  12  -2   7   -2.25   10.07
 -12   2   7    7.29    4.19
 -12   3  -7   29.76   10.62
  12  -3  -7   23.62   11.42
 -12   3  -7   11.65   10.72
  12  -3   7   13.22   14.59
  12  -3   7   32.74   11.43
 -12   4  -7   -1.68    5.61
 -12   4  -7    4.00    4.73
  12  -4   7   10.66    9.81
  12  -4   7    0.52    5.94
 -12   5  -7    0.58    7.08
 -12   5  -7   19.52    7.18
  12  -5   7    1.60    7.55
  12  -5   7   50.65   10.70
  12  -8   7   24.78   11.43
 -13  -6   7    3.77    8.23
 -13  -6   7    4.93    6.00
  13   5  -7  -16.52    9.51
  13   5  -7    0.62    5.99
 -13  -5   7   -4.44    3.64
  13   4  -7   -4.97    6.34
  13   4  -7    2.78    9.49
  13   4   7   -0.48    6.96
 -13  -4   7   -0.47    4.54
 -13  -4   7    0.64    4.57
  13   3  -7   -2.53    5.35
  13   3  -7   -6.14    9.42
 -13  -3   7    2.52    4.78
 -13  -3   7    5.99    4.36
  13   2  -7    4.32    7.94
  13   2  -7   13.25   11.73
 -13  -2   7   24.26    7.33
 -13  -2   7   13.00    6.86
  13   1  -7   -8.32   10.13
  13   1  -7   -6.60    5.67
 -13  -1   7    2.06    4.45
 -13  -1   7    0.47    4.89
  13   0  -7   13.10   15.53
  13   0  -7   28.36   20.03
 -13   0   7   40.00   14.58
 -13   0   7   51.91   15.14
  13  -1  -7    0.67    8.83
  13  -1  -7    1.68    6.28
 -13   1   7   -3.23    4.70
 -13   1   7    1.81    6.04
  13  -2  -7    8.63   11.55
  13  -2  -7    4.94    8.53
 -13   2   7   21.16    7.49
  13  -3  -7    3.34    7.37
 -13   3   7   11.36    5.06
 -13   5  -7    3.79    6.24
  13  -5   7   16.09   11.32
 -13   6  -7   -2.02    5.16
 -13   6  -7    3.91    6.66
  13  -6   7   -3.06   11.63
  13  -6   7    5.73    6.79
 -13   7  -7    1.07    5.28
  13  -7   7   -0.82   10.56
  13  -7   7    5.22    6.64
  13  -8   7    5.30    6.93
 -14  -5   7    2.17    4.56
  14   4  -7    7.93    7.05
  14   4  -7  -14.50   12.67
 -14  -4  -7    1.36    4.60
 -14  -4   7    3.61    5.61
 -14  -4   7    9.50    4.98
  14   4   7    4.82    8.48
 -14  -3  -7    8.01    6.09
  14   3  -7   25.52    8.01
  14   3  -7   22.75   12.86
  14   3   7    4.42    9.76
 -14  -3   7    6.76    6.48
 -14  -3   7   -2.85    6.13
  14   3   7   -6.57    9.19
  14   2  -7  -13.57   11.20
  14   2  -7    2.27    6.86
 -14  -2  -7    1.98    5.13
  14   2   7  -14.31    6.90
 -14  -2   7    3.56    4.79
 -14  -2   7   -0.74    4.71
  14   1  -7    0.66   11.04
  14   1  -7   -1.14    6.59
 -14  -1  -7    0.66    5.42
 -14  -1   7    6.89    5.12
 -14  -1   7    5.86    5.45
  14   1   7    1.47    7.37
  14   0  -7   22.22    9.81
  14   0  -7    7.02    6.69
 -14   0  -7   -4.61    5.62
 -14   0   7   -4.72    5.84
 -14   0   7    0.82    3.88
  14   0   7    3.69   10.08
  14   0   7    0.69    6.93
 -14   1  -7   -3.74    7.68
  14  -1  -7   -1.27    7.03
 -14   1  -7    7.63    5.94
  14  -1   7    2.65   10.86
  14  -1   7    0.68    8.42
 -14   1   7   19.93    7.22
 -14   2  -7    7.54    7.97
 -14   2  -7    1.94    6.16
  14  -2   7  -35.01   12.60
  14  -2   7    5.81    8.44
 -14   3  -7    0.98    8.69
 -14   3  -7   17.64    8.55
  14  -3   7   36.83   10.38
  14  -3   7   23.61   14.87
 -14   3   7    2.05    7.78
 -14   4  -7    2.01    6.44
 -14   4  -7   10.81    6.76
  14  -4   7    0.77   12.34
  14  -4   7    3.30    7.93
 -14   5  -7   -4.19    6.40
 -14   5  -7    5.28    6.30
  14  -5   7   -4.82   11.59
  14  -5   7   -9.55    7.02
 -14   6  -7    3.56    7.53
 -14   6  -7    3.36    6.70
  14  -6   7   20.87   12.57
  14  -6   7    7.05    7.93
 -14   7  -7    1.17    5.60
 -14   7  -7    2.16    6.75
  14  -7   7    0.89   11.86
  14  -7   7    0.63    6.81
  14  -8   7   -6.36    7.57
 -15  -4  -7    3.72    5.13
  15   4   7   -0.63    9.30
 -15  -3  -7   -2.20    5.33
  15   3   7   -6.16   10.04
  15   3   7   -7.14    7.82
 -15  -2  -7   -0.73    6.25
 -15  -2   7    2.49    5.67
  15   2   7  -17.22    8.42
 -15  -1  -7   -3.66    5.69
 -15  -1   7    0.86    5.30
  15   1   7    0.81    7.77
  15   0  -7   16.05   11.94
 -15   0  -7    6.62    6.89
 -15   0  -7   -1.04    7.51
  15   0  -7   -0.68    7.34
  15   0   7   19.90   11.84
 -15   0   7    3.64    6.10
  15   0   7   10.35    9.07
 -15   1  -7   -2.13    7.02
 -15   1  -7    7.28    7.96
  15  -1  -7   -9.84    7.95
  15  -1  -7    2.38   11.18
  15  -1   7    3.76    8.77
  15  -1   7    5.18   12.05
 -15   1   7    3.67    7.25
 -15   1   7    2.94    5.65
  15  -2  -7    3.37   11.58
  15  -2  -7    2.27    8.49
 -15   2  -7    2.16    6.74
 -15   2  -7   -6.46    8.14
 -15   2   7   -2.44    8.00
  15  -2   7   17.84   12.88
 -15   2   7  -13.59    5.26
  15  -2   7   -2.25    9.34
  15  -3  -7    5.56    8.88
 -15   3  -7   -2.17    6.88
 -15   3  -7   -1.10    7.45
  15  -3   7  -18.09    7.68
 -15   3   7   -2.22    6.21
  15  -3   7   -6.51   12.97
 -15   4  -7    4.55    7.15
 -15   4  -7    1.49    6.80
  15  -4   7    0.84   12.86
  15  -4   7    2.18    7.99
 -15   5  -7    1.52    7.30
 -15   5  -7   -2.35    6.90
  15  -5   7    0.70    7.63
  15  -5   7    5.28   12.90
 -15   6  -7   -0.78    7.25
 -15   6  -7    1.24    7.00
  15  -6   7    2.09    7.39
  15  -6   7    4.56   12.64
 -15   7  -7    7.74    6.92
 -15   7  -7    7.07    7.53
  15  -7   7   -1.40    8.18
  15  -7   7   -5.78   12.02
 -15   8  -7    2.69    7.33
  15  -8   7   12.38    8.37
 -16  -4  -7    0.82    5.47
 -16  -4   7   -5.23    6.39
  16   4   7   -2.79   11.96
 -16  -4   7   -0.91    7.10
 -16  -3  -7   -4.05    5.74
  16   3  -7    8.89   13.34
  16   3  -7   -0.71    7.58
  16   3   7  -12.37   11.44
  16   3   7    0.97    8.88
 -16  -3   7   -3.95    6.22
 -16  -3   7   10.10    6.41
 -16  -2  -7   -1.62    6.76
  16   2  -7    7.89    7.77
  16   2  -7    7.24   12.87
  16   2   7   -4.72    9.36
 -16  -2   7   -6.50    5.89
 -16  -2   7    2.60    6.21
  16   2   7    7.24   11.88
  16   1  -7   -1.63   12.76
  16   1  -7    3.58    7.97
 -16  -1  -7   -2.44    6.93
 -16  -1   7   -2.74    6.33
  16   1   7    0.89    8.11
 -16  -1   7   -1.93    6.17
 -16   0  -7   -6.89    8.12
 -16   0  -7    2.46    7.26
  16   0  -7  -10.68    9.20
  16   0  -7   13.46   12.37
 -16   0   7    2.20    7.30
 -16   0   7   -1.01    5.68
  16   0   7    1.76    8.49
 -16   1  -7    4.13    7.47
 -16   1  -7    8.10    8.01
  16  -1  -7   20.83   12.92
  16  -1  -7    3.11    9.76
  16  -1   7   19.76   13.63
 -16   1   7    8.05    8.52
  16  -1   7    0.83    9.53
 -16   1   7   -1.08    6.15
  16  -2  -7    1.67    9.52
 -16   2  -7   -1.20    7.94
  16  -2  -7  -15.57   13.48
 -16   2  -7   -0.80    7.48
 -16   2   7   -1.14    5.80
  16  -2   7    8.67   14.22
 -16   2   7   22.29    9.14
  16  -2   7    7.44    9.28
 -16   3  -7    8.96    7.92
  16  -3  -7   12.12    9.83
 -16   3  -7    7.38    8.28
 -16   3   7   -1.21    5.82
  16  -3   7    3.17    8.38
 -16   3   7  -17.51    9.70
  16  -3   7   -0.89   13.90
  16  -4  -7    5.54   10.64
 -16   4  -7   11.43    7.76
 -16   4  -7    6.36    8.06
  16  -4   7  -30.55   14.55
  16  -4   7    0.80    8.72
 -16   5  -7    2.62    8.29
 -16   5  -7    2.50    7.82
  16  -5   7   -7.72   13.92
  16  -5   7    3.97    8.96
 -16   6  -7   -0.84    8.27
 -16   6  -7   -1.38    7.37
  16  -6   7  -15.96   14.08
  16  -6   7   -0.76    8.48
 -16   7  -7   -1.42    8.26
 -16   7  -7    9.41    9.60
  16  -7   7   19.78    9.36
  16  -7   7    6.29   14.44
 -16   8  -7   -0.86    8.82
 -16   8  -7    4.42    7.92
  16  -8   7    5.34    8.07
 -17  -4  -7    2.69    6.25
  17   4   7  -13.23   14.40
 -17  -3  -7   -1.79    6.79
  17   3  -7   14.96    9.25
  17   3   7   -2.42   13.14
 -17  -3   7   11.84    6.84
  17   3   7    4.26    9.06
 -17  -3   7   -1.03    6.75
  17   2  -7    2.69   15.50
 -17  -2  -7    8.08    7.03
  17   2  -7   10.50    8.99
  17   2   7    0.81   13.20
 -17  -2   7    2.93    6.86
  17   2   7    7.26   10.29
 -17  -2   7    2.08    6.69
 -17  -1  -7    8.15    8.06
  17   1  -7   -7.56   10.28
  17   1  -7  -22.79   16.50
  17   1   7   -5.88    9.88
 -17  -1   7   -1.07    7.38
 -17  -1   7   -2.31    7.98
  17   0  -7   10.22    9.66
  17   0  -7    6.48   14.20
 -17   0  -7    0.92    7.59
 -17   0   7   -4.46    7.59
 -17   0   7   13.04    8.27
  17   0   7  -11.66   10.36
  17  -1  -7    2.70   10.96
  17  -1  -7   -2.85   14.13
 -17   1  -7  -10.14    8.63
 -17   1  -7   -1.29    9.66
 -17   1   7   -8.92    9.68
  17  -1   7  -36.96   11.04
  17  -1   7  -60.25   16.69
 -17   1   7    1.19    7.21
  17  -2  -7   -1.99   14.29
  17  -2  -7   -7.33   10.73
 -17   2  -7   16.98    8.61
 -17   2  -7    1.34    8.75
  17  -2   7  -37.29   16.21
  17  -2   7   17.35   10.35
 -17   2   7  -16.68   10.20
 -17   2   7   -3.73    6.62
 -17   3  -7    0.90    8.99
 -17   3  -7   -5.48    8.24
  17  -3   7   -0.98   14.97
 -17   3   7  -25.55   11.54
  17  -3   7   12.14    9.19
 -17   4  -7    2.70    9.06
  17  -4  -7  -18.04   11.47
 -17   4  -7   -1.42    8.18
  17  -4   7    0.87    9.90
  17  -4   7   -4.11   15.03
 -17   5  -7  -10.94    9.04
 -17   5  -7    7.33    8.54
  17  -5   7  -15.88   16.79
  17  -5   7   -2.61    9.72
 -17   6  -7   -3.07    9.42
 -17   6  -7    1.84    9.15
  17  -6   7   28.38   15.40
  17  -6   7   -0.83    9.80
 -17   7  -7    0.93    8.86
 -17   7  -7   -1.58    8.04
  17  -7   7  -14.87   15.00
  17  -7   7    9.10    9.28
 -17   8  -7    1.62    8.61
 -17   8  -7    5.63    9.84
  17  -8   7   19.10   11.81
 -18  -4  -7   -4.95    7.30
  18   4   7   16.54   14.57
 -18  -3  -7   -4.95    7.45
  18   3   7    1.17   11.75
 -18  -3   7  -27.78    8.33
  18   3   7  -11.74   16.28
 -18  -2  -7   -6.97    7.11
  18   2  -7  -11.00   15.82
  18   2  -7   -1.82    9.73
 -18  -2   7    5.79    7.40
 -18  -2   7   15.45    7.98
  18   2   7  -21.68   12.05
  18   2   7  -29.91   15.93
 -18  -1  -7   14.11    8.69
  18   1  -7    1.88   10.63
  18   1  -7   23.24   15.91
  18   1   7   22.80   16.53
 -18  -1   7   19.93    9.17
 -18  -1   7   -1.20    8.57
  18   1   7   -5.40   11.08
 -18   0  -7   -5.11    8.57
  18   0  -7  -11.38   10.22
  18   0  -7    8.16   15.03
 -18   0   7    8.66    7.39
  18   0   7    3.22   10.39
 -18   0   7   -1.85    8.81
  18  -1  -7    8.34   15.07
 -18   1  -7   11.71   10.26
  18  -1  -7   -1.00   10.75
 -18   1  -7    2.06    9.08
 -18   1   7   -9.14    6.98
  18  -1   7    1.02   10.48
 -18   1   7   13.82   10.27
  18  -2  -7  -16.30   15.74
  18  -2  -7   -7.08   12.54
 -18   2  -7   -2.99    8.91
 -18   2  -7    8.96    9.56
  18  -2   7    3.04    9.82
 -18   2   7   10.72   10.91
 -18   2   7    1.36    7.20
  18  -2   7   -2.11   16.34
  18  -3  -7   -1.07   12.95
 -18   3  -7   -1.53   10.64
 -18   3  -7   -6.00   10.08
  18  -3   7   -4.34   16.77
 -18   3   7  -24.50   12.30
  18  -3   7  -27.07   10.64
 -18   3   7    1.43    8.00
 -18   4  -7   13.11    9.98
 -18   4  -7    1.59    9.36
  18  -4   7   -0.96   11.47
  18  -4   7    1.13   17.36
 -18   4   7  -13.76   13.41
 -18   5  -7   11.47   10.22
 -18   5  -7  -14.98   10.34
  18  -5   7  -17.19   11.30
  18  -5   7    3.48   17.28
 -18   6  -7   -1.71   10.72
  18  -6   7    0.95   12.74
 -18   7  -7   -5.06   10.72
 -18   7  -7    1.75    9.17
  18  -7   7   10.01   17.47
  18  -7   7    9.03   10.20
 -18   8  -7    2.05   10.61
 -18   8  -7   -7.18    9.59
  18  -8   7    0.90    9.75
 -19  -4  -7   -4.37    8.27
  19   4   7  -26.69   18.24
 -19  -3  -7   -7.68    7.72
  19   3   7   -1.28   11.73
  19   3   7   10.12   17.81
 -19  -2  -7   12.54   11.85
 -19  -2  -7   13.29    8.73
  19   2   7    2.52   12.52
 -19  -2   7    1.31    8.80
  19   2   7  -35.47   18.14
 -19  -2   7    5.80    8.84
  19   1  -7   28.04   18.40
  19   1  -7    7.38   11.44
 -19  -1  -7   -3.12   11.39
 -19  -1  -7  -16.83   10.42
 -19  -1   7   -4.88    9.58
  19   1   7  -43.01   15.80
 -19  -1   7    4.00    9.04
  19   1   7  -54.11   21.80
  19   0  -7   36.00   18.11
  19   0  -7    8.42   11.99
 -19   0  -7  -23.91   12.86
  19   0   7  -20.20   16.02
 -19   0   7   -4.13    9.50
 -19   0   7  -13.47   10.78
  19  -1  -7    1.12   12.13
  19  -1  -7  -13.87   18.01
 -19   1  -7  -13.80   12.58
 -19   1   7    7.20    8.29
  19  -1   7  -21.28   15.59
 -19   1   7  -18.62   12.14
  19  -2  -7  -39.23   17.62
 -19   2  -7   11.66   11.63
  19  -2  -7   -1.17   13.62
 -19   2  -7   -2.31   10.68
 -19   2   7   15.40   12.49
 -19   2   7   11.95    8.13
  19  -2   7  -17.92   13.21
 -19   3  -7    7.80   11.02
 -19   3  -7    3.45   10.82
  19  -3  -7    5.87   13.74
  19  -3   7   -2.38   18.96
  19  -3   7   19.89   12.16
 -19   3   7    1.56    9.02
 -19   3   7    6.35   13.11
 -19   4  -7    2.23   10.58
 -19   4  -7    1.77   11.64
  19  -4   7  -14.88   20.03
  19  -4   7    5.22   11.73
 -19   5  -7   -1.83   12.91
 -19   5  -7    5.50   11.56
  19  -5   7  -10.18   20.03
  19  -5   7   19.88   12.30
 -19   6  -7   11.42   10.71
 -19   6  -7   -2.21   11.59
  19  -6   7    3.12   11.66
  19  -6   7   -2.65   18.37
 -19   7  -7   -3.33   11.75
 -19   7  -7   17.53    9.88
  19  -7   7    6.86   17.44
  19  -7   7   -9.26   11.30
 -20  -3  -7  -14.63    8.67
  20   3   7   -8.48   12.91
 -20  -2  -7    8.63   10.44
  20   2   7    8.35   14.36
 -20  -1  -7   -8.75    9.54
  20   1  -7   -7.12   13.61
 -20  -1  -7    1.74   12.24
  20   1   7  -15.88   13.42
 -20  -1   7   -9.90   10.47
 -20  -1   7    1.49    8.25
  20   1   7   24.96   19.54
  20   0  -7   -4.98   18.36
 -20   0  -7    8.89   11.22
  20   0  -7   21.00   13.78
 -20   0   7    1.55    8.89
 -20   0   7    8.13   10.93
  20   0   7  -10.52   13.08
  20   0   7  -25.43   19.41
  20  -1  -7   20.36   18.04
 -20   1  -7    1.28   11.48
  20  -1  -7   -4.96   13.47
  20  -1   7   -1.31   13.63
 -20   1   7    3.18    9.19
 -20   1   7   22.34   12.17
  20  -2  -7   -7.83   17.00
 -20   2  -7    1.29   12.24
  20  -2  -7   41.63   15.01
 -20   2   7   13.09   13.35
 -20   2   7    1.64    9.51
  20  -2   7    1.24   13.51
  20  -3  -7   11.69   14.10
 -20   3  -7   18.62   11.64
  20  -3   7    3.67   12.96
 -20   3   7   -5.11   10.33
 -20   3   7  -15.42   14.43
 -21  -1   7  -10.02   10.09
  21   0  -7   30.32   22.13
  21   0  -7    1.38   15.63
 -21   0   7    1.72    9.67
 -21   0   7    3.92   12.90
  21  -1  -7    6.87   14.22
  21  -1  -7    2.81   19.26
 -21   1   7  -12.47   13.13
 -21   1   7   -5.29    9.67
  21  -2  -7  -18.82   15.77
 -21   2   7    4.35   15.09
   0   0  -8   13.14    7.39
   0   0  -8   12.12    6.29
   0   0   8   16.27    7.22
   1   0  -8   -0.23    1.54
   0   1  -8   -0.55    2.33
  -1   0  -8    0.19    1.48
   1   0  -8    1.35    2.47
   0   1  -8    0.30    1.38
  -1   0   8   -0.18    2.33
   0  -1   8   -0.99    2.22
  -1   1  -8   24.29   12.54
   1   1  -8   33.88   13.57
   1   1  -8   47.76   12.16
  -1   1  -8   32.25   13.91
   1  -1   8   25.68   14.85
  -1  -1   8   19.11   13.66
   1  -1   8   19.52   13.85
  -1   2  -8    4.41    2.72
  -1   2  -8    3.48    1.93
   2   1  -8    3.62    2.91
  -1   2  -8    3.76    1.77
   1  -2   8    3.30    2.59
   1  -2   8    4.68    2.30
  -2  -1   8    2.72    2.87
   1  -2   8    3.85    2.22
   0   2  -8   11.61    5.71
   0   2  -8   13.62    4.60
   2   0  -8    9.03    6.39
  -2   0   8    3.75    6.26
   0  -2   8   11.08    5.59
  -2   1  -8    0.24    1.74
  -2   1  -8    4.50    3.11
  -2   1  -8    5.86    2.17
   1   2  -8    5.39    2.74
   1   2  -8    7.01    2.00
   2  -1   8    3.15    2.39
  -1  -2   8    1.93    2.70
   2  -1   8    3.45    2.55
   2  -1   8    2.55    2.92
   2   2  -8    1.09    2.41
  -2   2  -8    1.35    1.25
  -2   2  -8    1.84    2.07
  -2   2  -8    1.46    1.07
   2  -2   8    1.37    1.60
   2  -2   8    2.16    2.03
   2  -2   8    0.56    2.01
  -2   3  -8    2.75    1.65
  -2   3  -8    3.80    1.65
   3   2  -8    1.27    2.35
  -2   3  -8    2.44    2.40
  -2   3  -8    2.29    1.81
   3   2  -8    2.48    1.60
   2  -3   8    4.46    2.03
  -3  -2   8    3.25    1.44
  -3  -2   8    3.32    1.57
   2  -3   8    2.30    3.02
   2  -3   8    4.75    2.44
   2  -3   8    3.15    1.76
  -1   3  -8    9.31    4.01
  -1   3  -8    6.62    4.79
  -1   3  -8    8.36    4.07
  -1   3  -8   11.24    3.91
   1  -3   8    8.56    4.83
   1  -3   8   10.14    3.85
   1  -3   8   13.68    5.34
   1  -3   8    9.17    4.23
  -3   0  -8    0.17    0.88
   0   3  -8    0.55    1.42
   0   3  -8    0.44    1.96
   0  -3   8   -0.45    1.42
   3   0   8   -1.10    1.51
   1   3  -8    7.08    4.42
  -3   1  -8    5.48    5.34
  -3   1  -8    3.72    3.62
  -3   1  -8    5.55    4.02
   3  -1   8   10.28    4.49
   3  -1   8   11.50    4.60
   3  -1   8    7.02    5.18
  -3   2  -8    2.82    2.50
  -3   2  -8    3.04    1.66
  -3   2  -8    4.30    1.74
   3  -2   8    2.69    2.40
   3  -2   8    3.73    2.80
   3  -2   8    2.23    2.19
  -3   3  -8   75.45   21.99
  -3   3  -8   70.62   23.55
  -3   3  -8   56.93   22.28
  -3   3  -8   59.59   22.21
   3   3  -8   69.39   24.56
   3  -3   8   66.49   23.30
   3  -3   8   75.15   21.66
   3  -3   8   62.48   24.15
   3  -3   8   69.16   22.84
   4   3  -8   19.72   16.20
  -3   4  -8   29.16   12.09
   4   3  -8   27.62   13.06
   4   3  -8   36.85   11.28
   4   3  -8   24.55   14.45
  -3   4  -8   34.46   13.90
  -3   4  -8   24.42   11.90
   3  -4   8   30.18   11.66
  -4  -3   8   33.83   11.06
  -4  -3   8   28.19   13.22
  -4  -3   8   15.28   12.91
   3  -4   8   33.61   13.36
   3  -4   8   25.49   14.91
   4   2  -8   15.53    7.58
   4   2  -8   15.40    6.85
  -2   4  -8   14.86    6.73
  -2   4  -8   13.77    6.67
  -2   4  -8   16.60    7.70
   4   2  -8   21.52    6.27
   4   2  -8   12.93    9.46
   2  -4   8   11.90    7.54
  -4  -2   8   15.09    7.73
   2  -4   8   16.17    6.35
  -4  -2   8   13.34    6.24
  -4  -2   8   16.94    7.10
   4   1  -8   -0.95    1.83
  -1   4  -8    2.87    1.60
  -1   4  -8    0.15    2.22
   4   1  -8    0.13    1.52
   1  -4   8    2.57    1.61
   1  -4   8    0.19    1.45
  -4   0  -8    5.49   10.43
   4   0   8   60.03   12.11
  -4   1  -8   -0.45    1.12
  -4   1  -8   -0.18    1.33
   1   4  -8    0.39    1.88
   4  -1   8    0.15    2.21
  -1  -4   8   -1.40    1.78
   4  -1   8   -0.64    2.53
  -4   2  -8   11.87    7.44
  -4   2  -8   13.78    6.08
   2   4  -8   13.93    6.38
  -4   2  -8   14.83    6.09
   2   4  -8   16.59    7.30
   4  -2   8   12.73    6.81
   4  -2   8   13.88    7.73
  -2  -4   8   18.04    5.97
   4  -2   8   11.18    7.22
  -4   3  -8   25.11   12.09
   3   4  -8   32.19   13.64
   3   4  -8   35.25   13.30
  -4   3  -8   20.47   11.61
  -4   3  -8   26.36   13.49
  -4   3  -8   29.22   11.96
   4  -3   8   33.33   14.30
   4  -3   8   29.86   13.10
   4  -3   8   28.32   12.74
   4  -3   8   31.77   11.36
   4   4  -8   33.45   14.86
   4   4  -8   26.65   12.79
  -4   4  -8   38.84   15.93
   4   4  -8   25.48   14.60
   4  -4   8   27.66   14.72
  -4  -4   8   26.62   12.13
   4  -4   8   25.99   13.32
  -4   5  -8    2.57    2.12
   5   4  -8    1.24    2.44
   5   4  -8    2.67    3.00
   5   4  -8    2.50    2.39
  -5  -4   8    0.13    1.13
  -5  -4   8   -0.53    2.25
   5   3  -8   59.19   23.98
  -3   5  -8   60.48   25.19
   5   3  -8   43.52   28.17
   5   3  -8   54.85   20.75
   5   3  -8   45.42   26.81
  -5  -3   8   62.06   20.33
   3  -5   8   45.65   25.60
  -5  -3   8   50.14   23.53
  -5  -3   8   45.92   24.49
   5   2  -8    9.19    3.74
  -2   5  -8    9.22    4.57
   5   2  -8    7.32    4.95
   5   2  -8    6.07    4.04
   5   2  -8    4.85    5.81
  -5  -2   8    6.53    5.20
  -5  -2   8    8.93    4.11
  -5  -2   8    9.85    3.61
   5   1  -8   65.67   16.87
   5   1  -8   46.40   18.20
   5   1  -8   48.09   25.46
   5   1  -8   53.23   20.21
  -5  -1  -8   -0.24   17.65
  -5  -1   8   32.99   21.00
  -5  -1   8   42.63   19.66
   5   0  -8    5.30    3.48
   0   5  -8    1.68    2.10
   5   0  -8    1.05    2.59
   0   5  -8    0.25    2.25
   5   0  -8    1.29    2.16
   5   0   8   -0.51    2.43
   0  -5   8    0.26    2.02
  -5   0   8    3.45    3.36
   1   5  -8   67.28   20.31
   5  -1  -8   58.41   21.49
  -5   1  -8   49.20   21.84
   1   5  -8   54.36   21.63
  -1  -5   8   37.99   19.50
  -5   2  -8    9.66    3.82
   2   5  -8    9.26    4.91
   2   5  -8    7.18    4.36
  -5   2  -8    7.14    5.31
  -2  -5   8    7.53    4.19
   5  -2   8    9.64    3.49
   5  -2   8    8.24    5.06
  -5   3  -8   51.44   25.07
   3   5  -8   57.19   23.95
  -5   3  -8   51.00   21.50
  -5   3  -8   44.86   22.65
   5  -3   8   64.99   21.93
   5  -3   8   54.35   26.07
   5  -3   8   46.66   23.87
  -5   4  -8    1.37    2.19
  -5   4  -8    3.10    2.12
   4   5  -8    1.99    2.22
   4   5  -8    0.77    3.17
   4   5  -8    0.88    2.75
  -4  -5   8    0.60    2.57
   5  -4   8    1.46    4.50
   5   5  -8   35.18   13.92
   5   5  -8   36.41   13.46
   5   5  -8   26.23   12.05
  -5   5  -8   31.71   12.03
  -5   5  -8   26.58   14.29
  -5  -5   8   28.13   11.56
   5  -5   8   22.44   13.65
   5  -5   8    7.38   15.72
   6   5  -8   15.98    6.65
   6   5  -8   13.31    7.54
   6   5  -8   15.95    7.36
  -6  -5   8   14.15    6.39
   5  -6   8    9.95    7.20
   6   4  -8   29.41   13.24
   6   4  -8   24.71   11.87
   6   4  -8   27.84   13.83
  -6  -4   8   32.50   11.53
   6   3  -8   65.00   26.03
   6   3  -8   61.47   33.72
   6   3  -8   57.60   33.39
   6   3  -8   68.48   30.20
  -6  -3   8   72.65   25.58
  -6  -3   8   79.86   28.83
  -6  -3   8   57.68   31.04
   6   2  -8   30.97   11.38
   6   2  -8   31.84   12.47
   6   2  -8   22.99   10.06
   6   2  -8   22.02   15.08
  -6  -2   8   17.58   12.96
  -6  -2   8   25.06   11.33
  -6  -2   8   23.94   10.34
   6   1  -8    4.16    5.71
   6   1  -8    9.48    5.01
   6   1  -8   12.93    3.85
  -1   6  -8    8.55    4.38
   6   1  -8    9.45    3.96
  -6  -1  -8    1.11    3.77
   6   1   8    6.31    4.94
   6   1   8    9.69    4.57
  -6  -1   8    6.28    5.27
  -6  -1   8   13.28    4.12
   6   0  -8    6.71    2.90
   0   6  -8    2.22    2.81
  -6   0  -8    1.57    2.02
   6   0  -8    4.05    3.90
   0   6  -8    0.22    2.69
   0  -6   8    3.47    2.66
   6   0   8    4.10    3.28
   6   0   8    2.24    3.05
  -6   0   8   -0.87    3.73
   1   6  -8    6.71    4.17
   1   6  -8    8.24    4.34
  -6   1  -8   10.62    3.68
  -6   1  -8    6.32    3.51
   6  -1  -8    4.52    4.87
  -6   1   8    7.84    5.62
  -1  -6   8   11.27    4.12
   6  -1   8    8.21    5.04
   6  -1   8    4.61    4.30
   2   6  -8   15.34   11.35
  -6   2  -8   19.02   11.24
  -6   2  -8   27.23   10.93
   2   6  -8   21.24   12.18
   6  -2   8   27.77   11.98
   6  -2   8   35.58   13.64
   6  -2   8   31.12   10.45
  -2  -6   8   30.33   11.07
  -6   3  -8   80.91   27.48
  -6   3  -8   58.37   31.40
   3   6  -8   62.53   29.62
  -6   3  -8   78.81   26.95
   6  -3   8   49.01   30.05
   6  -3   8   80.18   29.26
   6  -3   8   49.23   32.59
   4   6  -8   25.47   12.73
  -6   4  -8   27.75   11.31
  -6   4  -8   25.53   13.86
   4   6  -8   17.48   11.72
  -4  -6   8   26.46   11.39
   6  -4   8   22.12   12.76
   6  -4   8   38.19   14.95
   5   6  -8   13.06    7.33
   5   6  -8    9.99    7.66
  -6   5  -8   14.05    6.13
   5   6  -8    9.87    6.57
  -6   5  -8   16.09    7.28
   6  -5   8   12.56    7.05
  -5  -6   8   14.56    6.32
   6  -5   8   13.99    8.70
   6   6  -8    2.73    4.45
   6   6  -8   -2.30    4.01
  -6   6  -8    1.72    2.32
  -6  -6   8   -0.40    3.45
   6  -6   8    1.48    3.31
   7   6  -8    0.45    3.93
   7   6  -8    1.10    4.94
   7   6  -8   -1.21    3.83
  -7  -6   8   -1.71    3.79
   6  -7   8    0.92    3.39
   7   5  -8    0.69    3.34
   7   5  -8    2.87    4.25
   5  -7   8   -0.54    2.93
  -7  -5   8    3.60    3.30
   7   4  -8   56.78   21.26
   7   4  -8   54.96   23.50
  -7  -4   8   54.23   23.86
  -7  -4   8   49.34   20.60
   7   3  -8   17.06   10.32
   7   3  -8   22.87    8.81
  -7  -3   8   26.45    8.68
  -7  -3   8   21.27   10.75
   7   2  -8   54.08   15.35
   7   2  -8   49.19   18.89
  -7  -2  -8   -0.33   16.55
  -7  -2   8   16.85   19.94
   7   2   8   54.37   19.14
  -7  -1  -8    2.51    5.82
   7   1  -8   18.65    5.65
   7   1  -8    6.48    7.65
  -7  -1   8    4.56    7.93
   7   1   8   19.49    7.42
  -7  -1   8   17.52    6.37
   7   1   8   14.62    7.02
   7   0  -8  -10.60    5.67
  -7   0  -8   -0.30    3.15
   7   0  -8  -18.24    7.15
   7   0  -8  -16.11    4.33
   7   0  -8   -9.57    3.86
  -7   0   8  -11.68    6.04
   7   0   8   -3.17    4.41
   7   0   8   -1.18    4.30
  -7   0   8   -1.20    3.31
   7  -1  -8   12.15    7.77
  -7   1  -8   18.28    6.91
   7  -1  -8   25.76    7.87
  -7   1   8    7.65    9.63
   7  -1   8   15.58    8.67
   7  -1   8   20.45    7.75
   2   7  -8   28.62   19.92
  -7   2  -8   60.72   18.25
   7  -2   8   46.95   19.75
   7  -2   8   69.20   22.31
  -2  -7   8   29.50   18.40
  -7   3  -8   16.65    8.35
  -7   3  -8   14.31    8.13
   3   7  -8   20.62    9.43
   7  -3   8   23.21    9.12
   7  -3   8   14.69   10.74
  -3  -7   8    8.73    8.17
   4   7  -8   47.62   21.07
  -7   4  -8   35.78   19.96
  -7   4  -8   35.92   18.64
   7  -4   8   46.79   23.63
   7  -4   8   34.82   21.06
   5   7  -8   -0.43    3.77
   5   7  -8    2.95    4.81
  -7   5  -8    2.03    2.78
   7  -5   8    5.46    6.02
  -5  -7   8    3.24    3.63
   7  -5   8    3.50    3.98
   6   7  -8    1.58    5.02
  -7   6  -8   -1.82    3.49
   6   7  -8   -0.89    3.63
   7  -6   8    0.99    6.33
  -6  -7   8   -0.48    3.35
   7  -6   8    0.33    3.64
   7   7  -8    1.28    5.41
   7   7  -8    2.34    3.95
  -7  -7   8    3.55    4.32
   7  -7   8    3.42    3.95
   8   7  -8    1.82    6.07
   8   7  -8   -1.96    4.26
  -8  -7   8    2.14    4.45
   8   6  -8    7.76    6.28
   8   6  -8    6.85    5.75
   8   6  -8    4.26    5.06
  -8  -6   8   11.88    4.98
   8   5  -8    1.54    4.09
   8   5  -8   -2.99    4.43
   8   5  -8   -1.00    4.60
   8   5  -8    1.10    3.76
  -8  -5   8   -1.05    1.78
  -8  -5   8    1.15    3.35
   8   4  -8    1.82    3.13
   8   4  -8    0.30    4.05
   8   4  -8    0.32    3.27
   8   4  -8    2.01    4.73
  -8  -4   8    0.50    2.17
  -8  -4   8   -9.66    4.93
  -8  -4   8   -2.96    3.10
   8   3  -8   63.82   23.12
   8   3  -8   74.50   27.33
   8   3  -8   52.84   27.88
   8   3  -8   48.22   30.21
  -8  -3   8   47.78   22.80
  -8  -3   8   46.78   28.48
  -8  -3   8   58.34   24.72
  -8  -3   8   54.73   23.98
   8   2  -8    4.33    2.89
   8   2  -8    3.96    5.21
   8   2  -8    1.32    2.59
   8   2  -8   -4.46    3.88
  -8  -2  -8    1.47    2.65
  -8  -2   8    1.30    2.33
   8   2   8    2.92    3.53
  -8  -2   8    3.79    4.52
  -8  -2   8    0.34    2.48
   8   2   8    4.92    4.20
   8   1  -8   12.31    4.70
  -8  -1  -8    4.58    4.83
   8   1  -8   15.41    6.48
   8   1  -8    9.46    5.14
   8   1  -8    5.89    7.69
  -8  -1   8   13.32    4.83
  -8  -1   8   11.79    5.15
  -8  -1   8    2.71    6.91
   8   1   8   12.80    6.22
   8   1   8   13.25    6.02
   8   0  -8   14.91    5.39
   8   0  -8   15.52    5.02
  -8   0  -8    5.41    4.94
   8   0  -8   -1.16    7.65
   8   0  -8   16.95    6.90
   8   0   8    9.81    6.18
  -8   0   8   10.06    5.20
   8   0   8    9.44    5.85
  -8   0   8    7.05    7.16
   8  -1  -8   12.32    5.58
  -8   1  -8    9.71    4.69
   8  -1  -8    5.11    5.60
   8  -1   8   10.19    6.43
  -8   1   8   12.55    5.15
   8  -1   8    3.52    5.65
  -8   1   8   10.10    7.12
  -8   2  -8    5.91    2.95
   8  -2  -8    3.01    4.11
   8  -2   8    2.01    3.76
   8  -2   8   -0.33    5.29
  -8   3  -8   74.72   27.07
  -8   3  -8   68.60   26.93
   8  -3   8   62.81   28.45
   8  -3   8   60.55   31.84
  -8   4  -8    2.16    3.32
  -8   4  -8   -1.49    3.28
   8  -4   8   -2.87    6.13
   8  -4   8   -0.34    4.16
  -8   5  -8    1.67    2.89
   8  -5   8   -3.55    4.17
   8  -5   8    1.37    6.19
  -8   6  -8    7.12    4.15
   8  -6   8    7.67    5.29
   8  -6   8   -2.09    7.97
   7   8  -8   -1.00    6.25
   8  -7   8   -3.78    3.89
   8   8  -8   61.53   30.95
   9   8  -8    9.69    8.54
   9   7  -8   19.06    9.44
   9   7  -8   26.57   11.20
  -9  -7   8   10.73    9.54
   9   6  -8    6.66    6.48
   9   6  -8    7.64    5.26
  -9  -6   8    6.80    5.26
   9   5  -8    5.54    5.09
   9   5  -8    4.14    4.95
   9   5  -8    0.43    4.35
   9   5  -8    1.55    3.98
  -9  -5   8   -0.31    2.65
  -9  -5   8    2.06    3.93
   9   4  -8    1.57    4.90
   9   4  -8    1.61    3.64
   9   4  -8    1.79    5.41
   9   4  -8    2.51    3.76
  -9  -4   8    4.25    3.33
  -9  -4   8    0.29    2.62
  -9  -4   8   -0.47    5.23
   9   3  -8    3.69    5.16
   9   3  -8    8.93    6.33
   9   3  -8    6.03    4.34
   9   3  -8    6.67    3.69
  -9  -3   8    3.58    3.56
  -9  -3   8    2.05    3.54
  -9  -3   8    9.43    4.06
  -9  -3   8    8.86    5.81
   9   2  -8   -2.81    5.36
  -9  -2  -8   -0.82    2.54
   9   2  -8   -1.85    4.25
   9   2  -8    1.18    2.75
   9   2  -8    3.68    3.27
  -9  -2   8   -3.13    2.76
   9   2   8    3.24    4.20
   9   2   8   -0.53    4.33
  -9  -2   8    0.23    4.66
  -9  -2   8   -2.04    2.41
   9   1  -8    1.30    4.58
   9   1  -8    0.94    2.91
  -9  -1  -8   -1.18    2.89
   9   1  -8    3.09    5.82
   9   1  -8    0.88    3.29
  -9  -1   8    0.44    2.84
  -9  -1   8   -1.23    5.05
   9   1   8    6.30    4.36
  -9  -1   8    2.61    3.04
   9   1   8   11.23    4.50
   9   0  -8    2.70    3.84
   9   0  -8    1.88    3.10
   9   0  -8    1.13    4.83
  -9   0  -8   -0.76    3.09
   9   0  -8   -2.59    6.28
   9   0   8    2.19    4.29
  -9   0   8   -0.82    5.08
  -9   0   8    3.55    3.17
   9   0   8    7.51    5.09
   9  -1  -8   -3.19    4.16
   9  -1  -8    3.80    4.03
  -9   1  -8    0.72    2.89
   9  -1  -8    3.37    5.82
   9  -1   8    3.24    5.61
   9  -1   8   -0.40    4.07
  -9   1   8    1.70    3.25
  -9   1   8   -2.14    4.69
  -9   2  -8   -0.36    3.23
   9  -2  -8    1.40    4.79
   9  -2  -8    2.94    5.17
   9  -2   8    0.38    6.30
   9  -2   8   -2.29    4.28
  -9   3  -8    1.59    4.13
  -9   3  -8    6.03    4.31
   9  -3   8    8.96    4.85
   9  -3   8    8.06    7.09
  -9   4  -8    0.56    3.39
  -9   4  -8    2.03    4.07
   9  -4   8    5.43    4.50
   9  -4   8    5.50    7.10
  -9   5  -8    2.46    3.79
   9  -5   8   -3.51    7.18
   9  -5   8    8.66    4.69
  -9   6  -8    4.20    4.35
   9  -6   8    2.04    5.45
   9  -6   8   12.85    8.35
  -9   7  -8    7.07    8.21
   9  -7   8   26.10    9.35
   9  -8   8   -0.42    4.73
  10   8  -8   27.71   17.34
  10   7  -8    4.33    6.31
  10   7  -8   19.73    8.92
 -10  -7   8    4.78    6.33
  10   6  -8    5.21    5.25
  10   6  -8    8.55    6.71
 -10  -6   8   -0.52    5.59
  10   5  -8    7.81    5.64
  10   5  -8   10.85    6.87
  10   5  -8    9.81    7.28
  10   5  -8   21.23    6.86
 -10  -5   8    5.30    5.63
 -10  -5   8    5.48    7.35
 -10  -5   8    1.41    5.04
  10   4  -8    7.31    5.28
  10   4  -8    3.49    6.30
  10   4  -8    4.12    3.84
  10   4  -8    3.19    4.37
 -10  -4   8    3.30    3.19
 -10  -4   8    3.06    5.74
 -10  -4   8   -1.53    3.80
  10   3  -8    7.04    6.61
  10   3  -8    2.00    3.64
 -10  -3  -8   -0.93    3.27
  10   3  -8   -1.29    5.25
  10   3  -8    0.34    4.26
 -10  -3   8    3.37    3.40
  10   3   8    5.77    4.96
 -10  -3   8    0.41    2.88
 -10  -3   8    4.15    2.90
 -10  -3   8    2.45    5.79
 -10  -2  -8   -0.91    3.46
  10   2  -8    8.01    7.03
  10   2  -8    7.21    4.21
  10   2  -8    6.13    3.59
  10   2  -8   -3.91    5.05
 -10  -2   8   -0.31    3.90
  10   2   8    6.39    5.23
 -10  -2   8    3.83    3.45
  10   2   8   10.93    5.59
 -10  -2   8    0.25    5.92
 -10  -2   8    5.38    3.55
  10   1  -8   10.39    6.67
 -10  -1  -8   -0.88    3.05
  10   1  -8   -1.95    3.04
  10   1  -8    7.30    4.93
  10   1  -8   -2.70    3.78
 -10  -1   8    2.66    3.56
 -10  -1   8   -0.80    5.85
  10   1   8    3.40    5.16
  10   1   8   -5.65    4.42
 -10  -1   8    0.50    3.30
 -10   0  -8    8.58    6.29
  10   0  -8   11.61    8.81
  10   0  -8   18.42    6.92
  10   0  -8   11.44    5.91
  10   0  -8   21.02   10.01
 -10   0   8    7.85    6.60
  10   0   8   16.10    7.51
  10   0   8    9.25    8.32
 -10   0   8   15.31    9.36
  10  -1  -8    0.67    3.97
  10  -1  -8   -4.33    4.43
 -10   1  -8   -2.44    3.20
  10  -1  -8    6.87    6.69
 -10   1   8    5.05    3.36
  10  -1   8    0.45    4.86
  10  -1   8    2.86    6.36
 -10   2  -8    9.08    5.08
  10  -2  -8   15.57    6.34
  10  -2  -8    7.87    6.13
 -10   2  -8    1.80    5.20
  10  -2   8   23.36    7.88
  10  -2   8    5.59    5.90
 -10   3  -8    0.60    3.70
 -10   3  -8    2.98    4.15
  10  -3   8   -0.44    4.69
  10  -3   8    3.82    7.71
 -10   4  -8    3.82    4.08
 -10   4  -8    1.82    4.33
  10  -4   8   -8.17    7.80
  10  -4   8    6.05    5.04
 -10   5  -8    6.84    6.18
 -10   5  -8   13.38    7.03
  10  -5   8   25.20    7.20
  10  -5   8    2.20   10.13
 -10   6  -8    2.28    4.10
  10  -6   8    8.04    5.53
  10  -6   8    4.76    8.37
 -10   7  -8   11.74    5.56
  10  -7   8    4.67    9.92
  10  -7   8    6.32    6.31
  10  -8   8   33.23   15.57
  11   8  -8    5.05    9.79
  11   7  -8    4.27    8.22
  11   7  -8   -2.27    5.10
 -11  -7   8    2.53    5.31
  11   6  -8   15.78    9.03
  11   6  -8    8.01    7.79
 -11  -6   8   13.74    7.78
  11   5  -8    0.43    4.64
  11   5  -8    9.02    7.52
  11   5  -8   -1.03    4.80
  11   5  -8   -0.39    6.19
 -11  -5   8    1.45    6.54
 -11  -5   8   -1.58    3.24
 -11  -5   8    1.89    4.56
  11   4  -8    1.83    6.38
  11   4  -8    2.65    5.42
  11   4  -8    5.47    4.52
  11   4  -8    6.46    7.51
 -11  -4   8    1.43    3.73
 -11  -4   8    7.32    6.73
 -11  -4   8   10.68    4.64
 -11  -4   8    6.69    4.02
  11   3  -8    0.85    7.29
  11   3  -8   -4.30    4.46
  11   3  -8   -3.52    4.32
  11   3  -8   -1.35    5.04
 -11  -3  -8    2.57    3.17
 -11  -3   8    1.80    3.87
  11   3   8   10.74    6.08
 -11  -3   8    1.43    3.40
  11   3   8    0.77    5.37
 -11  -3   8    5.77    3.29
 -11  -3   8    1.31    6.21
 -11  -2  -8    1.00    3.32
  11   2  -8    4.63    3.35
  11   2  -8    4.98    7.34
  11   2  -8    9.39    4.47
  11   2  -8    4.83    5.14
 -11  -2   8    1.00    3.86
 -11  -2   8    1.36    3.68
  11   2   8  -12.77    6.40
 -11  -2   8    6.96    6.04
 -11  -2   8    0.51    3.46
  11   2   8  -18.09    6.91
  11   1  -8   17.64   10.10
  11   1  -8   26.49    8.73
  11   1  -8   18.34   13.30
 -11  -1  -8    6.37    9.59
  11   1  -8   23.75   11.93
 -11  -1   8   16.84   13.53
 -11  -1   8   24.00    9.74
  11   1   8   37.00   11.90
  11   1   8   16.93   11.25
 -11  -1   8   19.86    9.35
  11   0  -8    0.53    7.62
  11   0  -8    0.54    3.29
 -11   0  -8   -4.82    4.62
  11   0  -8    3.42    5.73
  11   0  -8   -6.29    4.64
  11   0   8  -27.66    6.48
 -11   0   8    1.86    3.61
 -11   0   8    0.44    4.30
 -11   0   8    6.97    5.96
  11   0   8    0.42    6.58
  11  -1  -8   28.82    9.39
  11  -1  -8   14.42   14.17
  11  -1  -8   43.72   10.62
 -11   1  -8   22.95   10.15
 -11   1   8   22.17   10.31
  11  -1   8    7.37   13.47
  11  -1   8   -2.51   11.42
  11  -2  -8    1.09    5.58
  11  -2  -8   11.29    5.33
 -11   2  -8   19.04    6.72
 -11   2   8   -4.52    4.15
  11  -2   8   -8.06   10.96
 -11   3  -8   -1.40    4.99
 -11   3  -8   -4.78    5.82
  11  -3  -8    0.61    6.04
  11  -3   8  -40.15   12.11
 -11   4  -8   -0.50    4.98
 -11   4  -8    1.44    4.71
  11  -4   8   14.19    9.12
  11  -4   8    3.84    5.61
 -11   5  -8   -1.53    4.60
 -11   5  -8    0.53    5.01
  11  -5   8    0.49    5.45
  11  -5   8    0.61    8.89
 -11   6  -8   11.66    7.40
  11  -6   8   11.61   11.44
  11  -6   8   19.02    8.28
 -11   7  -8    0.90    4.90
  11  -7   8    7.45    5.57
  11  -7   8  -12.74    9.54
  11  -8   8   10.46    6.86
  12   7  -8   -0.54    8.49
 -12  -7   8    5.34    6.07
  12   6  -8    6.83    5.58
  12   6  -8    4.72    7.53
 -12  -6   8   -6.14    7.91
 -12  -6   8    0.58    5.48
  12   5  -8   -1.61    6.53
  12   5  -8    2.29    4.96
 -12  -5   8   -2.17    7.11
 -12  -5   8   -2.19    3.40
 -12  -5   8    4.04    5.25
  12   4  -8   -1.16    4.34
  12   4  -8   -4.55    6.07
  12   4  -8   -2.45    6.05
  12   4  -8   -7.65    8.12
 -12  -4   8   -8.65    3.73
 -12  -4   8    0.83    4.07
 -12  -4   8    0.44    4.58
 -12  -4   8   -7.21    6.91
  12   3  -8   -1.77    4.75
  12   3  -8   -4.08    3.77
  12   3  -8   -3.41    8.53
  12   3  -8    1.46    5.25
 -12  -3  -8   -3.96    3.65
 -12  -3   8    4.25    4.09
  12   3   8    0.72    6.24
 -12  -3   8    1.16    3.61
 -12  -3   8    4.23    6.41
 -12  -3   8    0.54    3.88
  12   2  -8   23.89   13.24
  12   2  -8   29.79   14.71
 -12  -2  -8    6.09   12.46
  12   2  -8   30.42   11.70
  12   2  -8   28.54   16.87
 -12  -2   8   44.86   12.12
  12   2   8   23.76   14.67
  12   2   8   29.54   14.36
 -12  -2   8   32.19   12.48
 -12  -2   8   38.35   11.93
 -12  -2   8   16.92   16.67
  12   1  -8    2.17    5.02
 -12  -1  -8   -1.09    4.38
  12   1  -8   -3.73    3.54
  12   1  -8   -0.54    8.38
 -12  -1   8   -0.42    4.42
  12   1   8   -2.71    7.08
 -12  -1   8   -5.62    7.21
 -12  -1   8   -1.86    3.92
  12   1   8    0.62    5.93
  12   0  -8   65.76   26.63
  12   0  -8   31.74   33.93
 -12   0  -8   61.53   26.12
  12   0   8   67.37   30.34
 -12   0   8   44.28   27.07
  12   0   8   69.74   28.31
 -12   0   8   81.84   25.40
 -12   1  -8   -0.52    4.86
  12  -1  -8   -6.90    8.96
  12  -1  -8  -12.63    6.66
  12  -1   8    0.56    6.23
 -12   1   8    1.51    4.09
  12  -1   8    6.21    9.14
  12  -2  -8   21.09   13.79
 -12   2  -8   24.50   13.53
 -12   2  -8   32.44   12.63
  12  -2   8   29.39   13.78
  12  -2   8   32.14   17.16
 -12   2   8   19.72   13.34
  12  -3  -8   -4.58    6.90
 -12   3  -8    3.94    5.07
 -12   3  -8    2.67    4.99
  12  -3   8  -14.20    5.83
  12  -3   8    5.38    9.77
 -12   4  -8   -2.42    4.72
 -12   4  -8    5.01    5.66
  12  -4   8   -1.89   10.45
  12  -4   8   10.08    6.05
 -12   5  -8   -4.07    5.74
  12  -5   8   15.08    6.47
  12  -8   8   40.41   19.36
  13   7  -8   -1.10    9.83
 -13  -7   8   16.36    9.95
  13   6  -8   -0.55    5.72
  13   6  -8   -0.48    7.79
 -13  -6   8    7.84    8.60
 -13  -6   8    3.71    6.21
 -13  -5   8   -1.63    8.39
 -13  -5   8   -2.68    6.39
  13   4  -8   -0.54    6.36
  13   4  -8   -8.19    9.36
 -13  -4   8    6.72    4.31
 -13  -4   8    4.67    4.37
  13   3  -8   -0.55    9.83
  13   3  -8   12.46    5.86
 -13  -3   8    1.88    4.69
 -13  -3   8    1.75    4.42
  13   2  -8   -5.29    5.64
  13   2  -8   -7.99   10.00
 -13  -2   8   -0.65    4.77
 -13  -2   8   -4.02    4.40
  13   1  -8    0.51    9.45
  13   1  -8   14.26   13.34
 -13  -1   8   26.30    8.49
 -13  -1   8   25.59    8.66
  13   0  -8    1.27    8.97
  13   0  -8    0.54    5.82
 -13   0   8   -1.63    5.60
 -13   0   8   -5.99    4.98
  13  -1  -8   23.83   13.42
  13  -1  -8   -4.63   10.07
 -13   1   8   27.24    9.11
 -13   1   8   27.83    9.74
  13  -2  -8  -11.58    7.90
  13  -2  -8   -5.87   10.04
 -13   2   8   -9.81    4.97
  13  -3  -8   -1.40    7.53
 -13   4  -8    3.63    5.63
  13  -4   8   -0.70   10.79
 -13   5  -8   -1.90    6.96
 -13   5  -8   20.49    7.51
  13  -5   8   30.67    7.74
  13  -5   8   -5.86   11.64
 -13   6  -8   -2.62    6.39
 -13   6  -8    1.00    6.10
  13  -6   8   -4.59   11.60
  13  -6   8  -19.63    7.50
 -13   7  -8    3.21    5.44
  13  -7   8   -2.92    6.48
  13  -7   8    6.54   11.26
 -13   8  -8    7.94    6.10
  13  -8   8    3.54    6.83
 -14  -4   8  -12.42    4.91
 -14  -4   8   -3.12    5.49
 -14  -3  -8    6.15    5.36
  14   3  -8   -6.73    6.78
  14   3  -8  -16.18   12.46
  14   3   8    0.85    8.37
 -14  -3   8   -0.70    5.05
 -14  -3   8    1.03    5.66
  14   2  -8   39.82    8.36
 -14  -2  -8    1.35    6.18
  14   2  -8   17.20   12.28
  14   2   8  -10.49    8.22
 -14  -2   8   -4.05    6.23
 -14  -2   8    3.62    5.88
  14   1  -8   -9.31   11.52
  14   1  -8    1.73    7.68
 -14  -1  -8   -0.67    6.03
 -14  -1   8   -1.54    5.24
  14   1   8    6.00    8.03
 -14  -1   8   -1.61    6.19
  14   1   8  -18.34   10.22
  14   0  -8    1.19    9.26
 -14   0  -8    0.67    8.34
  14   0  -8   36.75   12.37
  14   0   8    2.94    9.93
 -14   0   8   32.15    7.82
  14   0   8    8.60   12.24
 -14   0   8   15.57    8.33
 -14   1  -8   -8.45    6.94
  14  -1  -8    3.92    8.09
 -14   1  -8   -1.91    8.52
  14  -1   8  -46.50    9.96
 -14   1   8   -5.45    7.34
  14  -1   8  -46.57   13.65
 -14   2  -8    5.76   10.83
 -14   2  -8   13.10    8.50
  14  -2   8   15.43   15.12
  14  -2   8   26.21   11.57
 -14   3  -8   -4.97    6.99
 -14   3  -8   -2.68    6.47
  14  -3   8  -20.00    9.42
  14  -3   8  -46.73   14.50
 -14   4  -8   -4.07    6.73
 -14   4  -8    1.02    6.29
  14  -4   8  -16.78    7.89
  14  -4   8    4.61   12.81
 -14   5  -8   -1.06    8.19
 -14   5  -8   23.66    8.80
  14  -5   8   13.56    8.77
  14  -5   8    9.67   13.46
 -14   6  -8    1.43    7.21
 -14   6  -8    5.55    6.62
  14  -6   8   -3.24    7.48
  14  -6   8  -13.37   11.08
 -14   7  -8   11.56    7.80
 -14   7  -8   -3.52    6.18
  14  -7   8   -2.59    7.48
  14  -7   8   21.24   12.17
 -14   8  -8   -2.46    6.50
  14  -8   8    5.74    7.37
 -15  -4  -8    0.76    5.59
  15   4   8   -3.58    9.07
 -15  -3  -8    0.75    5.16
  15   3   8   -8.27    8.94
 -15  -2  -8   -1.49    6.23
  15   2   8   -0.88    8.32
 -15  -1  -8   -2.99    6.23
  15   1   8    8.25    7.87
 -15  -1   8   -0.85    5.25
  15   1   8   -3.96   10.39
  15   0  -8    5.32   11.72
 -15   0  -8   -9.77    6.52
  15   0   8  -11.65   11.39
  15   0   8  -26.04    9.95
 -15   0   8   -2.72    6.27
 -15   1  -8    2.12    7.81
  15  -1  -8    2.41   10.96
 -15   1  -8    3.01    6.30
  15  -1  -8   -0.72    8.28
  15  -1   8    6.16    9.13
 -15   1   8   11.26    7.11
  15  -1   8    1.48   12.08
 -15   1   8  -14.72    4.87
 -15   2  -8    3.21    8.57
  15  -2  -8   13.63   12.01
 -15   2  -8   -5.13    7.34
  15  -2  -8   10.69    9.01
 -15   2   8    5.02    8.84
  15  -2   8    3.81   10.02
 -15   2   8    6.29    6.03
  15  -2   8   10.10   13.32
  15  -3  -8   -4.97    9.41
 -15   3  -8   -5.21    7.18
 -15   3  -8    1.11    7.23
  15  -3   8   -0.73    7.73
  15  -3   8  -10.64   13.23
 -15   4  -8   -4.55    6.88
 -15   4  -8    3.74    6.88
  15  -4   8   10.16   13.23
  15  -4   8  -11.07    8.41
 -15   5  -8   -0.76    7.59
 -15   5  -8   -1.19    7.06
  15  -5   8   -1.77   12.98
  15  -5   8    5.88    8.11
 -15   6  -8   -2.47    8.04
 -15   6  -8   14.06    7.90
  15  -6   8    8.22   12.72
  15  -6   8   -0.70    8.11
 -15   7  -8    7.87    8.65
 -15   7  -8   20.70    8.20
  15  -7   8    2.89   13.43
  15  -7   8    0.71    8.66
 -15   8  -8    6.33    8.20
 -15   8  -8    2.69    6.47
  15  -8   8   -3.44    8.21
 -16  -4  -8   -4.18    6.97
  16   4   8   34.84   12.14
 -16  -3  -8   -1.66    5.89
  16   3   8   16.00    9.01
 -16  -3   8    5.34    6.18
  16   3   8  -28.78   12.06
  16   2  -8  -19.79   13.39
  16   2  -8   14.34    8.08
 -16  -2  -8    6.61    6.25
 -16  -2   8   -2.71    6.16
  16   2   8   -0.97    9.05
 -16  -2   8    3.88    6.16
  16   1  -8    5.69   12.42
 -16  -1  -8    8.30    6.58
  16   1  -8   -0.72    7.98
 -16  -1   8   -4.13    6.97
  16   1   8    1.82    8.82
 -16  -1   8    3.79    6.49
 -16   0  -8   -1.16    8.14
  16   0  -8   10.00   12.01
  16   0  -8   -9.29    9.13
 -16   0  -8   -9.22    6.97
  16   0   8   15.97   12.38
  16   0   8    6.28    9.15
 -16   0   8   -3.71    7.98
 -16   0   8    3.00    5.72
  16  -1  -8    0.88   12.35
 -16   1  -8    5.90    7.12
 -16   1  -8    2.35    7.95
  16  -1  -8   14.35    9.29
 -16   1   8    4.29    5.82
  16  -1   8    1.70    9.69
  16  -1   8  -25.43   13.95
 -16   1   8   -2.46    8.48
 -16   2  -8    3.66    8.17
  16  -2  -8   -8.29   12.16
 -16   2  -8   -1.63    8.00
  16  -2  -8   -4.30   10.30
  16  -2   8    0.84    9.08
 -16   2   8   -3.41    6.22
 -16   2   8   12.84    9.13
  16  -2   8   13.74   14.00
 -16   3  -8   -2.49    8.39
  16  -3  -8    6.31   10.73
 -16   3  -8    4.12    8.01
  16  -3   8    0.84    9.24
  16  -3   8  -26.09   15.02
 -16   4  -8   -9.00    8.34
 -16   4  -8   -4.11    7.69
  16  -4   8    0.81    9.01
  16  -4   8  -27.92   16.01
 -16   5  -8   -9.20    8.04
 -16   5  -8    6.62    7.60
  16  -5   8   18.53    9.00
  16  -5   8  -27.18   14.76
 -16   6  -8    0.85    8.73
 -16   6  -8    2.77    8.36
  16  -6   8   37.01   15.58
  16  -6   8    0.77    9.35
 -16   7  -8   -4.29    7.02
 -16   7  -8   -5.14    8.60
  16  -7   8    1.53    8.46
  16  -7   8   -8.39   13.72
 -16   8  -8   -2.96    8.05
 -16   8  -8    6.88    9.26
  16  -8   8   22.23    9.59
 -17  -4  -8   -4.59    7.29
  17   4   8   -2.33   13.67
 -17  -3  -8    0.91    6.35
  17   3   8  -12.00   10.56
  17   3   8    0.76   12.57
 -17  -2  -8    5.49    7.23
 -17  -2   8   10.21    7.48
 -17  -2   8   10.21    7.17
  17   2   8    7.42   10.32
  17   1  -8   -3.22    8.64
 -17  -1  -8    4.61    7.59
  17   1  -8    7.19   13.30
  17   1   8  -16.01    9.79
 -17  -1   8    0.77    7.79
 -17  -1   8    1.05    6.82
 -17   0  -8    8.39    7.80
  17   0  -8   -5.19   10.27
  17   0  -8   17.38   14.06
 -17   0  -8    5.16    8.90
  17   0   8  -13.98   14.23
 -17   0   8    3.30    8.84
  17   0   8    1.98   10.08
 -17   0   8    1.10    6.43
 -17   1  -8    7.83    9.03
 -17   1  -8   -6.57    7.72
  17  -1  -8   11.46   13.91
  17  -1  -8   -4.42   10.51
  17  -1   8    1.82   15.14
  17  -1   8    0.94    9.53
 -17   1   8   -4.69    5.92
 -17   1   8   -1.82    9.32
  17  -2  -8   -8.99   14.48
  17  -2  -8   -1.89   11.40
 -17   2  -8  -12.74    9.29
 -17   2  -8    2.71    9.38
  17  -2   8  -27.78   15.49
  17  -2   8   -2.80   10.18
 -17   2   8    3.71    6.63
 -17   2   8   -9.05   10.19
  17  -3  -8   -6.03   14.75
 -17   3  -8    8.34    9.27
 -17   3  -8   -1.83    9.53
  17  -3   8    0.93   10.38
 -17   3   8  -29.66   11.01
  17  -3   8   10.87   15.61
 -17   4  -8   -7.18    9.64
 -17   4  -8   -9.22   10.24
  17  -4   8  -20.44   15.75
  17  -4   8  -24.74   10.92
 -17   5  -8    8.88    8.80
 -17   5  -8   -6.41    9.40
  17  -5   8    1.77   10.07
  17  -5   8    3.19   16.15
 -17   6  -8   -6.18    8.06
 -17   6  -8   -0.92    9.53
  17  -6   8   -3.49   10.38
  17  -6   8   -5.48   15.67
 -17   7  -8   -4.76    8.61
 -17   7  -8   -4.63    9.70
  17  -7   8  -16.03   14.93
  17  -7   8   -2.50   10.27
 -17   8  -8   30.99   29.04
 -17   8  -8   10.31   27.33
 -18  -4  -8   -2.02    7.73
  18   4   8    4.33   15.05
 -18  -3  -8    4.04    7.08
  18   3   8   -4.78   12.18
  18   3   8   -6.28   15.17
 -18  -2  -8   -1.01    7.24
  18   2   8  -13.51   15.68
  18   2   8    1.17   11.53
  18   1  -8   -1.99   14.56
  18   1  -8   -6.63   10.27
 -18  -1  -8   -4.10    9.01
  18   1   8   -7.72   10.78
 -18  -1   8    4.34    8.24
 -18  -1   8    8.20    7.33
  18   0  -8    8.68   10.59
  18   0  -8   -1.01   14.87
 -18   0  -8   -4.29   10.53
 -18   0  -8    4.15    9.06
 -18   0   8  -17.77    8.74
 -18   0   8    7.31    7.36
  18   0   8   -3.28   10.42
 -18   1  -8    3.14    9.51
  18  -1  -8  -12.52   15.73
  18  -1  -8    6.14   11.48
 -18   1  -8   26.07   10.50
 -18   1   8    1.29    7.50
 -18   1   8   -3.01   11.45
  18  -1   8   37.34   16.72
  18  -1   8    4.36   11.95
  18  -2  -8   -1.04   11.78
 -18   2  -8    1.05    9.63
 -18   2  -8    6.05    9.73
  18  -2  -8    1.09   14.27
  18  -2   8    5.27   16.38
 -18   2   8   -1.35    7.34
  18  -2   8   16.50   10.86
 -18   2   8    7.68   11.21
 -18   3  -8    1.02    8.65
  18  -3  -8   -1.10   13.49
 -18   3  -8  -12.38    9.39
  18  -3   8    5.43   17.06
  18  -3   8   -1.02   10.97
 -18   3   8   26.42   12.60
 -18   4  -8   -3.21   10.20
 -18   4  -8   -2.03    9.38
  18  -4   8    7.93   17.31
  18  -4   8    7.71   10.33
 -18   5  -8   -8.04   10.06
 -18   5  -8    4.96   10.24
  18  -5   8    4.83   11.39
  18  -5   8    7.00   19.74
 -18   6  -8   -2.02   12.09
 -18   6  -8   -1.72   12.45
  18  -6   8  -70.81   23.02
  18  -6   8  -31.62   13.64
 -18   7  -8  -12.35    9.18
 -18   7  -8    7.09    9.89
  18  -7   8  -21.30   16.91
  18  -7   8    6.37   10.24
 -18   8  -8   15.20   10.28
 -18   8  -8  -12.64   10.36
  18  -8   8   -0.91    9.55
 -19  -4  -8    3.34    8.80
  19   4   8  -36.72   18.33
 -19  -3  -8    4.47    7.99
  19   3   8   -6.56   14.41
  19   3   8   -4.02   17.06
 -19  -2  -8   -4.51    8.66
  19   2   8    3.02   17.26
  19   2   8   -1.28   13.05
 -19  -1  -8   -5.70   10.00
  19   1   8    1.22   11.79
 -19  -1   8  -18.25    7.63
 -19  -1   8   -5.86    9.18
  19   0  -8   -1.07   11.79
 -19   0  -8  -11.56   10.65
  19   0  -8  -16.62   16.99
 -19   0   8   -1.36    7.86
 -19   0   8  -15.66   10.43
  19   0   8   -6.05   12.18
  19  -1  -8    8.01   16.78
 -19   1  -8   -1.65   10.24
 -19   1  -8    5.84    9.99
  19  -1  -8   -7.98   12.52
  19  -1   8   12.02   12.88
  19  -1   8    3.35   18.53
 -19   1   8    6.67   11.93
 -19   1   8   14.12    7.84
  19  -2  -8  -17.99   12.36
 -19   2  -8    2.34   10.62
  19  -2  -8   -3.55   14.11
 -19   2  -8    5.06   10.89
 -19   2   8    4.41    8.44
  19  -2   8    4.64   18.97
  19  -2   8    4.56   11.85
 -19   2   8   -2.42   12.72
 -19   3  -8    1.72   11.56
 -19   3  -8   -1.13   10.98
  19  -3  -8  -19.40   12.67
  19  -3   8   -7.17   18.79
  19  -3   8   13.49   11.94
 -19   3   8   34.28   13.57
 -19   4  -8    1.79   11.64
 -19   4  -8  -20.26   12.39
  19  -4   8    1.11   12.15
  19  -4   8    2.49   19.01
 -19   5  -8    6.75   11.47
 -19   5  -8  -11.09   12.89
  19  -5   8    7.37   12.45
  19  -5   8   46.01   20.17
 -19   6  -8    9.61   10.01
 -19   6  -8   -8.85   11.78
  19  -6   8   17.28   19.52
  19  -6   8  -11.54   10.84
 -19   7  -8    4.43   11.56
  19  -7   8   -1.04   11.41
 -20  -2  -8   -3.76    9.61
  20   2   8    1.42   14.03
 -20  -1  -8   -1.27   10.03
  20   1   8   -2.81   13.98
 -20   0  -8   -1.29   11.53
 -20   0   8   12.08    9.70
  20   0   8  -17.39   14.31
 -20   0   8  -24.55   11.48
 -20   1  -8  -16.95   12.21
  20  -1  -8  -12.56   17.84
  20  -1  -8   -7.61   14.07
  20  -1   8   -7.97   13.94
 -20   1   8    3.11    9.10
 -20   1   8   -3.77   12.24
 -20   2  -8   -1.31   12.14
  20  -2  -8   18.68   15.19
 -20   2   8   16.11    9.68
 -20   2   8   22.69   14.38
  20  -2   8  -10.09   13.08
  20  -3  -8    1.34   15.46
 -20   3   8   33.05   16.04
  21  -1  -8  -18.00   18.36
  21  -1  -8   -4.22   15.92
 -21   1   8   -4.20   13.57
  21  -2  -8   -4.45   17.33
 -21   2   8  -11.82   14.43
   0   0  -9   -0.48    2.16
   0   0   9   -0.22    2.88
  -1   0  -9   22.66   19.84
   1   0  -9   39.22   22.06
   0   1  -9   78.47   18.97
  -1   0   9   31.45   21.73
   0  -1   9   45.66   20.76
  -1   1  -9    0.48    1.62
  -1   1  -9    0.22    2.69
   1   1  -9   -2.23    2.90
  -1  -1   9   -0.15    2.56
   1  -1   9    0.07    1.13
   1  -1   9   -0.15    2.55
  -1   2  -9   -0.52    0.89
  -1   2  -9    1.64    1.43
  -1   2  -9    0.69    2.57
   1  -2   9    3.90    1.66
   1  -2   9    1.42    1.69
   1  -2   9    2.23    2.35
  -2   0  -9    0.20    1.66
   0   2  -9   -0.18    2.36
   0   2  -9    0.28    1.40
   0  -2   9    0.24    2.34
  -2   1  -9    2.77    1.79
  -2   1  -9    0.47    3.10
   2  -1   9    2.00    1.80
   2  -1   9    2.17    3.18
  -2   2  -9    0.23    1.04
  -2   2  -9    0.80    1.28
  -2   2  -9   -0.82    2.35
   2  -2   9    0.58    1.91
   2  -2   9    1.69    2.39
   2  -2   9    0.41    1.64
  -2   3  -9    3.71    2.07
   3   2  -9    3.71    2.07
  -2   3  -9    4.59    2.23
   3   2  -9    3.75    3.45
  -2   3  -9    2.76    3.04
  -2   3  -9    4.67    2.08
   2  -3   9    4.43    2.16
   2  -3   9    3.02    3.37
  -3  -2   9    3.99    3.47
   2  -3   9    4.50    3.01
   2  -3   9    5.75    2.47
  -1   3  -9    5.36    3.93
  -1   3  -9    8.26    3.02
  -1   3  -9    6.49    3.16
  -1   3  -9    7.78    2.93
   1  -3   9    7.39    3.05
   1  -3   9    6.81    4.19
   1  -3   9    8.58    3.30
   1  -3   9    4.69    3.93
   3   0  -9    8.81    3.51
   3   0   9    4.00    3.18
  -3   1  -9    0.81    2.98
  -3   1  -9    4.67    3.36
   3  -1   9    8.70    3.81
   3  -1   9    7.26    4.63
   3  -1   9    7.26    3.82
   2   3  -9    3.37    2.39
   2   3  -9    5.96    3.27
  -3   2  -9    4.51    2.26
  -3   2  -9    4.17    3.20
  -3   2  -9    4.93    2.19
   3  -2   9    5.59    2.78
   3  -2   9    3.77    3.23
  -2  -3   9    5.37    3.36
   3  -2   9    3.31    3.08
  -3   3  -9   -0.79    1.38
  -3   3  -9    0.58    1.17
   3   3  -9   -0.66    1.37
  -3   3  -9    0.48    1.30
  -3   3  -9    0.13    2.24
   3   3  -9   -0.21    2.71
   3  -3   9    0.68    1.70
  -3  -3   9    0.88    0.64
  -3  -3   9   -0.28    0.38
   3  -3   9    1.71    2.06
  -3  -3   9    1.84    2.78
   3  -3   9   -0.49    1.22
   3  -3   9    0.17    2.88
  -3   4  -9   12.31    5.79
   4   3  -9   15.12    4.74
   4   3  -9    8.86    6.40
  -3   4  -9   13.41    5.05
  -3   4  -9   11.82    4.82
   4   3  -9    7.13    6.61
   4   3  -9   10.12    5.70
  -4  -3   9    6.85    5.13
  -4  -3   9   14.10    4.94
   3  -4   9   13.46    4.70
   3  -4   9    8.85    6.69
   3  -4   9   13.93    5.44
  -4  -3   9    6.13    5.87
   4   2  -9    1.31    1.94
   4   2  -9   -1.89    2.99
   4   2  -9    0.27    1.30
  -2   4  -9    1.26    2.40
  -2   4  -9    1.50    1.39
   4   2  -9    0.69    2.33
  -2   4  -9    4.74    1.89
   2  -4   9    0.44    3.48
  -4  -2   9    0.25    1.13
  -4  -2   9    1.24    1.14
   2  -4   9    0.70    1.69
  -4  -2   9    0.33    3.08
   2  -4   9    3.15    1.56
   4   1  -9   10.05    3.40
   4   1  -9    3.87    4.27
   4   1  -9    7.02    3.48
   1  -4   9    6.90    3.37
  -4  -1   9    4.34    4.52
   4   0  -9   -0.29    2.64
   4   0  -9   -1.56    3.39
   0   4  -9   -0.38    1.88
   0  -4   9    0.06    0.91
  -4   0   9   -1.49    3.39
   4   0   9   -1.15    2.42
   0  -4   9    0.19    1.59
  -4   1  -9    5.40    3.03
  -4   1  -9    4.62    3.35
   1   4  -9    6.10    3.84
   1   4  -9    3.28    3.23
   4  -1   9    8.88    3.93
  -1  -4   9   10.00    3.06
   4  -1   9    6.28    3.74
  -4   2  -9    0.17    1.50
  -4   2  -9    0.68    2.77
   2   4  -9    0.84    2.67
   2   4  -9    0.41    2.06
  -4   2  -9    1.56    1.29
   4  -2   9   -0.19    2.26
  -2  -4   9    1.53    2.04
   4  -2   9    4.67    2.56
   4  -2   9    2.63    2.76
  -4   3  -9   14.36    4.82
   3   4  -9    8.06    5.34
  -4   3  -9   12.02    4.92
   3   4  -9    9.84    5.83
  -4   3  -9   18.31    4.94
  -4   3  -9   10.37    5.72
   4  -3   9    9.08    5.28
   4  -3   9   10.00    5.43
   4  -3   9   11.06    4.51
   4  -3   9   15.37    6.44
  -4   4  -9    1.41    2.26
   4   4  -9    1.27    1.91
  -4   4  -9    2.02    1.95
   4   4  -9    0.69    2.20
   4   4  -9   -0.24    2.91
   4  -4   9   -0.55    2.56
   4  -4   9    0.37    1.97
  -4  -4   9    1.77    2.35
   5   4  -9   19.69    8.68
   5   4  -9   16.10    8.51
   5   4  -9   18.78    7.32
  -4   5  -9   22.87    8.91
  -5  -4   9   17.43    8.72
  -5  -4   9   17.64    7.09
  -5  -4   9    0.24    8.16
   5   3  -9   37.96   18.81
  -3   5  -9   39.82   17.55
   5   3  -9   32.71   19.80
   5   3  -9   38.77   16.75
   5   3  -9   38.05   14.26
  -5  -3   9   34.31   17.05
  -5  -3   9   36.18   16.01
   3  -5   9   38.45   17.60
  -5  -3   9   38.44   15.48
   5   2  -9   20.37    8.32
   5   2  -9   17.16    9.40
   5   2  -9   13.24   12.01
   5   2  -9   19.61    7.58
  -5  -2   9   19.73    7.60
  -5  -2   9   17.00    9.66
  -5  -2   9   24.73    8.98
   2  -5   9   13.22    9.60
   5   1  -9   17.80    8.36
  -1   5  -9   13.20    7.23
   5   1  -9   19.78    7.30
   5   1  -9   14.66    6.94
   1  -5   9   29.89    6.87
  -5  -1   9   14.18    7.52
  -5  -1   9    9.74    8.63
   5   1   9   12.83    8.21
   0   5  -9    8.31    4.72
  -5   0  -9    2.18    3.91
   5   0  -9   10.80    4.72
   5   0  -9    7.82    5.60
   0   5  -9    9.00    4.29
   5   0   9   11.04    5.09
   0  -5   9   11.13    4.01
   5   0   9   10.71    4.90
  -5   0   9    5.83    5.67
  -5   1  -9   14.85    7.68
   1   5  -9   17.93    7.80
   5  -1  -9   13.34    7.93
   1   5  -9   18.63    7.14
   5  -1   9   16.55    8.29
  -1  -5   9   14.07    6.65
  -5   2  -9   12.91   10.43
   2   5  -9   21.16    9.17
  -5   2  -9   23.27    7.94
   2   5  -9   13.00    8.22
   5  -2   9   19.98   10.02
  -2  -5   9   18.76    7.78
   5  -2   9   17.66   10.04
  -5   3  -9   36.59   14.82
   3   5  -9   26.03   16.11
  -5   3  -9   32.55   16.66
  -5   3  -9   40.85   14.40
   3   5  -9   20.40   18.19
   5  -3   9   45.49   13.73
   5  -3   9   36.77   17.66
   5  -3   9   34.98   15.91
  -5   4  -9   20.24    8.68
   4   5  -9   25.80    8.60
   4   5  -9   24.23    9.49
  -5   4  -9   17.10    8.34
  -5   4  -9   24.08    9.61
   4   5  -9   24.29    9.51
   5  -4   9   21.29    8.65
   5  -4   9   10.59   10.49
   5  -4   9   24.61    9.17
  -4  -5   9   20.30    8.22
   5   5  -9   -1.21    2.86
  -5   5  -9   -1.72    2.49
  -5   5  -9   -1.90    2.54
   5   5  -9   -4.37    3.55
   5   5  -9    0.99    2.53
   5  -5   9    0.24    3.28
  -5  -5   9    0.32    2.55
   5  -5   9   -2.85    6.08
  -5   6  -9    6.36    3.12
   6   5  -9    4.62    4.52
   6   5  -9    3.39    3.41
   6   5  -9    1.60    3.60
  -6  -5   9    2.71    3.49
   5  -6   9    0.26    3.43
   6   4  -9   26.68   20.19
   6   4  -9   44.21   13.92
   6   4  -9   46.41   16.58
   6   4  -9   37.88   15.74
  -6  -4   9    3.50   16.05
  -6  -4   9   40.48   15.82
  -6  -4   9   29.46   13.52
   6   3  -9   51.40   23.51
   6   3  -9   44.63   19.48
  -6  -3   9   68.09   19.35
  -6  -3   9   75.77   23.02
   3  -6   9   27.60   23.27
  -6  -3   9   45.04   20.98
  -6  -3   9   50.37   20.58
   6   2  -9   22.57   18.29
   6   2  -9   29.47   13.35
  -2   6  -9   33.88   14.47
   6   2  -9   40.63   14.65
   6   2  -9   34.32   12.05
  -6  -2   9   26.89   15.20
   2  -6   9   26.63   13.15
  -6  -2   9   23.85   13.99
  -6  -2   9   33.01   12.31
   6   1  -9   23.07    8.06
   6   1  -9   22.77    9.42
   6   1  -9   18.08    7.56
  -1   6  -9   16.43    8.12
  -1   6  -9   18.04    8.71
  -6  -1  -9    1.17    7.76
   6   1  -9   21.86   11.55
  -6  -1   9   21.70    8.70
   6   1   9   22.73    9.11
  -6  -1   9   12.84    9.85
   1  -6   9   22.25    7.95
   6   1   9   20.11    9.55
   6   0  -9    0.34    3.97
   0   6  -9    1.89    2.94
  -6   0  -9    1.93    2.00
   0   6  -9    0.88    2.87
   6   0  -9    1.84    3.17
   0  -6   9    1.97    2.61
   6   0   9    1.00    3.20
   6   0   9    3.65    3.06
  -6   0   9    0.95    4.10
   1   6  -9   19.13    8.82
  -6   1  -9   14.76    9.25
  -6   1  -9   19.88    8.47
   6  -1  -9   22.32    9.66
   1   6  -9   22.48    9.34
  -1  -6   9   24.36    8.48
   6  -1   9   23.54   10.11
  -6   1   9   20.19   11.19
   6  -1   9   25.83    9.43
  -6   2  -9   32.30   11.81
  -6   2  -9   24.56   11.99
   2   6  -9   15.71   12.33
   2   6  -9   26.23   13.34
   6  -2   9   29.82   14.89
   6  -2   9   29.16   10.79
   6  -2   9   32.04   13.01
  -2  -6   9   23.79   11.79
  -6   3  -9   19.54   18.93
  -6   3  -9   35.25   21.15
  -6   3  -9   54.66   18.10
   3   6  -9   38.89   19.63
  -6   3  -9   56.54   18.07
   3   6  -9   41.05   18.32
  -3  -6   9   54.01   17.54
   6  -3   9   49.89   22.37
   6  -3   9   36.79   18.24
  -6   4  -9   31.39   14.42
  -6   4  -9   47.03   15.10
   4   6  -9   29.86   15.87
  -6   4  -9   46.28   16.61
   6  -4   9   41.56   15.89
   6  -4   9   35.16   17.50
   6  -4   9   33.64   15.93
   5   6  -9    1.93    4.42
  -6   5  -9    3.56    3.00
   5   6  -9    2.96    3.73
  -6   5  -9    3.66    2.88
   5   6  -9    4.18    3.43
   6  -5   9    5.73    5.66
  -5  -6   9    1.90    3.74
   6  -5   9    6.17    3.62
  -6   6  -9    1.70    2.70
  -6   6  -9    2.30    2.54
   6   6  -9   -1.16    3.73
   6   6  -9    2.43    4.57
   6  -6   9    0.94    5.61
  -6  -6   9    1.21    3.38
   6  -6   9    1.79    3.50
   7   6  -9    0.82    4.03
   7   6  -9   -2.65    5.48
   6  -7   9   -0.62    3.39
  -7  -6   9   -1.28    3.72
   7   5  -9   31.38   11.68
   7   5  -9   18.93   10.41
  -7  -5   9   22.46    9.98
   5  -7   9   20.63   11.79
   7   4  -9   -1.67    2.95
   7   4  -9   -1.20    4.02
  -7  -4   9   -0.63    2.86
  -7  -4   9   -1.74    4.65
   7   3  -9  151.03   55.37
   7   3  -9  117.52   66.72
  -7  -3   9  151.55   54.70
  -7  -3   9  119.53   69.02
   7   2  -9    2.86    3.68
  -2   7  -9    0.45    2.87
   7   2  -9   -0.45    2.48
  -7  -2   9    1.49    4.19
   7   2   9    0.25    3.13
   7   1  -9   35.51   14.90
  -1   7  -9   35.20   13.92
  -7  -1  -9    0.98   12.56
   7   1  -9   46.17   11.91
   7   1   9   37.89   14.41
  -7  -1   9    8.01   14.16
   7   1   9   21.42   14.82
  -7  -1   9   28.50   15.74
   7   0  -9    0.91    3.45
   7   0  -9   -4.54    3.22
   0   7  -9    0.26    3.37
   7   0  -9   -3.98    4.94
  -7   0  -9    0.31    2.34
   7   0   9    1.11    3.64
   7   0   9    0.48    3.71
  -7   0   9    0.40    2.43
  -7   0   9  -10.45    5.27
   1   7  -9   36.76   14.68
   7  -1  -9   37.76   14.53
   7  -1  -9   28.99   14.65
  -7   1  -9   39.04   13.50
   7  -1   9   27.29   14.72
  -1  -7   9   37.75   13.60
  -7   1   9   29.65   17.82
   7  -1   9   34.10   15.98
   2   7  -9   -0.29    3.52
   2   7  -9   -0.39    3.12
  -7   2  -9   -0.28    2.35
  -2  -7   9   -0.42    2.92
   7  -2   9    0.29    4.91
   7  -2   9    0.89    3.25
  -7   3  -9  165.34   61.79
  -7   3  -9  140.94   61.57
   3   7  -9  138.66   61.88
   3   7  -9  132.26   65.97
   7  -3   9  163.31   65.79
  -3  -7   9  120.64   60.03
   4   7  -9    0.34    4.19
  -7   4  -9    2.62    2.76
  -7   4  -9   -2.50    3.15
   7  -4   9    0.73    5.48
   7  -4   9    0.30    3.42
   5   7  -9   18.23   10.47
  -7   5  -9   30.03    9.91
   5   7  -9   22.21   11.35
   7  -5   9   17.44   12.77
  -5  -7   9   21.51   10.01
   7  -5   9   23.75   11.33
   6   7  -9    1.19    5.04
   6   7  -9    3.62    4.36
  -7   6  -9    1.80    3.36
  -6  -7   9    1.92    3.90
   7  -6   9    4.64    3.97
   7  -6   9   -2.44    7.38
   7   7  -9    3.32    4.48
   7   7  -9    4.26    5.49
   7  -7   9   -2.42    3.67
  -7  -7   9    0.50    3.99
   8   7  -9   24.35    8.47
   8   7  -9   20.98    9.87
   7  -8   9    6.03    8.49
  -8  -7   9   10.65    8.11
   8   6  -9    6.02    4.80
   8   6  -9    0.80    6.08
  -8  -6   9    7.25    4.59
   8   5  -9   -1.37    4.94
   8   5  -9    1.43    3.63
   8   5  -9   -0.47    4.73
   8   5  -9   -3.72    4.13
  -8  -5   9    0.77    1.77
  -8  -5   9   -1.27    5.51
  -8  -5   9    2.72    3.56
   8   4  -9    3.71    5.31
   8   4  -9    9.54    4.88
   8   4  -9    8.37    3.80
   8   4  -9   -0.62    3.95
  -8  -4   9    2.70    3.04
  -8  -4   9    2.57    5.53
  -8  -4   9    4.04    3.72
   8   3  -9    1.56    2.90
   8   3  -9    2.79    2.97
   8   3  -9    3.04    4.87
   8   3  -9    2.52    4.50
  -8  -3   9    2.78    2.17
  -8  -3   9   -3.88    4.99
  -8  -3   9   -1.21    2.35
  -8  -3   9    3.69    3.15
   8   2  -9   23.77   11.84
   8   2  -9   19.27   10.02
  -8  -2  -9   -0.76    8.59
   8   2  -9   17.20    8.81
   8   2  -9   26.86    7.96
  -8  -2   9   20.73    8.11
  -8  -2   9   17.84    8.76
  -8  -2   9   20.38   10.74
   8   2   9   24.42    9.89
   8   1  -9   12.84    9.57
   8   1  -9   19.70    8.05
  -8  -1  -9   -1.47    6.14
   8   1  -9   17.40    6.00
   8   1  -9   11.73    6.50
  -8  -1   9   18.06    6.70
   8   1   9   16.83    7.40
  -8  -1   9    8.90    8.64
   8   1   9   20.93    7.73
  -8   0  -9    1.06    2.58
   8   0  -9   -5.75    4.66
   8   0  -9    9.20    3.47
   8   0  -9   -0.31    3.56
   8   0  -9    3.60    4.86
   8   0   9    3.04    4.18
  -8   0   9    2.46    4.85
  -8   0   9   -1.40    2.52
   8   0   9    0.41    3.93
  -8   1  -9   20.57    6.12
   8  -1  -9   12.03    7.02
   8  -1  -9   11.94    6.96
   8  -1   9   15.40    6.96
  -8   1   9    1.87    8.79
   8  -1   9   11.25    7.84
  -8   2  -9   23.11    8.03
   8  -2   9   10.16    8.97
   8  -2   9   17.90   10.60
  -8   3  -9    4.29    3.09
  -8   3  -9   -0.47    2.94
   8  -3   9    3.80    3.99
   8  -3   9    2.99    6.25
  -8   4  -9    7.96    4.17
  -8   4  -9    6.43    4.32
   4   8  -9    6.32    5.38
   8  -4   9    7.60    4.89
   8  -4   9    8.61    7.08
   5   8  -9    4.23    5.06
  -8   5  -9    0.55    3.56
   8  -5   9    5.45    6.57
   8  -5   9   -2.49    4.43
  -5  -8   9   -0.54    3.89
   6   8  -9    4.10    6.42
  -8   6  -9    3.85    4.14
   8  -6   9    7.81    5.02
  -6  -8   9    6.20    4.83
   8  -6   9   10.33    7.57
   7   8  -9   31.13   10.94
  -8   7  -9   23.62    8.90
  -7  -8   9   14.71    9.41
   8  -7   9   15.99    9.91
   8   8  -9   -3.17    7.42
  -8  -8   9    2.47    4.77
   8  -8   9   -1.56    4.17
   9   8  -9   22.58   15.14
  -9  -8   9   25.96   12.64
   9   7  -9   -0.52    5.35
   9   7  -9    3.47    7.23
  -9  -7   9    6.20    4.96
   9   6  -9   -3.17    4.78
   9   6  -9   -7.50    6.34
  -9  -6   9    1.45    4.37
   9   5  -9    6.80    5.70
   9   5  -9    4.55    4.52
  -9  -5   9    3.23    6.22
  -9  -5   9    0.60    3.35
  -9  -5   9    9.15    4.38
   9   4  -9   10.08    8.06
   9   4  -9   10.26    8.63
   9   4  -9   18.18    6.66
   9   4  -9   11.14    7.87
  -9  -4   9    9.37    6.66
  -9  -4   9   12.96    8.50
  -9  -4   9   18.05    6.19
  -9  -4   9   20.99    6.60
   9   3  -9    2.26    5.45
   9   3  -9   -0.88    3.60
   9   3  -9    1.39    3.05
   9   3  -9    4.64    4.73
  -9  -3   9    2.31    3.32
  -9  -3   9    0.50    2.55
  -9  -3   9    5.90    5.43
  -9  -3   9   -1.41    2.57
   9   2  -9   -1.96    3.24
   9   2  -9    5.70    5.87
   9   2  -9   -2.01    4.49
  -9  -2  -9    0.85    2.93
   9   2  -9    1.27    2.97
   9   2   9    5.99    4.34
   9   2   9   12.19    4.93
  -9  -2   9    1.00    5.17
  -9  -2   9    4.07    2.56
  -9  -2   9   -2.80    3.15
   9   1  -9    1.20    6.30
   9   1  -9   10.31    4.84
   9   1  -9    2.88    2.95
   9   1  -9    1.20    3.41
  -9  -1  -9    1.22    2.83
   9   1   9    1.82    4.40
  -9  -1   9   -0.30    3.00
  -9  -1   9   -2.68    5.59
   9   1   9   -4.57    4.94
  -9  -1   9    0.92    2.55
   9   0  -9   -2.03    5.20
  -9   0  -9    2.37    3.36
   9   0  -9    3.86    3.90
   9   0  -9    3.08    3.82
   9   0  -9    5.82    5.96
  -9   0   9   -1.58    3.05
  -9   0   9    0.88    5.49
   9   0   9    5.00    4.49
   9   0   9    2.64    4.93
  -9   1  -9    1.85    3.19
   9  -1  -9    1.21    4.46
   9  -1  -9    0.84    4.46
   9  -1   9    1.39    5.20
  -9   1   9    2.87    2.70
   9  -1   9    3.30    4.22
   9  -2  -9    2.97    4.98
   9  -2  -9   -3.30    6.14
  -9   2  -9   -0.37    3.15
   9  -2   9    1.92    4.01
   9  -2   9    2.70    6.77
  -9   3  -9    4.84    3.59
  -9   3  -9    2.64    3.71
   9  -3   9    1.28    6.60
   9  -3   9    2.36    4.47
  -9   4  -9    9.71    6.91
  -9   4  -9   13.02    6.87
   9  -4   9   11.68    7.45
   9  -4   9   20.69    9.97
  -9   5  -9   12.28    4.33
  -9   5  -9   -1.29    4.70
   9  -5   9    8.90    5.39
   9  -5   9    3.50    8.22
  -9   6  -9   -1.39    3.39
   9  -6   9   -1.64    8.00
   9  -6   9   -3.70    4.93
  -9   7  -9    2.34    3.94
   9  -7   9   -4.37    8.28
   9  -7   9   -2.50    5.10
   9  -8   9   35.03   15.36
  10   8  -9   -7.20    8.95
 -10  -8   9   -0.68    5.75
  10   7  -9   -3.10    8.35
  10   7  -9    9.30    6.07
 -10  -7   9   14.34    6.12
  10   6  -9   20.82   10.78
  10   6  -9   13.85    9.26
 -10  -6   9   22.64    9.03
  10   5  -9    4.58    4.97
  10   5  -9    0.39    6.35
 -10  -5   9   13.20    6.89
 -10  -5   9    6.67    4.86
  10   4  -9   -2.24    5.85
  10   4  -9   -1.94    4.74
  10   4  -9    5.63    4.00
  10   4  -9    0.35    6.29
 -10  -4   9   -2.72    3.81
 -10  -4   9    3.55    3.05
 -10  -4   9   14.13    6.24
 -10  -4   9   -0.65    3.03
  10   3  -9    2.78    5.55
  10   3  -9    0.89    3.59
  10   3  -9    4.47    6.34
  10   3  -9    1.35    4.03
 -10  -3   9    1.16    2.93
 -10  -3   9    8.72    5.90
 -10  -3   9    2.83    3.82
 -10  -3   9    0.42    3.04
  10   2  -9    3.24    3.36
  10   2  -9   -0.65    3.76
  10   2  -9    5.31    5.25
 -10  -2  -9   -0.93    3.11
  10   2  -9    0.40    6.44
  10   2   9    0.34    4.98
 -10  -2   9   -0.90    3.40
  10   2   9    6.58    5.14
 -10  -2   9    5.37    5.67
 -10  -2   9   -0.59    3.28
  10   1  -9    1.89    5.30
  10   1  -9    7.54    4.29
  10   1  -9    1.36    3.26
  10   1  -9    6.24    6.66
 -10  -1  -9    0.45    3.54
 -10  -1   9    2.05    3.06
 -10  -1   9   -8.11    6.19
  10   1   9    0.69    5.14
  10   1   9   10.11    5.10
 -10  -1   9   -1.35    3.88
  10   0  -9   -0.39    4.24
  10   0  -9   -1.82    3.84
  10   0  -9    3.91    6.49
 -10   0  -9   -2.22    3.69
  10   0  -9    4.76    5.70
 -10   0   9   -2.92    3.00
  10   0   9    4.48    5.82
 -10   0   9    8.23    6.10
  10   0   9   -1.51    4.80
  10  -1  -9   12.35    4.81
 -10   1  -9    7.52    3.99
  10  -1  -9   -1.37    5.01
  10  -1   9    4.12    6.89
 -10   1   9    1.93    3.80
  10  -1   9    5.09    5.29
 -10   2  -9    5.43    4.08
  10  -2  -9    5.26    6.08
  10  -2  -9    4.24    5.60
  10  -2   9    4.57    5.23
  10  -2   9   -1.75    7.20
 -10   3  -9    1.84    3.83
 -10   3  -9    2.56    4.08
  10  -3   9   -0.96    8.15
  10  -3   9   -0.44    4.82
 -10   4  -9    2.57    4.03
 -10   4  -9    0.45    4.31
  10  -4   9   -2.62    5.47
  10  -4   9   -1.03    8.77
 -10   5  -9    2.74    4.05
 -10   5  -9    3.83    4.78
  10  -5   9  -13.77    9.49
  10  -5   9   -1.35    4.82
 -10   6  -9   20.20    8.42
  10  -6   9   15.31    9.49
  10  -6   9   12.43   12.19
 -10   7  -9    1.67    4.53
  10  -7   9    9.88    9.02
  10  -7   9    3.68    5.76
  10  -8   9    2.78    5.66
  11   8  -9    2.57    9.76
  11   7  -9   -0.53    8.09
  11   7  -9   -1.72    6.03
 -11  -7   9   -5.69    6.44
  11   6  -9    3.52    5.75
  11   6  -9    3.79    7.56
 -11  -6   9   -3.83    6.00
 -11  -6   9   17.10    8.09
  11   5  -9    3.08    5.21
  11   5  -9    7.39    6.81
 -11  -5   9   -3.09    7.30
 -11  -5   9   11.41    5.24
  11   4  -9   -6.26    6.24
  11   4  -9    1.87    4.24
 -11  -4   9    5.85    4.26
 -11  -4   9   -4.53    3.05
 -11  -4   9   -2.61    6.69
 -11  -4   9    3.65    3.68
 -11  -3  -9    2.12    3.60
  11   3  -9    1.81    5.33
  11   3  -9    1.27    3.65
  11   3  -9    0.77    4.19
  11   3  -9    0.43    7.63
 -11  -3   9    3.77    3.94
  11   3   9    7.55    5.34
 -11  -3   9    3.00    3.17
 -11  -3   9   -3.12    6.55
 -11  -3   9   -0.48    3.27
 -11  -2  -9   -1.03    4.21
  11   2  -9    1.81    8.28
  11   2  -9    5.61    6.37
  11   2  -9    8.71    4.24
  11   2  -9   12.37    5.20
 -11  -2   9   13.53    4.31
 -11  -2   9    9.34    4.62
  11   2   9    5.30    6.80
 -11  -2   9    4.07    4.49
  11   2   9   -0.65    6.91
 -11  -2   9    6.73    6.96
  11   1  -9    4.93    7.73
  11   1  -9   -6.61    4.79
  11   1  -9   -0.56    3.76
 -11  -1  -9    4.54    4.19
  11   1  -9   -0.81    6.25
  11   1   9   13.39    6.45
 -11  -1   9    3.43    6.82
 -11  -1   9   -0.57    4.34
 -11  -1   9    7.27    4.26
  11   0  -9   32.33   10.00
  11   0  -9   26.36   11.29
  11   0  -9   14.97   14.92
 -11   0  -9   32.24   11.05
  11   0  -9   18.83   14.08
 -11   0   9   18.32   15.03
 -11   0   9   19.92   11.27
  11  -1  -9    8.52    6.09
  11  -1  -9    5.90    7.86
  11  -1  -9   -4.86    5.25
 -11   1  -9   12.23    5.44
 -11   1   9    2.12    4.30
  11  -2  -9   10.29    6.56
 -11   2  -9    8.36    5.62
 -11   2  -9    0.47    5.32
  11  -2  -9    6.48    5.98
  11  -2   9  -13.21   11.36
 -11   3  -9    2.78    4.42
 -11   3  -9    0.96    4.64
  11  -3   9   -5.39    9.21
  11  -3   9   -6.47    5.36
 -11   4  -9   -2.18    4.07
 -11   4  -9    2.52    5.13
  11  -4   9    6.32    5.80
  11  -4   9   14.29    9.46
 -11   5  -9    3.71    5.51
 -11   5  -9    3.06    5.33
  11  -5   9   15.18    9.74
  11  -5   9    5.46    6.01
 -11   6  -9    4.93    5.26
 -11   6  -9    8.22    5.62
  11  -6   9    5.79    9.05
  11  -6   9   -0.98    5.79
 -11   7  -9    5.40    4.65
  11  -7   9   -5.01    5.74
  11  -7   9   14.04    9.77
  11  -8   9    2.54    6.13
  12   9  -9   -2.38   12.48
  12   7  -9   -0.55    8.64
  12   7  -9    4.80    5.80
 -12  -7   9   -7.21    9.27
 -12  -7   9   11.37    6.18
  12   6  -9    1.94    7.91
  12   6  -9   -0.53    5.85
 -12  -6   9   -1.75    6.31
 -12  -6   9   10.97    8.14
  12   5  -9    7.68    6.77
  12   5  -9   -2.78    4.94
 -12  -5   9   -2.29    7.68
 -12  -5   9   -2.03    5.12
  12   4  -9    1.21    6.62
  12   4  -9    6.71    5.12
 -12  -4   9    1.34    5.28
 -12  -4   9    2.07    4.22
 -12  -4   9   12.65    7.44
  12   3  -9    0.35    4.11
  12   3  -9    1.31    4.87
 -12  -3  -9    5.23    3.84
  12   3  -9    4.39    8.62
  12   3  -9   -7.07    5.69
 -12  -3   9   -2.13    6.58
 -12  -3   9    6.47    3.78
 -12  -3   9    2.81    4.44
 -12  -3   9   -1.62    3.46
  12   2  -9    2.46    3.77
  12   2  -9   -0.39    5.76
 -12  -2  -9   -2.84    3.88
  12   2  -9    1.28    4.83
  12   2  -9   -5.58    8.87
  12   2   9    5.60    6.55
  12   2   9   16.52    6.44
 -12  -2   9   -1.52    4.09
 -12  -2   9    3.15    6.81
 -12  -2   9    2.32    3.88
 -12  -2   9   -2.85    3.96
  12   1  -9   19.78   11.01
  12   1  -9   13.62   14.54
  12   1  -9   21.41   13.11
 -12  -1  -9   10.62   10.55
  12   1  -9   23.61    9.51
 -12  -1   9   29.99   10.25
 -12  -1   9   18.42   14.70
  12   1   9   49.81   12.47
  12   1   9   24.93   12.82
 -12  -1   9   20.09   10.52
  12   0  -9    4.91    5.51
  12   0  -9    0.61    3.94
  12   0  -9   -4.86    6.15
  12   0  -9    5.25    8.15
 -12   0  -9   -1.11    4.44
  12   0   9   -1.88    7.68
 -12   0   9    1.00    5.35
 -12   0   9   -2.89    6.95
  12   0   9   -0.62    6.51
 -12   0   9   -2.11    3.81
 -12   1  -9   20.33   10.55
  12  -1  -9   12.13   15.11
  12  -1  -9    6.02   11.59
  12  -1   9   35.21   11.91
 -12   1   9   23.07   10.89
  12  -1   9   34.82   14.09
 -12   2  -9   12.76    5.41
  12  -2  -9   -1.23    6.38
 -12   2  -9    1.56    5.48
  12  -2   9    3.99    6.44
  12  -2   9    5.67    9.80
 -12   3  -9    0.78    5.50
 -12   3  -9    6.98    5.35
  12  -3   9    6.65    6.37
  12  -3   9   -0.60    9.68
 -12   4  -9    6.55    5.75
 -12   4  -9    0.56    5.83
  12  -4   9    0.56    6.77
 -12   5  -9   -0.59    5.79
  12  -5   9    7.09    6.17
 -12   8  -9    2.10    5.89
  12  -8   9    4.40    6.01
  13   9  -9   -6.48   12.87
  13   8  -9   32.73   14.27
  13   6  -9    2.22    6.42
  13   6  -9   -0.50    8.28
 -13  -6   9    2.47    6.32
 -13  -6   9    9.81    9.08
  13   5  -9    4.87    7.60
  13   5  -9    1.85    9.75
 -13  -5   9   20.00   10.68
 -13  -5   9   17.28    8.14
 -13  -4   9    0.48    4.94
 -13  -4   9   -4.25    7.91
 -13  -3  -9   10.84    4.31
 -13  -3   9    1.82    4.30
  13   3   9   18.50    6.92
 -13  -3   9   -5.62    4.19
  13   3   9   -2.84    6.92
  13   2  -9    0.96    5.95
  13   2  -9    0.57    9.55
 -13  -2   9    9.36    4.78
 -13  -2   9    5.10    4.58
  13   2   9    4.46    8.33
  13   1  -9   -4.80    8.73
  13   1  -9   -0.52    5.70
  13   1   9    1.01    7.60
 -13  -1   9    2.08    4.48
 -13  -1   9    2.90    4.69
  13   0  -9   12.09   10.76
  13   0  -9    4.93    7.88
 -13   0   9   11.61    7.10
 -13   0   9   16.12    6.78
  13  -1  -9   -4.19    7.18
  13  -1  -9   -2.76    9.59
 -13   1   9    1.67    4.21
  13  -2  -9    4.03    7.70
 -13   2   9    2.71    5.08
  13  -3  -9    3.69    8.59
 -13   3  -9    0.90    5.57
  13  -3   9   -2.00   11.55
 -13   4  -9    1.84    5.96
  13  -4   9   -1.40   11.59
 -13   5  -9    0.96    9.59
 -13   5  -9   20.42   10.30
  13  -5   9   33.15   15.07
  13  -5   9   34.71   10.83
 -13   6  -9    3.29    6.79
 -13   6  -9    2.01    6.59
  13  -6   9    0.60    6.91
  13  -6   9   16.86   11.98
 -13   7  -9   -3.21    5.42
 -13   7  -9   -6.67    7.15
  13  -7   9  -15.49   10.52
  13  -7   9   11.49    6.84
 -13   8  -9    6.80    6.38
  13  -8   9   -2.38    7.66
 -14  -3  -9   -1.40    4.70
  14   3   9    0.87    7.83
 -14  -3   9  -15.05    4.76
 -14  -2  -9    0.69    5.64
  14   2  -9  -13.22   11.40
  14   2  -9   -3.79    6.46
  14   2   9    2.49    7.72
  14   2   9    6.08    9.24
 -14  -2   9   -6.05    5.89
 -14  -2   9   -1.42    5.01
 -14  -1  -9   -2.06    6.19
  14   1  -9    7.93   11.05
  14   1  -9   -7.57    7.62
  14   1   9   17.49    9.53
 -14  -1   9    1.08    6.05
 -14  -1   9   -0.77    5.87
  14   1   9   12.31    8.08
 -14   0  -9    7.58    8.52
  14   0  -9   15.26   12.67
  14   0  -9   -3.04    9.45
  14   0   9   33.19   10.45
 -14   0   9  -11.68    8.58
 -14   0   9   14.25    7.58
  14   0   9   47.96   12.93
 -14   1  -9   11.71    7.51
 -14   1  -9   -1.94    7.71
  14  -1  -9   10.09    8.41
  14  -1   9    9.96    9.46
 -14   1   9   -0.70    7.41
 -14   2  -9   -6.01    7.00
 -14   2  -9    1.96    7.76
  14  -2   9  -50.65   14.63
  14  -2   9  -26.72    9.93
 -14   3  -9    3.03    7.00
 -14   3  -9   -4.07    6.56
  14  -3   9  -11.94   12.93
  14  -3   9   -5.39    7.82
 -14   4  -9    1.03    7.14
 -14   4  -9    0.68    7.26
  14  -4   9   18.55   13.24
  14  -4   9   12.30    8.30
 -14   5  -9   -1.07    6.78
 -14   5  -9    2.10    7.34
  14  -5   9    2.43   12.43
  14  -5   9   16.39    8.39
 -14   6  -9    1.12    6.69
 -14   6  -9   -2.16    6.95
  14  -6   9  -15.09   12.18
  14  -6   9    8.53    7.45
 -14   7  -9   -0.73    6.97
 -14   7  -9    3.53    6.46
  14  -7   9   -8.85   12.11
  14  -7   9   -2.63    7.42
 -14   8  -9  -10.95    6.86
 -14   8  -9   -1.23    6.66
  14  -8   9    8.34    7.40
  14  -9   9    1.29    7.37
 -15  -3  -9    0.77    5.79
  15   3   9    8.49    9.11
 -15  -2  -9   -0.76    5.84
  15   2   9   -0.62   10.12
  15   2   9   -2.72    8.71
 -15  -1  -9    0.76    6.24
  15   1   9   16.51   10.80
  15   1   9    1.69    8.09
 -15  -1   9    0.85    5.44
  15   0  -9    6.05   11.09
 -15   0  -9   -0.77    6.82
 -15   0   9   -3.67    5.14
  15   0   9  -19.87   10.86
  15   0   9  -11.65    8.91
 -15   1  -9  -10.77    6.94
  15  -1  -9   -7.26   12.12
 -15   1  -9    3.08    6.51
  15  -1  -9   -0.74    8.98
  15  -1   9    4.73    8.89
  15  -1   9    5.92   12.42
 -15   1   9    1.96    5.54
 -15   1   9    7.68    7.84
 -15   2  -9   -1.09    8.46
  15  -2  -9   -4.76    9.60
 -15   2  -9    8.20    7.37
  15  -2   9   38.98   10.49
 -15   2   9   -1.05    5.95
  15  -2   9   -1.56   12.78
 -15   3  -9   16.56    8.60
 -15   3  -9    1.13    8.83
  15  -3  -9   18.20   10.56
  15  -3   9    3.29   14.49
  15  -3   9   16.36    9.73
 -15   4  -9  -12.82    7.45
 -15   4  -9   -2.31    6.78
  15  -4   9    0.75    8.14
  15  -4   9   22.13   13.32
 -15   5  -9   -4.78    7.44
 -15   5  -9    0.77    7.60
  15  -5   9    3.56   13.64
  15  -5   9  -19.47    8.66
 -15   6  -9   -2.34    7.39
 -15   6  -9   -3.72    7.80
  15  -6   9    6.42   13.93
  15  -6   9    7.87    8.11
 -15   7  -9    0.79    7.72
 -15   7  -9    2.60    7.47
  15  -7   9  -12.86    8.31
  15  -7   9    7.71   13.31
 -15   8  -9   -4.05    7.21
 -15   8  -9    0.79    7.76
  15  -8   9   -6.42    8.50
 -15   9  -9   -8.73    8.76
  15  -9   9   21.61    8.89
 -16  -3  -9    3.38    6.55
  16   3   9  -19.50   10.62
 -16  -2  -9    5.90    6.46
  16   2   9   -0.99    9.72
  16   1  -9   21.62   12.79
  16   1  -9    9.52    7.90
 -16  -1  -9   -5.92    7.54
  16   1   9    0.73   11.96
 -16  -1   9   -2.77    7.18
  16   1   9    0.93    8.69
 -16  -1   9    2.80    5.59
  16   0  -9    2.36    9.40
  16   0  -9  -11.57   11.97
 -16   0  -9   -5.97    7.03
 -16   0  -9   -9.47    8.46
  16   0   9    0.92    8.98
 -16   0   9    2.01    5.56
  16   0   9   -8.37   12.42
 -16   0   9    3.01    8.16
  16  -1  -9   -5.73   10.48
  16  -1  -9  -19.23   13.05
 -16   1  -9  -10.75    8.24
 -16   1  -9   -5.15    7.16
 -16   1   9    1.07    5.74
  16  -1   9   10.93   10.37
 -16   1   9   -4.23    8.92
  16  -1   9    9.84   13.70
 -16   2  -9    7.48    8.29
  16  -2  -9    3.55   11.46
 -16   2  -9   -1.21    8.42
 -16   2   9    3.40    6.34
  16  -2   9   -0.86    9.76
  16  -2   9   22.40   14.47
 -16   2   9   11.32   10.24
 -16   3  -9  -16.73    9.51
 -16   3  -9   -1.26    9.71
  16  -3  -9   -2.81   11.36
  16  -3   9  -39.85   17.33
  16  -3   9  -10.27   10.18
 -16   4  -9   -3.86    7.87
 -16   4  -9   -5.08    8.07
  16  -4   9   16.86   15.50
  16  -4   9    0.82    8.94
 -16   5  -9   -9.36    8.19
 -16   5  -9   -3.37    8.58
  16  -5   9   -4.10    9.68
  16  -5   9   -0.98   14.54
 -16   6  -9   -9.67    8.88
 -16   6  -9    3.41    8.12
  16  -6   9    4.02   15.53
  16  -6   9   -0.81    9.39
 -16   7  -9    2.88    8.18
 -16   7  -9  -10.25    9.00
  16  -7   9   -1.55    9.53
  16  -7   9  -27.34   13.94
 -16   8  -9   12.93    8.78
 -16   8  -9   -1.49    8.51
  16  -8   9  -28.60    9.27
 -17  -3  -9    4.66    6.77
  17   3   9   -6.71   10.36
 -17  -2  -9    4.67    6.67
  17   2   9   -4.35   10.57
 -17  -1  -9    6.57    6.76
 -17  -1   9   -4.64    7.24
 -17  -1   9    8.27    6.05
  17   1   9  -15.57   13.89
  17   1   9  -10.24   10.43
  17   0  -9   -1.81   13.34
 -17   0  -9  -15.70    9.25
  17   0  -9   -8.80   10.24
 -17   0  -9    6.64    8.07
  17   0   9  -20.95   15.18
 -17   0   9   -4.17    8.99
 -17   0   9    5.50    6.44
  17   0   9    1.01    9.76
  17  -1  -9    5.44    9.78
 -17   1  -9    3.97    9.59
  17  -1  -9    9.50   12.25
 -17   1  -9  -18.20    8.71
 -17   1   9   -1.16    5.90
  17  -1   9   -6.37   15.40
  17  -1   9   -3.01    9.85
 -17   1   9  -13.88    9.63
 -17   2  -9    1.92    8.34
 -17   2  -9   -4.13    9.35
  17  -2  -9    0.98   11.61
 -17   2   9   -4.13   10.59
  17  -2   9    0.95    9.66
  17  -2   9   -9.50   15.33
 -17   2   9    6.13    6.51
  17  -3  -9    4.08   12.88
 -17   3  -9   -0.93    8.80
 -17   3  -9   -1.41    8.74
  17  -3   9    3.77   10.43
  17  -3   9    9.94   15.84
 -17   3   9   38.57   12.40
 -17   4  -9  -10.26   10.02
 -17   4  -9    1.46    9.64
  17  -4   9   -1.03   15.97
  17  -4   9  -28.57   11.32
 -17   5  -9   10.16    8.86
 -17   5  -9   -1.49    9.77
  17  -5   9    3.58   10.21
  17  -5   9   -9.65   15.98
 -17   6  -9   13.87    9.86
 -17   6  -9  -13.94    9.60
  17  -6   9  -29.74   17.30
  17  -6   9    9.77   10.18
 -17   7  -9   -0.93    9.41
 -17   7  -9   12.80    9.26
  17  -7   9  -13.79   17.22
 -17   8  -9    0.94    9.74
 -17   8  -9    1.64    9.12
  17  -8   9  -25.15   11.09
 -18  -3  -9   -2.06    7.39
  18   3   9    9.78   11.46
  18   3   9    0.90   15.61
 -18  -2  -9    1.03    7.84
  18   2   9   11.94   11.92
 -18  -1  -9   -1.44    9.82
 -18  -1  -9    5.21    9.33
  18   1   9   -4.70   11.30
  18   0  -9   -7.85   10.97
 -18   0  -9   -2.90   10.27
 -18   0  -9    8.45    8.69
 -18   0   9   -8.35   10.17
 -18   0   9   -1.21    6.88
  18   0   9   28.12   16.16
  18   0   9   -8.93   11.41
 -18   1  -9    2.13    9.12
 -18   1  -9   -2.94   10.95
  18  -1  -9    8.37   11.70
  18  -1  -9  -15.52   13.65
 -18   1   9    2.53    6.82
  18  -1   9   15.13   16.54
  18  -1   9   -4.44   10.91
 -18   1   9    2.04   10.25
  18  -2  -9   -1.07   12.43
 -18   2  -9    4.28    9.36
 -18   2  -9   15.31   10.50
  18  -2   9    4.23   16.77
 -18   2   9   -6.74   12.39
 -18   2   9   13.29    7.60
  18  -2   9    7.37   11.03
 -18   3  -9   -7.22    8.90
  18  -3  -9   13.75   12.62
 -18   3  -9    4.71   10.33
 -18   3   9   -1.24   13.23
  18  -3   9    1.04   11.06
  18  -3   9   13.08   17.64
 -18   4  -9   17.87   12.40
 -18   4  -9   -2.06   11.08
  18  -4   9  -50.73   19.61
  18  -4   9  -28.79   13.29
 -18   5  -9    3.34   10.76
 -18   5  -9   -4.13   10.58
  18  -5   9    0.98   11.38
  18  -5   9   21.13   19.98
 -18   6  -9   15.66   10.72
 -18   6  -9   -4.06    9.92
  18  -6   9    1.21   17.34
  18  -6   9    5.83   10.35
 -18   7  -9   -6.10   10.62
 -18   7  -9  -12.46    9.26
  18  -7   9    9.58   10.74
  18  -7   9   -2.52   17.12
 -18   8  -9    8.12    9.82
 -18   8  -9   -5.46   10.25
  18  -8   9    1.83   10.21
 -19  -3  -9    4.56    7.90
  19   3   9    2.00   17.21
  19   3   9   -8.04   11.86
 -19  -2  -9   -2.29    9.03
  19   2   9   32.89   13.50
 -19  -1  -9   -1.59   11.35
 -19  -1  -9   -8.12   10.49
  19   1   9   -1.30   12.64
 -19   0  -9   -9.39   10.73
 -19   0  -9    8.04   11.43
  19   0   9    5.40   18.65
 -19   0   9    1.33    7.25
  19   0   9  -23.41   12.33
 -19   1  -9  -13.06   10.37
  19  -1  -9    9.33   12.63
 -19   1  -9    5.00   11.71
  19  -1  -9   -9.05   14.51
 -19   1   9   22.14    7.95
  19  -1   9   -4.90   12.29
  19  -1   9   -5.58   17.21
 -19   1   9   -2.26   11.05
 -19   2  -9   -5.11   10.83
  19  -2  -9   -7.12   12.86
 -19   2  -9   -3.58   10.24
  19  -2   9    4.65   11.56
 -19   2   9    7.23    8.16
  19  -2   9   -5.82   18.56
 -19   2   9  -18.54   13.68
 -19   3  -9    6.88   10.86
 -19   3  -9   -1.75   11.46
  19  -3  -9   -6.28   13.81
 -19   3   9   -1.35   13.77
  19  -3   9   -9.18   11.45
  19  -3   9  -10.78   18.29
 -19   4  -9   -8.00   10.70
 -19   4  -9    5.44   12.01
  19  -4   9   46.25   20.06
  19  -4   9    4.51   12.83
 -19   5  -9    1.14   11.26
 -19   5  -9    5.60   12.58
  19  -5   9  -46.31   21.74
  19  -5   9   -1.06   11.48
 -19   6  -9    4.45   11.56
 -19   6  -9   15.55   12.35
  19  -6   9   -7.94   19.45
  19  -6   9   26.50   13.44
 -19   7  -9  -14.43   12.62
 -20   1   9    2.50   12.15
 -20   1   9    1.52    8.74
  20  -2  -9   -8.21   15.05
 -20   2   9    7.88    7.73
 -20   2   9   -1.36   13.29
  20  -3  -9   -8.30   15.41
 -20   3   9    5.89   14.77
  21  -2  -9   -3.05   18.12
 -21   2   9   15.03   14.88
   0   0  10   72.45   37.76
  -1   0 -10    0.72    2.09
   0   1 -10   -0.51    2.92
  -1   1 -10   35.66   11.07
  -1   1 -10   40.93   12.26
   1  -1  10   15.66   11.93
   1  -1  10   17.61   12.58
   2   1 -10   11.11    3.68
  -1   2 -10    3.83    3.43
   2   1 -10    4.83    2.91
  -1   2 -10    5.87    2.38
   1  -2  10    1.18    3.35
  -2  -1  10    7.20    3.82
   1  -2  10    2.99    2.63
  -2   0 -10    9.79   17.18
   2   0 -10   28.89   16.78
   0  -2  10   47.74   19.21
  -2   1 -10    3.39    2.43
   1   2 -10    2.25    2.23
  -2   1 -10    0.85    3.47
   2  -1  10    2.55    3.56
   2  -1  10    4.32    2.61
   2   2 -10    8.51    3.11
   2   2 -10    3.22    3.95
  -2   2 -10    6.93    2.97
  -2   2 -10    4.69    3.97
  -2   2 -10    2.99    2.75
   2  -2  10    9.29    3.67
  -2  -2  10    4.32    4.04
   2  -2  10    5.33    3.84
   2  -2  10    7.18    3.59
   3   2 -10   15.21    7.00
  -2   3 -10   19.71    6.78
  -2   3 -10   19.65    6.63
  -2   3 -10   14.60    6.61
   3   2 -10   15.67    8.10
  -2   3 -10   14.64    8.16
   2  -3  10   16.74    7.87
  -3  -2  10   10.66    8.22
   2  -3  10   12.97    8.35
   2  -3  10   19.80    7.32
  -1   3 -10    2.18    1.41
   3   1 -10    1.93    3.51
  -1   3 -10    3.32    1.42
  -3  -1  10    0.19    3.52
   1  -3  10    3.47    1.79
   1  -3  10    3.37    2.57
   3   0 -10    1.36    3.59
   3   0  10    0.14    1.76
  -3   0  10   -0.91    3.53
   1   3 -10    2.21    1.89
   1   3 -10    4.77    2.83
  -3   1 -10    2.29    1.99
  -3   1 -10    0.71    1.45
   3  -1  10    2.64    2.37
   3  -1  10    2.39    2.58
  -1  -3  10    2.34    2.90
   3  -1  10    0.21    3.85
   2   3 -10   11.29    5.96
  -3   2 -10   11.05    6.25
  -3   2 -10   16.98    6.41
   2   3 -10   19.09    7.58
  -3   2 -10   12.46    7.71
   3  -2  10    7.87    7.51
   3  -2  10   16.74    7.25
  -2  -3  10   13.41    7.57
   3  -2  10    7.94    7.83
   3   3 -10   -0.24    2.84
  -3   3 -10   -0.38    1.57
  -3   3 -10    0.58    1.28
  -3   3 -10   -0.41    1.42
  -3   3 -10    0.65    2.52
  -3  -3  10    2.04    3.07
   3  -3  10   -0.26    1.40
   3  -3  10    0.82    3.05
   3  -3  10    0.15    1.87
   3  -3  10   -0.10    2.38
  -3   4 -10   -0.15    1.59
  -3   4 -10    4.34    1.97
   4   3 -10    0.12    2.18
   4   3 -10    0.63    1.44
   4   3 -10    0.62    2.12
  -3   4 -10    3.28    2.58
  -3   4 -10   -0.26    1.60
   4   3 -10   -3.47    3.55
   3  -4  10   -1.32    2.38
  -4  -3  10    1.29    3.47
  -4  -3  10   -0.66    1.11
   3  -4  10   -0.55    2.61
   3  -4  10   -0.90    3.89
  -4  -3  10    0.08    0.94
   3  -4  10    1.69    1.62
   4   2 -10   10.25    4.25
   4   2 -10    5.21    5.46
  -2   4 -10   10.68    4.11
   4   2 -10    7.76    4.18
  -2   4 -10    9.07    4.27
   2  -4  10    9.20    6.04
  -4  -2  10    8.17    5.69
   2  -4  10    9.31    4.48
   4   1 -10    9.98    4.09
   4   1 -10   12.19    5.09
  -1   4 -10    6.98    3.39
   4   1 -10    7.94    3.95
  -1   4 -10   12.06    3.80
   1  -4  10    6.31    3.65
  -4  -1  10    4.64    5.03
   4   0 -10    0.69    3.66
   4   0 -10    1.63    2.94
   0   4 -10    0.57    1.98
   0   4 -10    0.39    2.60
  -4   0  10   -1.18    3.76
   0  -4  10    2.19    1.93
  -4   1 -10    5.94    3.68
   1   4 -10    6.30    4.32
  -4   1 -10    1.87    3.25
   1   4 -10    4.99    3.46
  -1  -4  10    7.16    4.37
  -1  -4  10    8.75    3.25
   4  -1  10   13.22    4.32
   2   4 -10   10.13    4.35
  -4   2 -10   13.46    4.24
   2   4 -10    4.27    5.18
  -4   2 -10   15.50    5.80
  -4   2 -10   10.27    4.26
   4  -2  10    8.55    5.44
  -2  -4  10    7.57    4.10
  -2  -4  10    3.27    5.30
   4  -2  10    9.72    4.90
  -4   3 -10    0.95    1.58
  -4   3 -10    0.50    1.69
  -4   3 -10   -0.15    2.47
   3   4 -10    1.51    3.09
   4  -3  10   -1.65    2.51
   4  -3  10   -0.24    1.44
   4  -3  10   -1.09    2.55
  -3  -4  10   -0.17    3.15
   4   4 -10   11.29    7.98
  -4   4 -10   15.49    6.54
   4   4 -10   20.58    7.62
  -4   4 -10   23.11    7.65
  -4   4 -10   13.85    6.64
   4   4 -10   13.76    6.39
   4  -4  10   13.30    7.42
  -4  -4  10   10.38    6.26
  -4  -4  10   15.61    6.23
   4  -4  10   17.53    6.15
   4  -4  10   15.72    7.13
  -4  -4  10   10.85    7.57
   5   4 -10   27.77    9.37
   5   4 -10   22.52   11.83
   5   4 -10   28.64   10.91
  -4   5 -10   20.86   11.69
  -5  -4  10   17.05    9.09
  -5  -4  10   27.33   11.07
  -5  -4  10   27.07    9.38
  -5  -4  10    0.92   10.74
   5   3 -10    4.89    4.08
   5   3 -10    4.23    2.98
   5   3 -10    7.16    2.99
   5   3 -10    2.28    4.33
  -3   5 -10    4.52    2.82
  -5  -3  10    4.40    2.43
  -5  -3  10    6.25    2.52
   3  -5  10    4.88    3.16
  -5  -3  10    1.19    4.56
  -2   5 -10   19.03    9.86
   5   2 -10   29.81    9.12
   5   2 -10   25.24    9.81
   5   2 -10   19.63   11.07
   5   2 -10   20.64   14.18
   2  -5  10   19.58    9.19
   2  -5  10   24.59   11.14
  -5  -2  10   20.85   11.42
  -5  -2  10   21.53   10.81
  -5  -2  10   20.87    9.05
   5   1 -10    2.45    3.65
  -1   5 -10    0.98    2.27
   5   1 -10    0.78    2.64
   5   1 -10   -0.52    1.99
  -1   5 -10    1.99    2.80
   5   1  10    1.56    2.34
   1  -5  10    0.71    2.08
   1  -5  10    0.21    1.82
  -5  -1  10   -4.10    4.27
   5   0 -10   -1.35    3.31
   0   5 -10    1.70    2.81
  -5   0 -10   -0.26    1.48
   0   5 -10    0.24    2.33
   5   0 -10   -0.36    3.77
   5   0  10    1.70    2.93
  -5   0  10   -2.71    3.82
   5   0  10    1.09    2.49
   0  -5  10    0.73    2.09
   1   5 -10    1.27    2.65
  -5   1 -10    1.63    1.74
   5  -1 -10   -0.91    3.78
  -5   1 -10    5.02    2.12
   1   5 -10    1.86    3.08
   5  -1  10    4.52    2.89
   5  -1  10    1.12    3.08
  -1  -5  10    1.28    2.23
  -5   2 -10   18.02   12.27
   2   5 -10   24.37   10.83
  -5   2 -10   24.55    9.51
   2   5 -10   18.33    9.59
   5  -2  10   24.76   11.61
  -2  -5  10   20.69    8.94
   5  -2  10   21.62   11.75
  -5   3 -10    4.71    2.40
   3   5 -10    3.62    3.27
  -5   3 -10    5.32    2.72
   3   5 -10    5.56    2.40
   3   5 -10    4.51    3.79
  -5   3 -10    7.34    3.58
  -5   3 -10    7.96    2.45
   5  -3  10    2.23    2.06
   5  -3  10   -2.43    3.32
   5  -3  10   -1.92    4.99
  -3  -5  10    1.70    2.81
  -5   4 -10   31.82   12.04
  -5   4 -10   32.40   10.75
   4   5 -10   37.14   11.77
  -5   4 -10   25.89   10.40
   4   5 -10   25.69   11.53
  -5   4 -10   21.72   10.96
   5  -4  10   31.99   11.40
   5  -4  10   20.90   13.45
   5  -4  10   16.25   11.68
   5  -4  10   28.94   10.53
  -5   5 -10    2.49    2.42
   5   5 -10    3.24    2.55
   5   5 -10    1.54    2.89
   5   5 -10   -2.68    3.64
  -5   5 -10    0.30    2.79
   5  -5  10    0.35    5.68
   5  -5  10    1.91    3.11
  -5  -5  10    0.64    2.83
   6   5 -10   11.99    5.83
  -5   6 -10   11.79    4.54
   6   5 -10    7.50    4.80
   5  -6  10    6.28    5.32
  -6  -5  10    4.12    4.66
   6   4 -10    2.53    2.82
   6   4 -10   -0.17    3.32
   6   4 -10    1.20    4.10
   6   4 -10    0.27    2.65
  -6  -4  10    2.14    2.61
  -6  -4  10   -0.32    1.66
  -6  -4  10   -1.73    4.59
  -6  -4  10    0.93    1.71
   6   3 -10   97.18   40.40
  -3   6 -10   78.65   39.95
   6   3 -10   90.78   47.68
   6   3 -10   82.07   38.30
   6   3 -10   90.07   31.85
   3  -6  10   73.89   41.46
   3  -6  10   59.41   34.67
  -6  -3  10   81.68   39.16
  -6  -3  10   80.15   36.58
  -6  -3  10   86.12   35.44
   6   2 -10   15.96    8.80
   6   2 -10   16.22    7.10
   6   2 -10   11.36    5.66
   6   2 -10   14.86    5.56
  -2   6 -10   17.89    6.51
  -2   6 -10   12.93    6.19
   2  -6  10    4.86    6.53
  -6  -2  10   10.32    5.19
  -6  -2  10    9.54    7.33
  -6  -2  10   12.78    6.09
   2  -6  10   15.46    6.15
  -6  -1 -10    0.31   12.46
  -1   6 -10   33.11   13.92
   6   1 -10   28.58   12.13
   6   1 -10   30.82   14.54
  -1   6 -10   33.97   12.84
   6   1 -10   37.03   12.95
   6   1  10   40.03   14.47
   1  -6  10   41.84   12.24
  -6  -1  10   23.23   15.14
   0   6 -10    7.82    3.59
   6   0 -10    4.88    5.44
   6   0 -10    6.58    3.92
   0   6 -10    6.01    3.60
  -6   0 -10    0.58    2.62
   0  -6  10    5.66    3.28
   6   0  10    4.59    3.62
   6   0  10   -0.37    4.31
  -6   0  10    0.78    5.01
   1   6 -10   24.66   12.24
   6  -1 -10   27.00   13.24
   1   6 -10   29.89   13.21
  -6   1 -10   27.05   13.79
  -6   1 -10   26.21   11.97
  -1  -6  10   34.49   11.51
   6  -1  10   27.85   14.38
   6  -1  10   24.38   13.45
   2   6 -10   10.90    5.71
  -6   2 -10    9.45    4.85
   2   6 -10    5.31    6.11
  -6   2 -10   14.79    5.19
   6  -2  10   19.60    6.68
  -2  -6  10    8.24    5.16
   3   6 -10   70.27   35.21
  -6   3 -10  112.32   34.72
  -6   3 -10   75.15   41.64
  -6   3 -10  117.01   35.43
   3   6 -10   79.72   37.98
  -6   3 -10   73.26   36.14
   6  -3  10   81.23   41.74
  -3  -6  10  101.50   33.41
   6  -3  10   91.49   37.30
   6  -3  10   57.88   40.02
   6  -3  10   88.95   33.35
  -6   4 -10    1.59    2.55
   4   6 -10    4.00    3.95
  -6   4 -10    1.78    2.61
  -6   4 -10    3.81    2.55
   6  -4  10    0.78    3.48
   6  -4  10   -1.29    5.53
   6  -4  10    1.19    2.54
  -6   5 -10   13.05    4.59
   5   6 -10    6.95    5.91
  -6   5 -10   12.45    5.23
   5   6 -10    9.35    5.18
  -5  -6  10    5.69    4.74
   6  -5  10    4.14    7.25
   6  -5  10    6.88    5.45
  -6   6 -10   -0.56    3.26
   6   6 -10    0.72    4.95
   6   6 -10   -1.57    3.85
   6  -6  10    0.59    3.42
   6  -6  10   -1.83    5.85
  -6  -6  10   -0.40    3.52
   7   6 -10    0.38    5.42
   7   6 -10    1.24    4.04
   6  -7  10    0.31    3.59
  -7  -6  10    6.40    3.86
   7   5 -10    5.42    5.36
  -5   7 -10    7.47    4.19
   7   5 -10    4.48    4.22
  -7  -5  10    6.92    5.87
  -7  -5  10    5.52    3.98
   5  -7  10    4.17    4.41
   7   4 -10   38.33   22.40
  -4   7 -10   35.77   19.12
   7   4 -10   35.51   16.05
   7   4 -10   52.78   18.43
   4  -7  10   36.32   19.47
  -7  -4  10   56.24   18.72
  -7  -4  10   19.89   18.75
  -7  -4  10   43.57   15.76
  -3   7 -10    0.85    3.15
   7   3 -10   -0.25    2.93
   7   3 -10    0.32    4.23
  -7  -3  10    0.87    1.86
  -7  -3  10    1.15    4.90
  -7  -3  10   -1.23    2.90
   7   2 -10   85.82   26.51
   7   2 -10   67.15   32.65
  -2   7 -10   56.22   32.45
  -7  -2  10   49.12   34.73
  -1   7 -10   28.47   10.03
   7   1 -10   27.76    8.65
   7   1 -10   20.97   10.92
  -7  -1 -10   -1.03    8.91
   7   1  10   21.34   10.46
  -7  -1  10   12.51   11.64
   1  -7  10   21.45    9.10
   7   1  10   16.72   11.09
   7   0 -10   -0.34    3.47
   7   0 -10    1.21    3.36
   7   0 -10    3.55    4.73
   0   7 -10   -2.70    3.51
   0   7 -10    1.28    3.36
  -7   0 -10   -0.65    2.22
   7   0  10   -2.72    3.99
  -7   0  10    0.83    4.69
   0  -7  10   -0.81    3.31
   7   0  10    3.93    3.66
  -7   1 -10   21.09    9.76
   7  -1 -10   24.04   10.98
   1   7 -10   21.00   10.12
   1   7 -10   23.24   10.77
   7  -1  10   33.05   10.98
   7  -1  10   20.74   11.85
  -1  -7  10   22.23    9.70
  -7   2 -10   61.63   28.80
   2   7 -10   71.35   31.58
   2   7 -10   61.48   29.70
   7  -2  10   66.62   31.21
  -2  -7  10   74.06   28.44
   7  -2  10   72.03   35.57
  -7   3 -10    2.89    2.63
   3   7 -10    0.82    3.83
   3   7 -10   -2.24    3.83
  -7   3 -10    0.28    2.60
  -3  -7  10    0.84    3.25
   7  -3  10    0.98    5.38
   7  -3  10    0.61    3.55
   4   7 -10   39.14   19.23
  -7   4 -10   60.11   18.43
  -7   4 -10   46.45   17.93
   7  -4  10   55.79   19.34
   7  -4  10   40.09   21.27
  -7   5 -10    4.70    4.35
   5   7 -10    4.81    5.08
  -7   5 -10    6.94    4.00
   5   7 -10   14.07    5.72
  -5  -7  10    1.82    4.62
   7  -5  10   16.03    7.26
   7  -5  10    2.51    4.85
  -7   6 -10   -2.37    3.14
   6   7 -10    1.20    5.45
   6   7 -10    0.46    4.35
   7  -6  10    8.16    6.77
   7  -6  10   -2.35    4.06
  -6  -7  10   -0.95    4.15
   7   7 -10    8.17    6.03
   7   7 -10   -0.95    4.94
  -7  -7  10    8.54    4.79
   7  -7  10    3.48    4.74
   8   7 -10    2.35    6.65
   8   7 -10   -2.00    5.04
   7  -8  10    3.58    4.52
  -8  -7  10    5.84    5.12
   8   6 -10   -3.22    5.81
   8   6 -10   -0.43    4.33
   6  -8  10   -1.29    3.69
  -8  -6  10   -6.80    3.98
   8   5 -10   -2.55    3.93
   8   5 -10   -0.37    5.22
  -8  -5  10    0.39    3.60
   5  -8  10   -1.15    3.63
  -8  -5  10   -9.74    5.60
   8   4 -10   11.15    8.07
   8   4 -10   12.99    7.49
   8   4 -10   18.93    6.20
  -8  -4  10    8.06    6.08
  -8  -4  10   22.26    8.17
  -8  -4  10    8.08    5.66
  -8  -4  10   11.95    6.45
   8   3 -10   10.72    4.34
   8   3 -10   10.50    6.04
   8   3 -10    6.86    6.68
   8   3 -10    2.23    4.98
  -8  -3  10    6.58    4.22
  -8  -3  10    8.87    4.51
  -8  -3  10    9.80    4.10
  -8  -3  10    6.67    6.79
   8   2 -10    6.05    5.32
   8   2 -10    9.46    8.66
   8   2 -10   16.85    7.40
   8   2 -10    7.08    5.83
   8   2  10   15.05    6.72
  -8  -2  10   10.30    8.04
  -8  -2  10   12.94    5.30
  -8  -2  10   11.04    5.99
   8   1 -10    7.66    6.06
   8   1 -10    9.59    6.67
  -8  -1 -10    0.38    3.85
   8   1 -10    9.65    4.28
   8   1 -10    5.25    4.23
   8   1  10   11.27    5.14
  -8  -1  10    2.70    6.50
   8   1  10    1.46    5.56
  -8  -1  10    6.89    4.17
   8   0 -10   12.08    7.23
   0   8 -10   15.90    5.93
   8   0 -10   10.12    5.55
   8   0 -10    8.61    5.78
  -8   0 -10    4.02    4.91
  -8   0  10    8.92    5.26
  -8   0  10   10.66    7.36
   8   0  10    2.14    6.33
   8   0  10   17.93    6.50
  -8   1 -10    6.67    4.89
   1   8 -10    7.87    5.68
   8  -1 -10   14.48    6.12
   8  -1 -10   18.96    6.25
   8  -1  10    8.38    5.83
   8  -1  10   12.36    6.60
   2   8 -10   12.77    7.45
  -8   2 -10   18.05    6.46
   8  -2  10   13.77    7.18
  -2  -8  10   15.07    6.90
   8  -2  10   13.70    8.90
  -8   3 -10    7.67    5.15
  -8   3 -10   13.18    4.91
   3   8 -10   15.12    6.17
   8  -3  10    9.78    7.67
  -3  -8  10    8.12    5.45
   8  -3  10    5.60    5.81
   4   8 -10   13.16    7.47
  -8   4 -10   17.55    6.29
  -8   4 -10   10.87    6.47
   8  -4  10   11.39    7.01
   8  -4  10   11.52    9.18
  -8   5 -10   -3.04    3.78
  -8   5 -10   -0.55    3.49
   5   8 -10    2.03    4.40
   5   8 -10    0.85    5.19
   8  -5  10    3.62    6.65
   8  -5  10   -4.72    4.49
  -5  -8  10   -1.61    4.57
   6   8 -10    0.45    6.00
   6   8 -10    1.58    4.72
  -8   6 -10    0.64    3.36
  -6  -8  10   -0.56    4.51
   8  -6  10    5.56    7.37
   8  -6  10   -0.75    4.75
  -8   7 -10   -2.20    4.02
   7   8 -10   -0.98    6.53
   7   8 -10    3.84    5.44
  -7  -8  10    0.59    4.94
   8  -7  10    3.84    4.61
   8   8 -10    3.69   10.40
   8   8 -10   15.44    8.57
   8  -8  10   23.68    8.95
  -8  -8  10   16.62    8.59
   9   8 -10    0.60    5.82
   9   8 -10    9.03    8.08
  -9  -8  10   -0.65    5.74
   9   7 -10    9.40    8.13
   9   7 -10    4.19    6.46
  -9  -7  10   13.48    6.41
   9   6 -10    8.94    7.65
   9   6 -10    7.33    6.62
  -9  -6  10   12.65    8.25
  -9  -6  10   12.09    6.08
   9   5 -10   12.75    6.06
   9   5 -10   10.60    7.49
  -9  -5  10    7.34    7.75
  -9  -5  10   10.54    5.79
   9   4 -10    2.66    5.60
   9   4 -10   -1.63    3.50
  -9  -4  10   -0.98    2.37
  -9  -4  10   -4.07    5.86
  -9  -4  10   -1.13    4.02
  -9  -4  10   -0.28    2.56
   9   3 -10    8.20    7.04
   9   3 -10    8.25    7.79
   9   3 -10   17.02    5.28
   9   3 -10   10.38    5.82
  -9  -3  10    8.24    7.60
  -9  -3  10   15.45    5.33
  -9  -3  10    9.58    5.01
  -9  -3  10    4.71    5.03
   9   2 -10    1.66    3.45
   9   2 -10    8.85    6.16
  -9  -2 -10    0.44    3.39
   9   2 -10    0.54    3.42
   9   2 -10    4.01    5.04
  -9  -2  10    1.78    2.87
  -9  -2  10    4.05    5.85
  -9  -2  10    2.91    2.97
   9   2  10    7.33    4.51
   9   1 -10   -1.64    5.96
   9   1 -10    1.20    3.48
   9   1 -10   -3.88    5.72
   9   1 -10    4.39    3.48
  -9  -1 -10    1.27    3.03
  -9  -1  10    3.32    3.25
   9   1  10    5.29    5.10
   9   1  10    6.48    4.91
  -9  -1  10   -4.93    6.11
  -9  -1  10    3.87    2.99
   9   0 -10   -1.37    5.59
  -9   0 -10    2.45    3.29
   9   0 -10   -2.46    4.17
   9   0 -10    6.52    4.12
   9   0 -10   -3.52    5.29
   9   0  10    5.18    4.62
  -9   0  10   -3.22    2.60
   9   0  10    0.96    4.62
  -9   0  10    1.90    5.81
  -9   1 -10    3.96    3.28
   9  -1 -10    0.91    4.88
   9  -1 -10   -4.90    5.01
   9  -1  10    2.13    4.41
   9  -1  10    3.51    5.41
  -9   2 -10    3.37    3.75
   9  -2  10    7.03    6.79
   9  -2  10    3.29    4.82
  -9   3 -10    8.25    5.71
  -9   3 -10    5.28    5.46
   9  -3  10   11.56    8.95
   9  -3  10   15.52    6.29
  -9   4 -10   -1.60    3.96
  -9   4 -10   -2.86    3.51
   9  -4  10   -1.18    4.78
   9  -4  10   -0.46    7.01
  -9   5 -10    7.27    6.49
  -9   5 -10    7.37    5.90
   9  -5  10   12.62    7.05
   9  -5  10   19.76    9.28
  -9   6 -10    8.18    5.70
   9  -6  10   14.03    6.73
   9  -6  10    2.72    9.75
  -9   7 -10    3.88    5.23
   9  -7  10    9.78    6.41
   9  -7  10    9.26    9.72
   8   9 -10    4.83    8.32
   9  -8  10    5.58    5.37
  10   8 -10    8.12    6.27
  10   8 -10    3.06    9.03
  10   7 -10    8.80    6.31
  10   7 -10    9.81    8.41
 -10  -7  10    7.15    6.20
  10   6 -10    5.64    6.96
  10   6 -10   -3.38    5.60
 -10  -6  10   -7.19    7.12
 -10  -6  10   -5.67    4.93
  10   5 -10    5.31    5.47
  10   5 -10   -0.83    7.24
 -10  -5  10   10.82    5.58
 -10  -5  10   12.55    7.76
  10   4 -10   -0.40    8.15
  10   4 -10   11.26    6.04
 -10  -4  10   16.86    5.93
 -10  -4  10    3.49    8.61
  10   3 -10    1.56    5.14
  10   3 -10    1.87    7.39
  10   3 -10   19.97    7.98
 -10  -3  10   27.42    8.26
 -10  -3  10    0.86    4.74
 -10  -2 -10   -0.48    3.15
  10   2 -10   -3.27    6.51
  10   2 -10   -3.08    5.29
  10   2 -10    3.90    3.91
  10   2 -10   -1.46    3.55
  10   2  10    0.62    5.20
  10   2  10   -0.34    4.93
 -10  -2  10    0.88    3.01
 -10  -2  10  -10.89    6.03
 -10  -2  10    1.86    3.14
 -10  -1 -10    1.40    3.39
  10   1 -10    7.71    6.87
  10   1 -10   -3.64    3.62
  10   1 -10    0.41    5.82
  10   1 -10    3.84    4.18
 -10  -1  10    0.69    3.46
  10   1  10    3.45    5.41
 -10  -1  10    5.30    6.30
 -10  -1  10   -3.18    3.06
  10   1  10   -2.42    5.34
  10   0 -10    7.06    7.46
  10   0 -10    5.66    5.18
  10   0 -10    2.33    6.27
 -10   0 -10    1.37    4.34
  10   0 -10    8.29    4.43
  10   0  10   10.19    6.44
  10   0  10    6.24    5.35
 -10   0  10    3.59    3.82
 -10   0  10   -0.34    6.53
  10  -1 -10   -3.85    5.09
 -10   1 -10    1.79    3.65
  10  -1 -10    5.28    5.02
  10  -1  10   -2.38    5.51
  10  -1  10   -8.73    6.73
 -10   2 -10    1.70    3.99
  10  -2 -10    0.59    6.50
  10  -2 -10   -7.32    6.18
  10  -2  10   19.01    7.94
  10  -2  10    6.95    5.27
 -10   3 -10    1.25    4.83
 -10   3 -10    1.28    4.66
  10  -3  10  -11.13    8.98
  10  -3  10   -8.08    6.39
 -10   4 -10   18.00    8.66
 -10   4 -10   15.58    8.63
  10  -4  10   63.66   13.71
  10  -4  10    1.37    9.51
 -10   5 -10    9.08    6.32
 -10   5 -10    5.50    5.80
  10  -5  10   10.92    9.71
  10  -5  10   16.31    6.82
 -10   6 -10    1.00    4.94
 -10   6 -10   -0.74    4.25
  10  -6  10    4.99    5.54
  10  -6  10   -2.95    8.67
 -10   7 -10    4.98    4.66
  10  -7  10    5.12    5.88
  10  -7  10   -5.22    9.28
  10  -8  10    0.47    5.80
  10  -9  10   -4.27    6.03
  11   9 -10    5.28   11.39
  11   7 -10   -7.58    7.97
  11   7 -10   -3.48    6.13
 -11  -7  10   13.59    8.88
 -11  -7  10    2.53    5.49
  11   6 -10   -2.44    7.17
  11   6 -10    1.02    5.59
 -11  -6  10   -0.55    5.39
 -11  -6  10   -1.74    7.82
  11   5 -10    3.89    5.05
  11   5 -10    1.74    6.62
 -11  -5  10    4.35    4.95
 -11  -5  10   -3.26    7.42
  11   4 -10    0.39    4.36
  11   4 -10   -2.08    6.31
 -11  -4  10    3.44    4.46
 -11  -4  10   -5.28    7.18
  11   3 -10   -0.67    4.05
  11   3 -10    1.62    5.93
 -11  -3  10   -0.61    6.78
 -11  -3  10    2.80    4.25
 -11  -3  10   -5.59    3.19
 -11  -3  10    0.47    3.16
 -11  -2 -10    1.59    3.55
  11   2 -10   -4.85    5.67
  11   2 -10    3.08    3.74
  11   2 -10    5.02    7.03
  11   2 -10   -6.37    4.24
 -11  -2  10    3.63    3.41
 -11  -2  10   -2.72    4.35
 -11  -2  10   -0.68    3.74
  11   2  10    2.01    6.51
  11   2  10    4.60    5.68
 -11  -2  10   -4.74    6.45
  11   1 -10   10.98    9.91
  11   1 -10    0.87    8.64
 -11  -1 -10    4.14    6.03
  11   1 -10   16.20    6.81
  11   1 -10    9.68    5.61
  11   1  10   15.57    8.02
  11   1  10   17.57    7.91
 -11  -1  10    4.66    6.19
 -11  -1  10   17.45    6.23
 -11  -1  10   10.05    9.26
 -11   0 -10    1.53    4.21
  11   0 -10   -6.40    6.28
  11   0 -10   -1.65    7.14
  11   0 -10  -15.17    5.05
  11   0 -10   -2.77    4.33
  11   0  10   -6.78    7.10
 -11   0  10    0.66    3.64
  11   0  10   -1.15    5.68
 -11   0  10    1.09    6.57
  11  -1 -10   18.82    7.40
  11  -1 -10   12.96    8.23
 -11   1 -10   15.07    6.99
 -11   1  10   10.03    6.98
  11  -1  10   17.02    8.20
  11  -1  10   12.64   10.13
  11  -2 -10    6.03    6.58
 -11   2 -10    0.96    4.14
  11  -2 -10   -1.70    6.42
 -11   2 -10    4.29    5.00
  11  -2  10   -1.49    8.33
  11  -2  10    7.28    6.07
 -11   3 -10    4.98    4.92
 -11   3 -10    0.49    4.79
  11  -3  10    7.03    6.20
  11  -3  10   -0.54    9.08
 -11   4 -10    7.35    4.87
 -11   4 -10    4.53    5.05
  11  -4  10   -4.04    9.85
  11  -4  10   -0.51    5.65
 -11   5 -10    1.05    5.33
 -11   5 -10    6.16    4.74
  11  -5  10    6.03    9.36
  11  -5  10   -0.50    5.87
 -11   6 -10   -0.55    5.47
 -11   6 -10   -1.64    4.92
  11  -6  10    2.56    6.01
  11  -6  10   -7.08   10.47
 -11   7 -10    0.90    4.77
  11  -7  10   18.16    9.48
  11  -7  10   -1.01    5.89
  11  -8  10   -8.21    7.18
  12   9 -10    5.50   12.12
 -12  -8  10    2.28    6.50
  12   6 -10   -0.53    5.80
  12   6 -10    6.61    7.72
 -12  -6  10   -7.01    8.52
 -12  -6  10    8.19    6.02
  12   5 -10   -7.14    7.76
  12   5 -10   -1.89    5.01
 -12  -5  10    3.09    5.13
 -12  -5  10   -3.11    7.83
  12   4 -10    0.86    7.10
  12   4 -10    3.66    5.04
 -12  -4  10   10.56    7.58
 -12  -4  10    1.38    4.86
  12   3 -10   -3.17    4.43
  12   3 -10    2.54    6.33
 -12  -3  10    0.42    4.75
 -12  -3  10    4.24    7.25
  12   2 -10   -7.59    7.97
  12   2 -10    9.41    5.35
 -12  -2 -10    0.58    3.91
  12   2 -10   -3.42    6.54
  12   2 -10    8.22    4.12
  12   2  10    0.72    6.88
 -12  -2  10    4.40    7.17
 -12  -2  10    4.91    4.71
 -12  -2  10   -1.93    4.24
 -12  -2  10    8.09    4.16
  12   1 -10    9.69    6.49
  12   1 -10    7.66    8.33
  12   1 -10   -3.12    5.20
  12   1 -10    0.96    3.86
 -12  -1 -10    1.72    4.54
 -12  -1  10    6.80    7.09
 -12  -1  10   -0.43    4.66
 -12  -1  10    1.91    3.80
  12   1  10   -8.92    6.43
  12   1  10   -2.28    6.27
  12   0 -10   14.94   10.46
  12   0 -10   14.92    6.30
  12   0 -10    6.76    9.19
  12   0 -10   18.25    7.76
 -12   0 -10    4.54    6.74
 -12   0  10    5.00    6.56
 -12   0  10   -2.31    9.90
 -12   0  10   14.28    7.33
  12   0  10   40.70    9.70
  12   0  10    6.97    8.22
  12  -1 -10   -6.84    7.40
  12  -1 -10    0.41    5.36
 -12   1 -10    3.38    4.59
  12  -1  10    0.59    6.32
 -12   1  10    3.90    4.18
  12  -1  10   -5.23    8.49
 -12   2 -10    3.25    5.21
  12  -2 -10    1.94    7.22
 -12   2 -10   -0.80    5.15
  12  -2  10    0.57    9.66
  12  -2  10    2.32    6.29
 -12   3 -10    8.81    5.50
 -12   3 -10   -0.55    5.26
  12  -3  10   19.38   10.06
  12  -3  10   -0.56    6.19
 -12   4 -10   -1.66    3.26
 -12   4 -10    1.68    5.54
  12  -4  10   -3.42    6.15
 -12   5 -10    5.83    5.96
  12  -5  10    1.11    6.26
 -12   7 -10   -0.98    5.77
  12  -7  10  -30.86   13.43
 -12   8 -10   -1.05    5.62
  12  -8  10   -5.00    6.40
  12  -9  10    5.60    6.95
  13   9 -10  -13.68   12.78
  13   8 -10   -5.02   11.74
 -13  -8  10  -30.65   12.51
 -13  -8  10   -4.82    7.64
 -13  -7  10   -0.71    6.60
  13   6 -10    2.63    8.54
 -13  -6  10    0.39    9.33
  13   5 -10   -7.85    8.51
  13   5 -10   -0.50    6.45
 -13  -5  10  -23.07    9.33
 -13  -5  10   -5.48    5.87
  13   4 -10   -4.71    5.62
  13   4 -10  -13.30    7.45
 -13  -4  10  -12.63    8.62
 -13  -4  10   -2.45    5.83
 -13  -3 -10   -1.96    5.05
 -13  -3  10   -2.24    5.25
  13   3  10   -4.29    7.29
 -13  -3  10    3.46    8.44
 -13  -2 -10   12.85    4.95
 -13  -2  10   -2.23    5.00
  13   2  10    0.50    7.81
 -13  -2  10    3.84    4.78
  13   2  10   17.29    7.09
  13   1 -10   10.19    9.23
  13   1 -10   -1.51    6.10
 -13  -1  10    3.50    4.22
 -13  -1  10    4.87    5.54
  13   1  10    2.54    8.41
  13   0 -10   -8.43    6.63
  13   0 -10   -1.94   10.09
 -13   0  10   -7.75    4.29
  13   0  10    0.55    8.99
 -13   0  10    3.39    6.20
  13  -1 -10    4.34    7.58
 -13   1  10   10.13    4.92
  13  -1  10    1.17   10.32
  13  -2 -10   -3.52    8.96
 -13   2 -10    5.37    6.55
  13  -2  10   -5.09   10.81
  13  -3  10  107.70   35.22
 -13   4 -10    3.74    6.81
 -13   4 -10    0.93    7.43
  13  -4  10   30.89    7.91
 -13   5 -10   -4.83    6.43
 -13   5 -10   -6.43    6.54
  13  -5  10   -3.80    8.30
  13  -5  10    6.61   11.91
 -13   6 -10    1.01    6.39
 -13   6 -10    7.30    6.90
  13  -6  10    4.28    7.28
  13  -6  10   10.01   11.86
 -13   7 -10   -0.67    6.64
 -13   7 -10   -1.07    5.83
  13  -7  10    4.92    6.98
  13  -7  10    0.82   11.33
 -13   8 -10    5.41    7.39
 -13   8 -10   -7.94    7.18
  13  -8  10  -21.02    8.15
  13  -9  10    1.81    7.22
 -14  -9  10   -8.75   12.92
 -14  -8  10   -9.64   12.15
 -14  -3 -10    2.87    5.04
  14   3  10   11.65    8.42
 -14  -2 -10    3.54    5.11
  14   2  10    3.42    8.21
  14   2  10  -13.33    9.30
 -14  -1 -10   -4.92    6.28
  14   1 -10   -0.59    6.97
  14   1 -10    3.28   10.12
  14   1  10   10.71    8.16
 -14  -1  10    5.46    5.95
 -14  -1  10   -5.37    4.55
  14   1  10    9.62    8.93
  14   0 -10    0.62    7.01
 -14   0 -10    1.41    5.65
  14   0 -10    0.70   10.11
  14   0  10  -10.03    7.64
  14   0  10   -6.79    9.76
 -14   0  10   -4.38    6.37
 -14   0  10    9.26    4.56
 -14   1 -10   -9.87    6.22
  14  -1 -10   12.21    8.10
 -14   1  10   10.05    7.45
  14  -1  10  -25.33   12.15
  14  -1  10  -10.67    8.38
 -14   2 -10    2.00    7.32
 -14   2 -10   -2.72    6.91
  14  -2  10    0.72    7.97
  14  -2  10   -7.07   12.62
 -14   3 -10    3.09    6.88
 -14   3 -10   10.31    7.08
  14  -3  10   -5.74    7.92
  14  -3  10    0.74   13.03
 -14   4 -10    7.58    6.74
 -14   4 -10    2.09    7.23
  14  -4  10    4.16    7.68
  14  -4  10  -14.82   13.33
 -14   5 -10    1.41    7.35
 -14   5 -10   -1.08    6.59
  14  -5  10   17.97   12.54
  14  -5  10    2.79    7.92
 -14   6 -10    3.36    6.65
 -14   6 -10    0.72    6.98
  14  -6  10   -5.35    7.89
  14  -6  10   -2.53   13.22
 -14   7 -10   -6.59    7.58
 -14   7 -10   -2.37    5.89
  14  -7  10    0.67    7.62
  14  -7  10    6.21   11.84
 -14   8 -10    2.21    7.48
 -14   8 -10   -2.47    6.68
  14  -8  10    9.33    7.79
  14  -9  10   11.07    8.52
 -15  -3 -10   -3.93    5.60
  15   3  10   -2.47    9.58
 -15  -2 -10   -6.24    5.12
  15   2  10    1.86    8.41
  15   2  10    2.47   10.12
 -15  -1 -10    7.78    6.58
  15   1  10   15.36    9.28
  15   1  10    3.31   10.76
  15   0 -10   -2.29   11.69
 -15   0 -10   -5.48    6.46
  15   0  10    0.69   11.25
  15   0  10    0.85    8.40
 -15   0  10   -4.57    5.03
 -15   1 -10    1.10    7.60
 -15   1 -10  -17.29    6.56
  15  -1 -10   -5.36    8.73
  15  -1 -10    4.87   10.20
  15  -1  10  -26.10   10.14
 -15   1  10   -0.98    5.54
  15  -1  10   -4.45   11.98
 -15   1  10   15.74    7.93
 -15   2 -10    6.84    6.73
 -15   2 -10   -1.11    7.55
  15  -2 -10   -0.82    9.22
  15  -2  10   -5.48   12.62
  15  -2  10    2.39    8.76
  15  -3 -10    0.91   10.58
 -15   3 -10   -1.15    8.57
 -15   3 -10   -3.06    7.61
  15  -3  10   -2.37    9.22
  15  -3  10  -38.17   14.94
 -15   4 -10    1.17    7.73
 -15   4 -10   10.09    7.28
  15  -4  10   17.17   13.98
  15  -4  10  -12.90    8.62
 -15   5 -10   -3.10    7.32
 -15   5 -10    2.42    7.15
  15  -5  10   -0.76    8.59
  15  -5  10   -2.69   13.59
 -15   6 -10    4.72    8.51
 -15   6 -10    7.49    8.13
  15  -6  10   -9.24   14.96
  15  -6  10   22.74    9.71
 -15   7 -10  -10.48    6.88
 -15   7 -10    5.54    8.19
  15  -7  10   12.57   13.77
  15  -7  10    5.80    8.57
 -15   8 -10   -2.40    7.97
 -15   8 -10   -1.36    6.71
  15  -8  10   -0.72    8.46
  15  -8  10   -4.05   14.67
 -15   9 -10   -5.58    8.62
  15  -9  10   -6.47    8.24
 -16  -3 -10    4.32    7.16
  16   3  10   12.34   12.12
 -16  -2 -10    1.72    6.17
  16   2  10   13.04   11.48
  16   2  10   -1.02   10.34
 -16  -1 -10   -0.86    8.27
  16   1  10   -8.09   12.50
  16   1  10   -7.94    9.87
 -16   0 -10    5.22    7.19
  16   0 -10    3.21   10.06
  16   0 -10  -19.06   12.67
 -16   0  10    6.96    5.99
 -16   0  10    0.76    8.05
  16   0  10    5.34   12.64
  16   0  10  -10.31    9.00
  16  -1 -10  -20.13   13.56
 -16   1 -10   -8.76    8.25
 -16   1 -10  -10.93    8.77
  16  -1 -10   -6.74   10.75
  16  -1  10  -47.66   14.35
 -16   1  10   -3.46    9.55
  16  -1  10  -22.32   11.42
 -16   1  10    5.30    6.54
 -16   2 -10   11.09    8.63
  16  -2 -10    2.76   11.09
 -16   2 -10   -2.64    8.77
  16  -2  10  -43.28   16.24
 -16   2  10    2.91    9.99
  16  -2  10   -5.30    9.75
 -16   3 -10    6.81    8.88
 -16   3 -10   -7.69    9.84
  16  -3 -10    2.94   11.69
  16  -3  10    1.74   11.02
 -16   4 -10   -2.57    8.94
 -16   4 -10   -6.54    7.91
  16  -4  10    0.94   14.79
  16  -4  10   -0.83    9.50
 -16   5 -10   -7.65    8.35
 -16   5 -10    4.05    8.29
  16  -5  10    2.50    9.57
  16  -5  10   20.68   15.18
 -16   6 -10    7.73    8.66
 -16   6 -10    2.79    9.02
  16  -6  10  -19.88    9.84
  16  -6  10  -12.15   15.20
 -16   7 -10    2.59    8.79
 -16   7 -10  -21.80    7.23
  16  -7  10   13.40    8.98
  16  -7  10   21.13   14.66
 -16   8 -10   -5.98    8.06
 -16   8 -10   -2.60    9.14
  16  -8  10   20.33    9.07
  16  -8  10   -6.60   16.09
 -16   9 -10   -2.60   27.91
  16  -9  10  122.45   28.91
 -17  -3 -10    9.52    7.85
 -17  -2 -10   15.22    7.20
  17   2  10  -10.03   11.22
  17   2  10    7.23   13.39
 -17  -1 -10   10.52    7.45
  17   1  10    2.46   13.71
  17   1  10    3.28   11.06
 -17   0 -10    0.97    8.80
 -17   0 -10    2.66    9.39
  17   0  10   -1.03    9.92
 -17   0  10    1.69    8.82
 -17   0  10   -1.08    5.90
  17   0  10    8.74   14.29
  17  -1 -10  -14.20   11.93
 -17   1 -10   -6.83    8.44
 -17   1 -10    6.73    9.97
  17  -1 -10    1.86   10.34
  17  -1  10   15.39   10.48
 -17   1  10   18.85   10.21
  17  -1  10    0.91   15.15
 -17   1  10   -1.15    6.11
  17  -2 -10   12.12   11.69
 -17   2 -10   -7.00   10.15
 -17   2 -10   -3.92    8.32
  17  -2  10   -6.82    9.85
  17  -2  10    0.95   15.02
 -17   2  10   19.07   11.24
 -17   3 -10    2.84    8.70
 -17   3 -10    1.43    9.50
  17  -3 -10   -5.32   13.05
 -17   3  10  -32.81   13.18
  17  -3  10  -31.73   11.50
  17  -3  10  -13.02   16.96
 -17   4 -10   -2.84    8.44
 -17   4 -10   -5.83    8.90
  17  -4  10  -10.36   15.69
  17  -4  10    0.95    9.99
 -17   5 -10   -2.85    8.93
 -17   5 -10  -12.09    9.73
  17  -5  10   -4.32   16.84
  17  -5  10   -0.91    9.51
 -17   6 -10   -4.67    8.47
 -17   6 -10    8.43    9.41
  17  -6  10    1.81   10.00
  17  -6  10    2.22   16.81
 -17   7 -10   14.54   32.69
 -17   7 -10   -2.82   32.16
  17  -7  10  159.49   41.01
  17  -7  10  152.64   33.55
 -17   8 -10   -7.48   10.23
 -17   8 -10    1.65    9.01
  17  -8  10    8.48    9.26
  17  -8  10   -1.20   16.93
 -17   9 -10    2.82    9.98
  17  -9  10  -17.72   11.02
 -18  -3 -10   -6.30    9.65
 -18  -2 -10    1.05    8.07
  18   2  10  -10.75   16.28
  18   2  10   12.25   12.00
 -18  -1 -10   -4.25    7.85
  18   1  10    2.74   15.82
  18   1  10    9.61   11.76
 -18   0 -10    7.34   10.85
 -18   0 -10    1.07    8.74
  18   0  10   17.07   11.71
  18   0  10    0.97   16.26
 -18   1 -10    6.51    9.46
 -18   1 -10   -2.98   10.66
  18  -1  10  -10.09   17.80
 -18   1  10   -9.95    7.40
  18  -1  10  -40.74   11.67
 -18   1  10   -2.08   10.61
  18  -2 -10   -5.54   13.08
 -18   2 -10    4.66   10.89
 -18   2 -10    3.27    9.71
  18  -2  10   30.77   17.53
  18  -2  10   15.75   12.13
 -18   2  10   -6.96   13.13
 -18   3 -10   -1.05   10.39
 -18   3 -10   -3.18   12.63
  18  -3 -10   -2.38   14.41
  18  -3  10  -57.03   21.58
 -18   3  10  -14.03   14.85
  18  -3  10  -45.65   13.82
 -18   4 -10   -5.25   11.65
 -18   4 -10    3.29   12.96
  18  -4  10    4.18   13.86
 -18   5 -10    6.76   12.32
 -18   5 -10   -3.13   11.49
  18  -5  10   33.56   12.60
  18  -5  10   16.58   19.31
 -18   6 -10    6.15   10.54
 -18   6 -10    1.74   10.71
  18  -6  10   -1.97   11.57
  18  -6  10   17.01   17.84
 -18   7 -10   -2.05   10.02
 -18   7 -10    3.60    9.20
  18  -7  10   -5.06   17.40
  18  -7  10  -10.73   12.18
 -18   8 -10   10.19   10.10
 -18   8 -10   -1.84   10.13
  18  -8  10    2.88   10.75
 -18   9 -10   11.14   10.09
  18  -9  10   -3.66    9.98
 -19  -3 -10   -3.49    8.70
 -19  -2 -10   -5.84    8.43
  19   2  10    6.74   12.76
 -19  -1 -10   -3.23   11.31
 -19  -1 -10   -3.54    9.69
  19   1  10   -1.32   13.77
  19   1  10   -7.34   18.85
 -19   0 -10    6.50   12.00
 -19   0 -10    2.39   10.59
  19   0  10    1.08   18.57
  19   0  10    8.80   12.80
 -19   1 -10   -6.03   11.00
 -19   1 -10  -11.83   11.71
  19  -1  10   14.99   12.66
  19  -1  10  -20.08   18.88
 -19   2 -10    2.43   11.12
 -19   2 -10   -1.73   11.11
  19  -2 -10    4.88   13.58
 -19   2  10   -2.52   11.95
  19  -2  10   -3.72   12.54
  19  -2  10   32.69   19.45
 -19   3 -10   15.94   11.94
 -19   3 -10   -6.06   10.68
  19  -3  10  -14.05   11.67
  19  -3  10  -15.65   18.95
 -19   4 -10   -3.67   12.34
 -19   4 -10   -3.49   11.15
  19  -4  10  -13.80   12.19
  19  -4  10  -28.94   20.98
 -19   5 -10    3.45   10.65
 -19   5 -10    1.89   12.20
  19  -5  10   -1.30   21.46
  19  -5  10   14.75   12.84
 -19   6 -10    1.97   10.39
 -19   6 -10   -6.87   10.73
  19  -6  10    1.07   11.66
  19  -6  10    1.33   17.84
   0   0 -11   -0.57    2.62
   1   0 -11   44.74   14.96
   1   0 -11   27.87   13.34
   0   1 -11   10.46   13.12
  -1   0  11   39.55   14.59
   1   1 -11   -0.49    2.55
   1   1 -11    1.17    3.16
   1  -1  11   -0.25    1.28
  -1  -1  11   -1.36    3.09
   2   1 -11    9.87    5.68
   2   1 -11    8.04    4.83
  -2  -1  11    4.44    5.67
   1  -2  11   10.70    5.14
   2   0 -11    0.76    4.02
   2   0 -11    0.66    2.74
   0   2 -11   -0.19    1.93
   0  -2  11    0.05    1.04
  -2   0  11   -0.25    3.50
   1   2 -11    9.35    4.59
   1   2 -11   11.91    5.64
  -2   1 -11   16.58    4.96
  -2   1 -11    8.22    6.41
  -1  -2  11    7.89    5.52
   2  -1  11    6.32    5.89
   2  -1  11    8.47    5.59
  -2   2 -11   -0.69    2.93
   2   2 -11   -0.63    2.02
  -2   2 -11    0.59    1.05
   2   2 -11   -0.27    3.26
   2  -2  11    0.30    2.76
   2  -2  11   -0.19    2.40
  -2  -2  11   -0.54    3.16
   2  -2  11    0.31    1.96
   3   2 -11    3.60    1.70
   3   2 -11    2.54    3.57
  -2   3 -11    2.89    1.79
  -2   3 -11    1.98    1.82
   2  -3  11    4.49    3.25
   2  -3  11    5.27    2.51
  -3  -2  11    0.96    3.69
  -1   3 -11    1.29    1.70
  -1   3 -11   -0.11    0.86
  -1   3 -11   -0.29    0.83
   3   1 -11   -0.31    3.18
  -3  -1  11   -1.06    3.54
   1  -3  11    0.37    1.65
   1  -3  11   -0.19    2.14
   3   0 -11    0.76    4.17
   0   3 -11    5.03    3.49
   0   3 -11    2.26    2.27
  -3   0  11    1.76    4.21
   0  -3  11    4.98    3.30
   3   0  11    2.84    2.42
   1   3 -11    1.49    1.91
  -3   1 -11   -1.23    1.82
   1   3 -11   -1.70    2.85
  -1  -3  11    0.81    2.93
   3  -1  11   -0.13    2.14
   2   3 -11    4.98    2.46
   2   3 -11    5.95    3.68
  -3   2 -11    0.24    3.65
  -3   2 -11   -0.17    2.05
  -3   2 -11    5.01    2.15
   3  -2  11    2.29    2.82
  -2  -3  11    1.74    3.59
   3  -2  11    2.73    3.37
   3  -2  11    4.35    3.05
  -3   3 -11   -0.20    1.62
  -3   3 -11    2.15    3.16
   3   3 -11    1.70    2.22
   3   3 -11   -2.20    3.45
  -3   3 -11    3.85    1.77
  -3   3 -11    1.02    1.58
   3  -3  11    0.61    2.86
  -3  -3  11    3.37    3.69
   3  -3  11    0.63    3.31
   3  -3  11   -0.65    2.35
  -3   4 -11    0.25    1.59
   4   3 -11   -4.10    4.04
   4   3 -11    0.45    2.40
   4   3 -11    0.85    1.25
  -3   4 -11   -0.71    1.51
   3  -4  11   -0.86    2.22
  -4  -3  11   -2.82    3.88
  -4  -3  11    0.08    0.91
   3  -4  11    2.15    4.32
  -2   4 -11   14.33    8.57
  -2   4 -11   18.05    8.65
  -2   4 -11   16.76    8.25
   4   2 -11   23.77    8.79
   4   2 -11   18.29    8.31
   4   2 -11   27.16   10.27
   2  -4  11   17.60    8.93
   2  -4  11   21.35    7.91
   2  -4  11   21.78   11.23
  -4  -2  11   15.03   10.33
  -1   4 -11   -0.52    1.06
  -1   4 -11    0.83    1.19
   4   1 -11    1.68    2.68
   4   1 -11    2.58    3.82
  -1   4 -11   -1.13    2.04
  -1   4 -11    0.84    2.85
  -4  -1  11   -2.69    4.17
   1  -4  11    0.97    1.95
   1  -4  11   -0.89    1.41
   1  -4  11    3.85    3.05
   4   0 -11    1.53    4.05
   0   4 -11   -0.20    1.98
   4   0 -11    1.81    3.43
   0   4 -11    1.56    3.06
  -4   0  11    0.26    4.16
   0  -4  11   -0.21    1.93
   0  -4  11    0.61    3.01
  -4   1 -11    1.25    1.80
   1   4 -11   -0.21    2.07
   1   4 -11    2.61    3.16
  -1  -4  11   -0.23    1.94
  -1  -4  11   -0.33    3.35
  -4   2 -11   28.07    8.80
   2   4 -11   16.68    9.84
  -4   2 -11   25.10   10.81
   2   4 -11   18.36    8.19
  -4   2 -11   12.99    8.46
   4  -2  11   17.82   10.31
   4  -2  11   16.92    9.55
  -2  -4  11   13.60    7.79
  -2  -4  11   20.41    9.86
   3   4 -11   -0.23    2.30
  -4   3 -11    0.13    1.67
   3   4 -11    0.27    3.38
  -4   3 -11    0.70    1.77
  -4   3 -11   -4.69    3.38
  -3  -4  11    0.78    2.29
   4  -3  11   -1.39    2.97
   4  -3  11    2.87    1.63
   4  -3  11   -0.79    2.75
  -3  -4  11   -0.57    3.76
   4   4 -11   11.75   10.33
  -4  -4  11   25.84   10.71
   5   4 -11    2.75    4.00
   5   4 -11    1.06    2.86
  -5  -4  11    0.75    1.02
  -5  -4  11    0.30    1.37
  -5  -4  11   -0.90    2.91
  -5  -4  11    1.08    4.10
   5   3 -11   13.45   10.80
  -3   5 -11   16.92    7.73
  -3   5 -11   16.49    7.64
   5   3 -11   14.26    8.82
   5   3 -11   20.50    8.41
   5   3 -11   17.55    6.92
   3  -5  11   18.23    7.93
  -5  -3  11   15.46    8.03
  -5  -3  11   24.36    7.30
  -5  -3  11   11.03    9.11
   3  -5  11   -0.31   13.00
   3  -5  11   22.00    7.03
   5   2 -11    3.48    4.26
   5   2 -11    3.13    1.82
  -2   5 -11    2.33    2.74
   5   2 -11    4.21    2.81
  -2   5 -11   -7.53    3.86
  -5  -2  11   -0.22    4.41
   2  -5  11    0.25    2.44
   2  -5  11   -2.29    2.87
  -1   5 -11    2.17    3.40
   5   1 -11    5.27    3.35
  -1   5 -11    0.72    3.01
   5   1 -11    1.35    4.31
   5   1 -11    5.08    2.86
   1  -5  11    3.05    2.22
  -5  -1  11    3.10    4.51
   1  -5  11    8.25    2.60
   5   0 -11    2.25    3.59
   0   5 -11    1.00    2.56
   0   5 -11   -2.07    2.97
   5   0 -11   -1.18    4.29
  -5   0 -11    0.55    1.59
   5   0  11    0.38    2.62
  -5   0  11    2.15    4.23
   0  -5  11   -0.12    1.00
   0  -5  11    1.72    2.18
  -5   1 -11    4.33    2.37
  -5   1 -11    3.04    2.34
   1   5 -11    1.30    3.05
   1   5 -11    2.20    3.60
   5  -1  11    0.95    3.55
  -1  -5  11    3.10    2.55
   5  -1  11    4.06    3.54
  -5   2 -11    3.40    1.64
  -5   2 -11   -1.87    2.49
   2   5 -11    3.00    2.58
   2   5 -11    1.30    3.65
   5  -2  11  -17.85    5.56
   5  -2  11   -4.63    4.53
  -2  -5  11   -1.64    2.78
   5  -2  11    0.80    3.76
  -5   3 -11   17.94    6.79
   3   5 -11   19.23    8.00
   3   5 -11   16.57    6.85
  -5   3 -11    0.57    9.02
  -5   3 -11   20.06    6.58
  -3  -5  11   26.44    6.46
   5  -3  11   13.88   10.12
   5  -3  11   20.06    7.38
   5  -3  11    1.65    8.36
   5  -3  11    8.20    6.10
  -5   4 -11   -1.47    3.08
   4   5 -11    1.46    3.72
  -5   4 -11    0.22    2.20
  -5   4 -11    0.66    2.09
  -5   4 -11   -0.53    2.09
   5  -4  11    0.22    3.06
   5  -4  11    0.60    2.64
   5  -4  11    0.84    4.76
   5  -4  11    2.18    1.86
   5   5 -11   -0.31    4.19
   5   5 -11   -0.63    3.16
  -5   5 -11    0.73    2.38
  -5   5 -11    0.81    2.27
  -5   5 -11    3.38    2.89
  -5  -5  11    2.97    2.82
   5  -5  11   -1.15    2.95
  -5  -5  11   -3.62    4.51
   5  -5  11   -1.45    2.71
   5  -5  11   -0.34    5.50
   6   5 -11   13.38    7.11
  -5   6 -11   18.00    7.17
   6   5 -11   17.49    8.58
  -6  -5  11   18.82    8.53
   5  -6  11   13.42    8.15
  -6  -5  11   14.42    6.91
   6   4 -11   60.24   22.56
   6   4 -11   50.19   19.31
  -4   6 -11   68.51   24.47
   4  -6  11   49.60   20.63
  -6  -4  11   49.69   22.72
  -6  -4  11   49.14   18.90
  -6  -4  11   15.48   23.56
  -6  -4  11   45.55   20.72
   6   3 -11    0.21    3.72
  -3   6 -11    1.58    3.33
   6   3 -11    2.19    2.26
   6   3 -11    2.81    2.79
  -3   6 -11    1.03    3.29
   6   3 -11    1.64    4.73
  -6  -3  11    4.53    1.98
   3  -6  11    3.88    3.12
   3  -6  11    0.76    2.75
  -6  -3  11    2.18    1.92
  -6  -3  11    2.55    4.91
   6   2 -11   62.33   54.88
  -2   6 -11   67.15   37.12
   6   2 -11  102.49   37.22
   6   2 -11   64.30   40.56
   6   2 -11  113.89   33.65
   2  -6  11   77.17   34.83
   2  -6  11   87.86   44.08
  -6  -2  11   85.49   34.44
  -6  -2  11   83.83   42.29
  -6  -2  11   86.81   42.46
  -1   6 -11   12.66    6.16
   6   1 -11    7.49    7.37
   6   1 -11   15.16    6.14
  -1   6 -11   16.11    6.90
   6   1 -11   24.32    6.23
   1  -6  11    9.02    6.63
  -6  -1  11    9.92    7.70
   1  -6  11   10.61    5.79
   6   1  11   16.88    6.82
   0   6 -11   -1.71    3.13
   6   0 -11   -0.82    4.45
   6   0 -11   -0.77    3.69
   0   6 -11    1.26    3.06
  -6   0 -11   -0.61    2.25
   6   0  11    0.43    3.40
  -6   0  11    0.28    4.48
   0  -6  11   -0.92    2.43
   6   0  11   -0.39    3.59
  -6   1 -11    4.03    5.29
   6  -1 -11   12.23    7.07
   1   6 -11    7.44    5.72
   1   6 -11   10.96    6.24
  -6   1 -11   10.30    5.94
   6  -1  11   15.38    6.83
  -1  -6  11   21.74    5.29
   6  -1  11    8.37    6.38
   2   6 -11   89.52   42.52
  -6   2 -11   94.81   40.10
   2   6 -11  113.84   39.27
  -6   2 -11   96.91   38.84
   6  -2  11   98.07   41.73
  -2  -6  11  108.76   37.13
   6  -2  11   92.59   46.42
  -6   3 -11    3.75    2.40
  -6   3 -11    1.71    3.87
  -6   3 -11    2.90    2.50
   3   6 -11    4.27    4.09
   3   6 -11    2.01    3.30
  -6   3 -11    1.53    1.91
   6  -3  11    0.83    4.86
  -3  -6  11    0.34    3.14
   6  -3  11    3.68    3.31
  -6   4 -11   71.98   23.38
   4   6 -11   63.23   25.20
  -6   4 -11   63.18   23.70
  -6   4 -11   59.16   26.20
   6  -4  11   70.70   24.79
   6  -4  11   57.81   27.19
   5   6 -11   12.14    8.02
  -6   5 -11   16.26    7.03
  -6   5 -11    6.67    6.42
   5   6 -11   20.89    7.07
   6  -5  11   11.15    9.19
  -5  -6  11   15.68    6.58
   6  -5  11   13.81    7.63
   6   6 -11    0.38    3.67
  -6   6 -11    0.55    3.20
   6   6 -11   -1.84    5.22
   6  -6  11   -1.77    3.81
  -6  -6  11   -0.81    3.62
   6  -6  11    0.45    6.64
   7   6 -11    1.21    4.15
   7   6 -11    2.33    5.19
  -7  -6  11    1.72    3.92
   6  -7  11    1.25    3.82
  -5   7 -11   -0.40    3.28
   7   5 -11   -0.35    3.47
   7   5 -11    4.81    5.21
   5  -7  11    0.84    3.41
  -7  -5  11   -2.26    3.42
  -7  -5  11    3.37    5.33
  -4   7 -11    5.71    4.28
   7   4 -11    4.85    5.46
   7   4 -11    3.59    3.91
   4  -7  11    4.65    4.34
  -7  -4  11    2.02    5.78
  -7  -4  11    4.47    4.01
   7   3 -11   17.72    8.35
  -3   7 -11   14.75    8.75
   7   3 -11   20.09    9.20
   7   3 -11   13.35    7.09
  -7  -3  11   19.99    9.54
  -7  -3  11   15.73    7.35
   7   2 -11    9.57    6.84
  -2   7 -11    7.79    5.91
   7   2 -11    8.82    5.06
   2  -7  11   17.73    5.70
  -7  -2  11   14.21    7.14
   7   1 -11    7.54    4.74
   7   1 -11   13.56    6.25
  -1   7 -11   11.90    4.94
  -1   7 -11    3.50    5.17
  -7  -1 -11    1.08    4.17
   1  -7  11   15.83    4.90
  -7  -1  11    3.27    6.62
   7   1  11   15.27    5.39
   7   0 -11   32.89   12.73
   7   0 -11   15.88   15.32
   7   0 -11   29.78   13.56
   0   7 -11   37.70   13.54
  -7   0 -11    5.81   12.29
   0   7 -11   38.42   12.75
  -7   0  11   23.65   15.83
   0  -7  11   34.72   12.12
   7   0  11   26.45   14.23
   7   0  11   35.93   14.52
   7  -1 -11    8.67    6.12
   1   7 -11    7.77    4.87
   1   7 -11    5.66    5.21
  -7   1 -11    3.90    4.15
   7  -1  11    6.69    5.43
   7  -1  11    6.05    5.89
  -1  -7  11   14.91    4.43
   2   7 -11    8.17    5.61
   2   7 -11   13.52    5.44
  -7   2 -11    5.34    4.58
   7  -2  11    8.48    6.78
  -2  -7  11    6.42    4.78
   7  -2  11    8.91    5.59
  -7   3 -11   22.93    7.79
   3   7 -11    5.21    8.31
   3   7 -11   16.40    7.92
  -7   3 -11   20.12    7.31
   7  -3  11   18.28   10.13
   7  -3  11   18.31    8.16
  -3  -7  11   13.20    7.45
   4   7 -11    9.46    5.87
  -7   4 -11   11.04    4.58
  -7   4 -11    6.33    4.56
   7  -4  11   11.26    5.27
   7  -4  11   11.33    7.33
  -7   5 -11   -1.97    3.52
  -7   5 -11   -0.66    3.36
   5   7 -11    0.44    4.11
   5   7 -11   -5.29    5.30
   7  -5  11   -0.64    4.00
  -5  -7  11    4.49    3.99
   7  -5  11   -5.26    6.12
   6   7 -11    0.92    4.33
   6   7 -11    2.91    5.80
  -7   6 -11   -1.17    3.28
  -6  -7  11   -1.42    3.84
   7  -6  11   -1.33    4.31
   7  -6  11   -1.41    7.27
  -7   7 -11   -1.40    3.26
   7   7 -11   -0.96    4.92
   7   7 -11   -0.89    6.17
   7  -7  11   -0.35    4.66
  -7  -7  11    3.49    4.46
   8   7 -11    2.52    4.92
   8   7 -11    2.83    6.77
  -8  -7  11   -0.53    4.96
   7  -8  11    5.07    4.40
   8   6 -11    0.42    5.93
   8   6 -11    3.83    4.54
  -8  -6  11    2.75    4.44
   6  -8  11    3.60    3.89
  -8  -6  11   -1.79    5.85
   8   5 -11   30.53   13.54
   8   5 -11   23.61   11.59
  -5   8 -11   23.19   14.00
  -8  -5  11   27.79   11.26
  -8  -5  11   35.05   13.80
   5  -8  11   15.79   13.98
   8   4 -11    1.54    5.81
  -4   8 -11    4.86    4.02
   8   4 -11    1.91    3.88
   4  -8  11    0.77    3.86
  -8  -4  11    4.05    3.87
  -8  -4  11    2.71    5.86
   8   3 -11   24.63    9.12
   8   3 -11   18.26   11.68
  -3   8 -11   24.97   11.38
  -8  -3  11   11.52   12.33
  -8  -3  11   23.89    9.57
  -8  -3  11   18.06   10.27
   8   2 -11   20.84    7.72
   8   2 -11   20.23    9.98
  -2   8 -11   22.28    9.29
   8   2 -11   13.69   12.38
   8   2 -11   15.58    8.41
  -8  -2  11   17.37    9.09
  -8  -2  11   17.17   10.77
  -8  -2  11   12.22    7.70
   8   1 -11   15.22    6.43
   8   1 -11   17.53    6.26
   8   1 -11   14.22    9.53
  -8  -1 -11    1.19    5.94
  -1   8 -11   15.12    6.95
   8   1 -11   11.55    7.92
  -8  -1  11   10.90    6.62
   8   1  11   15.86    7.74
   8   1  11   15.08    7.20
  -8  -1  11    3.21    8.62
   8   0 -11    3.14    4.07
   8   0 -11   -5.25    4.29
   8   0 -11    2.26    5.30
  -8   0 -11   -0.38    2.58
   0   8 -11    0.29    3.91
  -8   0  11    1.59    5.55
   8   0  11   -3.14    4.69
   8   0  11   -4.19    4.79
   0  -8  11   -4.42    3.96
   8  -1 -11   23.90    8.27
   1   8 -11   19.04    7.69
   8  -1 -11   10.28    8.33
  -8   1 -11    8.76    6.88
   8  -1  11   11.57    7.80
  -1  -8  11   20.37    7.04
   8  -1  11   17.64    8.71
   2   8 -11   22.56    9.44
   2   8 -11   18.06    9.80
  -8   2 -11   21.30    8.84
  -2  -8  11   18.10    9.06
   8  -2  11   19.05    9.79
   8  -2  11   27.85   11.59
   3   8 -11   18.77   11.60
   3   8 -11   31.32   12.29
  -8   3 -11   28.03   11.65
  -8   3 -11   30.00   11.13
   8  -3  11   30.08   14.35
  -3  -8  11   20.93   11.20
   8  -3  11   28.40   12.07
   4   8 -11    7.92    5.50
  -8   4 -11   12.67    4.30
   4   8 -11    1.95    5.77
  -8   4 -11    3.13    4.28
   8  -4  11    5.40    5.12
  -4  -8  11    8.22    4.90
   8  -4  11   17.60    7.36
  -8   5 -11   30.77   13.94
  -8   5 -11   26.38   13.29
   5   8 -11   41.61   14.66
   8  -5  11   29.28   14.60
   8  -5  11   36.67   16.58
  -8   6 -11    3.12    3.36
   6   8 -11    0.53    4.85
   6   8 -11    0.45    6.37
  -6  -8  11    1.67    4.63
   8  -6  11   -4.51    7.35
   8  -6  11   -2.60    4.72
  -8   7 -11    2.91    3.63
   7   8 -11   -0.55    5.21
   7   8 -11    1.48    6.62
   8  -7  11   -3.89    5.06
  -7  -8  11    1.75    5.17
   8  -7  11   -5.83    8.16
   8   8 -11    5.42    7.58
   8   8 -11    2.31    5.89
  -8  -8  11    0.61    5.16
   8  -8  11    1.59    4.83
   9   8 -11    7.25    6.10
   9   8 -11   -3.46    8.37
   8  -9  11    2.03    5.30
  -9  -8  11   11.01    5.43
   9   7 -11    0.50    7.24
   9   7 -11   -1.06    5.34
   7  -9  11    1.48    4.51
  -9  -7  11    9.53    5.15
   9   6 -11    1.86    4.89
   9   6 -11   -2.77    6.61
  -9  -6  11   -2.22    6.89
  -9  -6  11    2.44    4.77
   9   5 -11   11.51    7.69
   9   5 -11    4.58    9.47
  -9  -5  11   10.77    7.39
  -9  -5  11   36.59   10.06
   9   4 -11   18.30    8.96
   9   4 -11   15.88   11.61
  -9  -4  11   25.86   12.45
  -9  -4  11   11.05    8.83
   9   3 -11   -2.68    5.72
   9   3 -11   -0.31    3.47
  -9  -3  11    0.74    2.66
  -9  -3  11   -1.51    3.86
  -9  -3  11   -0.29    6.31
  -9  -3  11   -0.24    2.51
   9   2 -11   15.80    8.41
   9   2 -11    7.00    6.55
   9   2 -11   12.46    6.00
   9   2 -11   13.19    9.77
  -9  -2  11   14.51    9.14
   9   2  11   13.09    7.52
  -9  -2  11   15.15    6.78
  -9  -2  11   12.46    6.00
  -9  -1 -11    0.44    3.06
   9   1 -11   -0.92    3.61
   9   1 -11    2.53    5.71
   9   1 -11    1.31    3.75
   9   1 -11   -2.11    5.81
  -9  -1  11    0.50    3.16
   9   1  11    4.96    5.17
  -9  -1  11   -0.94    5.99
   9   1  11    0.94    4.47
   9   0 -11    1.42    5.64
   9   0 -11    9.50    4.76
   9   0 -11    3.96    4.72
  -9   0 -11    3.38    3.37
  -9   0  11    1.70    6.01
   9   0  11    3.88    5.09
   9   0  11   -1.95    5.34
   9  -1 -11   10.77    5.99
   9  -1 -11   -0.47    5.42
  -9   1 -11    3.69    3.72
   9  -1  11    3.22    4.83
   9  -1  11    7.49    5.91
  -9   2 -11   15.76    7.32
   9  -2  11   13.85   10.04
   9  -2  11   19.82    8.20
  -9   3 -11    2.31    3.36
  -9   3 -11    0.56    3.52
   9  -3  11   -3.59    4.62
   9  -3  11   -3.46    7.00
   4   9 -11    3.07   12.57
  -9   4 -11   24.18   11.68
  -9   4 -11   27.80   11.62
   9  -4  11   42.88   15.21
   9  -4  11   50.83   12.74
  -4  -9  11   19.43   11.65
   5   9 -11   21.54    9.32
  -9   5 -11    8.91    7.76
  -9   5 -11   10.34    7.24
   9  -5  11   20.34    8.77
   9  -5  11    7.93   10.79
  -9   6 -11   -0.68    3.97
  -9   6 -11    3.59    4.49
   6   9 -11    1.54    7.15
  -6  -9  11    5.18    5.25
   9  -6  11    1.08    8.01
   9  -6  11    0.42    5.26
   7   9 -11    3.89    7.82
  -9   7 -11    3.86    4.33
   9  -7  11    2.14    5.93
   9  -7  11    9.16    8.96
  -7  -9  11   11.46    5.96
   8   9 -11    3.60    8.82
   9  -8  11    8.78    6.17
   9  -9  11   -4.42    5.09
  10   9 -11   25.53   17.21
 -10  -9  11   17.90   14.39
  10   7 -11    6.11    5.74
  10   7 -11    0.53    7.72
 -10  -7  11   -0.37    7.95
 -10  -7  11    1.78    5.61
  10   6 -11    0.48    7.08
  10   6 -11   -0.49    5.05
 -10  -6  11    1.04    5.16
 -10  -6  11    9.87    7.71
  10   5 -11    0.84    6.04
  10   5 -11   11.44    7.79
 -10  -5  11   12.01    5.79
 -10  -5  11   14.55    8.53
  10   4 -11    1.44    4.02
  10   4 -11   -8.95    6.36
 -10  -4  11   -4.04    6.78
 -10  -4  11    5.04    4.31
  10   3 -11   12.10    7.52
  10   3 -11   12.28    5.21
 -10  -3  11    2.40    5.47
 -10  -3  11    7.42    8.01
 -10  -2 -11   -1.50    3.42
  10   2 -11    5.63    3.90
  10   2 -11    1.28    3.84
  10   2 -11    1.25    5.71
 -10  -2  11    4.80    3.22
 -10  -2  11    2.07    3.32
 -10  -2  11    6.66    6.56
  10   2  11   -2.74    5.17
  10   1 -11   -0.93    6.35
  10   1 -11    7.84    4.42
 -10  -1 -11   -1.93    3.19
  10   1 -11    4.90    6.06
  10   1 -11    2.71    3.98
 -10  -1  11    6.37    6.60
  10   1  11   -0.70    5.32
 -10  -1  11    0.55    3.31
 -10  -1  11    2.09    3.98
  10   1  11   -1.79    5.58
  10   0 -11    5.47    5.01
 -10   0 -11   -0.47    4.06
  10   0 -11    5.17    4.82
  10   0 -11    3.50    6.35
  10   0  11   -4.83    5.07
 -10   0  11   -1.21    3.07
 -10   0  11    2.17    6.39
  10   0  11   -0.38    6.10
 -10   1 -11    1.84    3.81
  10  -1 -11    7.09    5.65
  10  -1 -11    3.97    5.62
  10  -1  11    0.40    6.85
  10  -1  11    2.05    5.90
 -10   2 -11    3.92    4.12
  10  -2  11  -25.94   10.62
  10  -2  11  -11.86    6.78
 -10   3 -11   12.28    5.78
 -10   3 -11   12.85    5.83
  10  -3  11    1.80    6.91
  10  -3  11    5.85   10.34
 -10   4 -11    0.45    4.39
 -10   4 -11    7.25    4.19
  10  -4  11   -7.87    5.48
  10  -4  11    0.52    8.54
 -10   5 -11   10.38    6.31
 -10   5 -11    4.10    5.70
  10  -5  11   10.43    9.85
  10  -5  11   10.93    6.98
 -10   6 -11    3.99    5.20
 -10   6 -11    1.49    4.12
  10  -6  11   -0.47    5.44
  10  -6  11   -8.27    8.48
 -10   7 -11    1.66    4.37
  10  -7  11    5.63    5.83
  10  -7  11    9.09    9.46
 -10   8 -11   -0.92    4.63
  10  -8  11   -6.22    6.03
  10  -9  11   52.28   21.24
  11   9 -11   11.22   11.52
 -11  -9  11    5.75    7.79
  11   8 -11    3.96    6.80
 -11  -8  11    0.72    6.95
  11   7 -11    0.58    8.45
 -11  -7  11  -11.88    9.43
  11   6 -11   -9.20    7.55
  11   6 -11    5.16    5.54
 -11  -6  11   -2.18    7.86
 -11  -6  11    4.44    5.45
  11   5 -11    3.55    4.71
  11   5 -11   11.64    7.80
 -11  -5  11   -2.07    7.90
 -11  -5  11    1.48    5.19
  11   4 -11    8.00    5.96
  11   4 -11    7.54    7.94
 -11  -4  11    6.27    5.82
 -11  -4  11   12.95    8.82
  11   3 -11   -0.87    6.62
  11   3 -11   -1.06    4.22
 -11  -3  11    1.70    4.67
 -11  -3  11   -1.97    7.14
  11   2 -11    1.76    6.39
  11   2 -11    0.67    4.02
 -11  -2 -11    3.28    3.80
 -11  -2  11   -0.53    3.28
 -11  -2  11    2.03    3.45
  11   2  11   -0.69    6.51
 -11  -2  11    4.76    7.06
  11   2  11   -5.04    5.73
  11   1 -11    0.35    4.28
  11   1 -11    0.40    4.57
  11   1 -11  -11.65    7.04
  11   1 -11    2.36    6.61
 -11  -1 -11    1.60    3.96
 -11  -1  11    0.36    7.27
 -11  -1  11   -1.81    3.39
 -11  -1  11    0.39    4.38
  11   1  11   -0.65    5.99
  11   1  11   -2.75    6.53
  11   0 -11    1.69   10.28
  11   0 -11    9.71    7.94
 -11   0 -11    8.89    6.71
  11   0 -11    6.26    6.83
  11   0 -11   15.83    9.64
  11   0  11   28.89    8.47
 -11   0  11   14.24   10.12
 -11   0  11   12.02    6.96
  11   0  11   23.55    9.17
  11  -1 -11    1.45    6.06
  11  -1 -11   19.55    6.90
 -11   1 -11    3.10    4.77
  11  -1  11    3.99    6.39
  11  -1  11    1.89    7.85
  11  -2 -11   -2.54    6.81
 -11   2 -11    0.98    4.44
  11  -2 -11  -20.44    6.99
  11  -2  11    8.52    6.30
  11  -2  11   14.57    9.08
 -11   3 -11   -2.18    5.18
 -11   3 -11    2.48    4.72
  11  -3  11   -6.90    5.87
  11  -3  11   -6.57    9.35
 -11   4 -11   11.20    6.68
 -11   4 -11    7.05    6.74
  11  -4  11   16.31   11.30
  11  -4  11   12.96    7.58
 -11   5 -11   -0.53    5.37
 -11   5 -11   -0.77    4.70
  11  -5  11   11.15    6.03
  11  -5  11   -2.43    9.56
 -11   6 -11   -1.10    5.47
 -11   6 -11   -0.82    4.78
  11  -6  11   -1.94   10.32
  11  -6  11    1.03    5.88
 -11   7 -11   -0.90    5.30
 -11   7 -11    4.54    6.00
  11  -7  11   30.66    9.79
  11  -7  11   -3.15    6.48
  12   9 -11  -24.93   12.43
  12   8 -11   -2.07    6.75
  12   8 -11    2.12   10.54
 -12  -8  11    6.59   10.40
 -12  -8  11   -2.29    7.75
  12   6 -11   -7.49    8.16
 -12  -6  11   13.32    9.44
  12   5 -11    2.52    8.12
  12   5 -11   -1.87    5.08
 -12  -5  11   -2.11    5.50
 -12  -5  11    1.84    8.38
  12   4 -11   -4.59    6.42
  12   4 -11   -1.70    4.82
 -12  -4  11    4.24    8.08
 -12  -4  11   -3.34    4.92
  12   3 -11    2.98    4.45
  12   3 -11    0.91    6.27
 -12  -3  11   -5.59    7.56
 -12  -3  11    1.35    4.78
  12   2 -11   -1.38    6.57
  12   2 -11   -6.67    4.39
 -12  -2  11   -1.82    7.59
 -12  -2  11    0.44    4.98
  12   1 -11    3.63    5.52
  12   1 -11   -6.44    7.31
  12   1 -11   -2.76    8.76
  12   1 -11    6.06    4.48
 -12  -1 -11   -1.18    4.70
 -12  -1  11    7.97    4.74
  12   1  11   19.77    7.37
 -12  -1  11    4.60    3.95
 -12  -1  11   -3.06    7.99
  12   0 -11    0.61    7.76
 -12   0 -11   -4.07    5.00
  12   0 -11    9.68    5.89
  12   0 -11    1.66    7.18
  12   0 -11    5.87    4.74
  12   0  11    5.84    6.17
 -12   0  11   -1.23    7.92
 -12   0  11   -1.45    3.87
 -12   0  11   -2.61    5.66
  12  -1 -11    7.54    5.87
  12  -1 -11   -4.76    6.78
 -12   1 -11    2.31    4.95
  12  -1  11    1.06    7.92
  12  -1  11    4.43    6.54
 -12   2 -11   15.61    5.62
  12  -2 -11   -7.50    7.18
 -12   2 -11   -1.11    5.16
  12  -2 -11    1.78    6.78
  12  -2  11   -4.76    6.50
 -12   3 -11   -0.56    5.92
  12  -3  11   11.26    6.76
 -12   4 -11   -3.38    5.43
  12  -4  11    1.73    6.70
 -12   7 -11    5.89    5.87
  12  -7  11   -0.75   11.21
 -12   8 -11    1.05    5.23
 -12   8 -11   -1.25    6.31
  12  -8  11  -10.13    6.80
  12  -9  11    9.62    7.37
  13   9 -11    2.45   13.95
 -13  -9  11   14.10   13.89
  13   8 -11   -2.86    6.88
  13   8 -11   -2.19   11.43
 -13  -8  11    0.80    6.41
 -13  -8  11    2.98   11.32
  13   7 -11   13.22   10.57
  13   7 -11    1.28    7.85
 -13  -7  11    1.42    8.15
 -13  -7  11   36.26   10.82
  13   5 -11    5.60    5.14
  13   5 -11    2.07    8.15
 -13  -5  11    5.43    9.16
  13   4 -11   -0.49    8.07
  13   4 -11   -2.67    6.09
 -13  -4  11   -7.15    8.96
 -13  -4  11  -10.16    5.82
  13   3 -11   -9.45    8.13
  13   3 -11    0.78    4.75
 -13  -3  11   -1.42    5.73
 -13  -3  11   -1.50    8.73
 -13  -2 -11    3.29    4.59
  13   2  11  -15.83    7.76
  13   2  11   -0.81    7.74
 -13  -2  11   -7.34    8.66
 -13  -2  11    1.86    5.65
 -13  -1 -11   18.85    6.03
 -13  -1  11    4.43    6.29
 -13  -1  11    0.72    5.22
  13   1  11   20.82    8.12
  13   1  11    8.19    9.04
 -13   0 -11   10.98    5.46
  13   0 -11   -1.15    7.13
  13   0 -11    3.28    9.56
 -13   0  11    2.35    5.04
 -13   0  11   -3.46    6.62
  13   0  11  -14.51   10.02
  13  -1 -11    2.58    7.62
  13  -1  11  -11.75    9.87
  13  -2 -11  -22.64    9.18
 -13   2 -11    3.66    6.69
  13  -2  11   -7.71   10.78
 -13   3 -11    2.76    7.19
 -13   3 -11   21.26    8.52
  13  -3  11    8.56    8.23
 -13   4 -11   14.05    7.43
 -13   4 -11    1.89    6.79
  13  -4  11    4.46    7.52
  13  -4  11  -38.67   15.55
 -13   5 -11    0.98    6.05
 -13   5 -11    0.65    6.49
  13  -5  11  -16.30   12.83
  13  -5  11   15.49    7.78
 -13   6 -11    1.32    8.00
 -13   6 -11    4.06    7.57
  13  -6  11   18.67    8.87
  13  -6  11   20.94   13.10
 -13   7 -11    3.24    5.83
 -13   7 -11   -4.75    6.83
  13  -7  11   -9.81   11.20
  13  -7  11   -2.50    7.63
 -13   8 -11   -6.83    6.91
 -13   8 -11   -1.14    5.99
  13  -8  11   -4.34   12.17
  13  -8  11    5.00    7.36
  13  -9  11   13.44    8.99
  14   9 -11    1.77   13.99
 -14  -9  11   -3.54   13.92
  14   8 -11   11.26   11.16
 -14  -8  11    4.22    7.62
 -14  -8  11   -8.91   12.19
 -14  -7  11  -13.84   11.86
 -14  -7  11    3.00    7.60
 -14  -3 -11    7.35    5.13
  14   3  11   -3.20    8.04
 -14  -2 -11   10.86    5.81
  14   2  11   10.05    8.86
  14   2  11    1.76    8.52
 -14  -1 -11    3.59    5.47
  14   1  11   -5.07    8.22
  14   1  11  -17.62    9.46
 -14   0 -11  -13.64    6.05
  14   0 -11   -7.76   10.94
  14   0 -11    0.64    7.51
  14   0  11   -0.79    7.62
 -14   0  11   -1.91    6.89
  14   0  11   -2.48    9.83
 -14   0  11    5.91    4.55
 -14   1 -11    2.88    6.14
  14  -1 -11  -11.26    7.91
  14  -1  11   20.20    8.37
  14  -1  11   -1.96   10.94
 -14   1  11    3.69    7.66
 -14   2 -11   -5.77    7.45
 -14   2 -11   -3.06    6.94
  14  -2  11  -18.48   11.82
  14  -2  11  -25.79    8.94
 -14   3 -11   -0.70    6.90
 -14   3 -11    4.20    7.67
  14  -3  11    9.77   13.92
  14  -3  11   -2.92    7.84
 -14   4 -11   -1.06    6.23
 -14   4 -11   -1.42    7.01
  14  -4  11   -5.52   12.98
  14  -4  11   11.90    7.92
 -14   5 -11    0.71    6.84
 -14   5 -11    1.09    6.54
  14  -5  11    3.26   12.66
  14  -5  11    1.42    7.92
 -14   6 -11   -7.91    8.17
 -14   6 -11    5.08    7.84
  14  -6  11   12.03    8.50
  14  -6  11   22.12   13.13
 -14   7 -11   -2.38    6.70
 -14   7 -11   -0.73    7.56
  14  -7  11  -12.89    8.48
  14  -7  11  -24.04   12.44
 -14   8 -11   -0.74    7.63
 -14   8 -11   -3.73    7.10
  14  -8  11    7.45    7.69
  14  -8  11  -21.54   13.65
 -14   9 -11    0.74    7.60
  14  -9  11    2.70    8.17
 -15  -3 -11   -0.81    6.51
  15   3  11   28.51   10.79
 -15  -2 -11   -5.58    5.62
  15   2  11    3.72    9.68
  15   2  11   22.04    9.28
 -15  -1 -11   -0.79    5.95
  15   1  11   -9.28   10.55
  15   1  11   -8.33    9.37
 -15   0 -11    5.58    6.61
  15   0  11    8.69    8.50
  15   0  11   -3.44   11.23
 -15   0  11    0.91    5.15
 -15   1 -11   -5.60    7.81
 -15   1 -11    0.80    6.57
  15  -1 -11   -2.37    9.67
 -15   1  11   13.70    7.97
 -15   1  11   -5.89    5.53
  15  -1  11    0.86    8.55
  15  -1  11   10.82   12.05
 -15   2 -11  -16.98    8.19
 -15   2 -11    7.25    7.06
  15  -2 -11   -2.58    9.31
  15  -2  11   -1.57   13.44
  15  -2  11   -3.27    8.80
 -15   3 -11  -10.54    8.37
 -15   3 -11   -3.12    7.16
  15  -3  11   12.42   14.15
  15  -3  11   -5.65    9.42
 -15   4 -11   -2.38    7.77
 -15   4 -11    0.79    7.43
  15  -4  11   -0.81    9.02
  15  -4  11    4.34   13.82
 -15   5 -11    7.83    8.03
 -15   5 -11    3.68    7.78
  15  -5  11   -2.69   13.92
  15  -5  11    0.78    9.04
 -15   6 -11   -2.38    8.53
 -15   6 -11   -7.56    7.86
  15  -6  11  -23.22    9.27
  15  -6  11   25.18   14.48
 -15   7 -11   15.18    8.27
 -15   7 -11   -3.96    7.21
  15  -7  11    6.64    8.72
  15  -7  11   -5.84   13.76
 -15   8 -11    5.64    8.18
 -15   8 -11    4.09    6.91
  15  -8  11  -19.80    9.04
  15  -8  11   13.20   13.89
 -15   9 -11   -4.01    8.74
  15  -9  11  -14.60    9.67
 -16  -3 -11    0.88    6.31
  16   3  11   -8.26   11.68
 -16  -2 -11    1.76    7.36
  16   2  11  -17.88   12.68
  16   2  11    1.05   11.02
 -16  -1 -11    6.16    8.60
  16   1  11   32.45   13.97
  16   1  11    1.02   11.31
 -16   0 -11    8.85    8.68
  16   0  11   18.18   10.79
  16   0  11    4.59   13.93
 -16   1 -11    1.24   10.40
 -16   1 -11   28.58   10.32
 -16   1  11   -0.88   10.69
  16  -1  11   41.23   16.06
  16  -1  11   10.44   11.59
 -16   1  11    5.27    7.87
  16  -2 -11    5.59   11.54
 -16   2 -11   -3.59    9.24
 -16   2 -11  -16.32    9.59
  16  -2  11  -30.68   11.00
 -16   2  11   -3.00   11.44
  16  -2  11  -52.21   17.49
 -16   3 -11    6.93    7.81
 -16   3 -11   11.74    8.89
  16  -3  11  -23.01   16.14
  16  -3  11  -15.17   10.07
 -16   4 -11    7.98    9.35
 -16   4 -11   -0.87    9.05
  16  -4  11   -0.89   10.31
  16  -4  11   28.57   16.14
 -16   5 -11   -9.64    9.62
 -16   5 -11    4.12    8.96
  16  -5  11    7.96   15.70
  16  -5  11  -29.62   10.76
 -16   6 -11    4.22    8.68
 -16   6 -11    2.60    8.71
  16  -6  11  -14.31   16.62
  16  -6  11    5.07   10.04
 -16   7 -11   11.32    8.87
 -16   7 -11   -4.40    8.02
  16  -7  11  -15.95   14.35
  16  -7  11   -7.52   10.60
 -16   8 -11    6.07    8.86
 -16   8 -11   -1.50    8.12
  16  -8  11    2.38    9.58
  16  -8  11  -22.09   16.75
 -16   9 -11   -4.35   11.47
  16  -9  11  -38.66   12.39
 -17  -3 -11   -3.89    7.15
  17   3  11   -9.17   13.01
 -17  -2 -11    0.97    6.61
  17   2  11   33.73   13.87
  17   2  11  -28.59   11.66
 -17  -1 -11    0.97    7.28
  17   1  11    4.91   13.58
  17   1  11   11.16   10.75
 -17   0 -11    6.88    8.23
 -17   0 -11    5.40    9.78
  17   0  11    3.16   10.14
  17   0  11  -20.31   14.95
 -17   1 -11    7.95    8.78
 -17   1 -11   -2.73    9.56
  17  -1  11   -8.22   15.81
  17  -1  11    1.05   10.40
 -17   2 -11   -1.39   10.26
 -17   2 -11    2.00    8.55
  17  -2 -11   18.81   12.24
 -17   2  11   -3.26   12.01
  17  -2  11    7.28   10.91
  17  -2  11    6.71   15.61
 -17   3 -11   27.04    9.77
 -17   3 -11    7.26   10.09
  17  -3  11  -10.83    9.86
  17  -3  11  -15.15   15.21
 -17   4 -11   -1.48    9.86
 -17   4 -11    4.82    9.51
  17  -4  11   15.67   16.92
  17  -4  11   20.42   11.49
 -17   5 -11   13.48    9.05
 -17   5 -11    6.13    9.42
  17  -5  11   -6.44    9.67
  17  -5  11    6.54   16.68
 -17   6 -11   -2.84   11.03
 -17   6 -11  -18.88   11.87
  17  -6  11  -22.10   11.78
  17  -6  11  -23.51   18.85
 -17   7 -11   -5.68   10.82
 -17   7 -11    8.16   10.10
  17  -7  11  -72.16   22.08
  17  -7  11  -16.40   11.91
 -17   8 -11   -0.94   10.57
 -17   8 -11   13.34    9.46
  17  -8  11    5.39   10.32
  17  -8  11   19.28   18.24
 -17   9 -11   -1.87   10.19
  17  -9  11  -15.35   11.17
 -18  -3 -11   34.33   16.70
  18   3  11   33.08   21.35
 -18  -2 -11   13.97    9.08
  18   2  11   -7.53   11.90
  18   2  11  -41.17   15.40
 -18  -1 -11  -10.81   11.57
  18   1  11  -23.72   16.86
  18   1  11  -15.97   13.80
 -18   0 -11  -13.10   10.54
 -18   0 -11    1.49   11.10
  18   0  11  -23.27   17.30
  18   0  11  -18.63   12.40
 -18   1 -11   -9.93   11.62
 -18   1 -11  -12.09   12.56
  18  -1  11  -52.55   19.54
  18  -1  11  -17.33   13.30
 -18   2 -11   -1.11    9.94
 -18   2 -11   15.76   11.20
 -18   2  11    8.31   12.94
  18  -2  11   14.91   13.57
  18  -2  11  -48.53   20.04
 -18   3 -11   22.23   15.39
 -18   3 -11    3.24   16.01
  18  -3  11   16.30   17.26
 -18   4 -11    1.67    9.86
 -18   4 -11   -2.13    9.57
  18  -4  11  -25.19   20.12
  18  -4  11    3.20   11.65
 -18   5 -11   -1.06   10.49
 -18   5 -11  -11.99   11.49
  18  -5  11   31.06   19.03
  18  -5  11    7.39   12.00
 -18   6 -11   -5.28    9.66
 -18   6 -11    3.52   10.52
  18  -6  11   13.48   18.34
  18  -6  11   -3.00   11.03
 -18   7 -11   -1.82   10.27
 -18   7 -11   15.48   10.45
  18  -7  11  -14.89   10.29
  18  -7  11  -22.95   19.05
 -18   8 -11   -5.56   10.22
 -18   8 -11    9.24   10.45
  18  -8  11  -29.00   20.68
  18  -8  11    7.82   10.88
 -18   9 -11    7.13   11.69
  18  -9  11   19.47   12.19
 -19  -3 -11   -1.19    9.63
 -19  -2 -11    4.77    8.78
  19   2  11   -2.76   12.49
  19   2  11  -37.00   18.51
 -19  -1 -11    6.53   12.60
 -19  -1 -11  -12.01    9.76
  19   1  11   20.24   17.05
  19   1  11    8.13   13.99
 -19   0 -11    6.58   12.01
 -19   0 -11   -3.64    9.76
  19   0  11  -11.85   18.58
  19   0  11  -10.27   12.87
 -19   1 -11   -6.13   11.92
 -19   1 -11   15.07   11.83
  19  -1  11   44.72   19.38
  19  -1  11  -12.73   13.35
 -19   2 -11  -20.99   11.16
 -19   2 -11   11.12   11.17
  19  -2  11   18.75   19.01
  19  -2  11   -1.26   12.60
 -19   3 -11   -1.80   12.20
 -19   3 -11   22.25   11.58
  19  -3  11   10.77   13.52
  19  -3  11   21.79   20.64
 -19   4 -11    9.32   11.64
 -19   4 -11    2.36   10.77
  19  -4  11    1.25   19.20
  19  -4  11  -10.59   11.93
 -19   5 -11   -1.91   12.14
 -19   5 -11   -1.17   10.52
  19  -5  11    5.77   12.28
  19  -5  11  -14.39   21.51
 -19   6 -11    2.31   13.60
  19  -6  11   31.44   14.60
   0   0 -12    8.09    4.52
   0   1 -12   -0.51    2.76
   1   0 -12   -0.34    3.01
  -1   0 -12   -1.42    2.90
   0   1 -12   -1.00    3.75
  -1   0  12    1.12    3.89
   0  -1  12   -0.22    3.56
  -1   1 -12   13.16    6.30
   1   1 -12   15.26    7.17
   1   1 -12   15.47    6.29
  -1  -1  12    7.20    7.10
  -1   2 -12    0.97    2.08
   2   1 -12   -0.67    3.68
   2   1 -12    0.58    2.89
   1  -2  12   -0.08    1.73
  -2  -1  12   -0.90    3.79
   1  -2  12    6.66    2.95
   0   2 -12    5.20    4.15
   2   0 -12    2.16    4.00
   2   0 -12    1.26    5.46
   0   2 -12    3.77    3.13
   0  -2  12    4.34    4.29
   0  -2  12    7.69    3.32
  -2   0  12    3.55    4.74
   1   2 -12    0.22    2.23
   1   2 -12   -0.57    3.56
  -1  -2  12   -0.19    3.55
   2  -1  12    0.82    1.80
   2   2 -12    5.23    2.78
   2   2 -12    2.38    3.81
   2  -2  12    3.06    2.72
  -2  -2  12    2.19    3.90
  -2   3 -12   -0.17    1.87
  -2   3 -12   -0.57    1.53
   3   2 -12   -1.24    2.38
   3   2 -12   -0.46    1.02
   3   2 -12   -1.88    3.71
   2  -3  12    0.25    2.94
  -3  -2  12   -1.06    3.86
   2  -3  12    0.99    2.14
  -1   3 -12    1.91    3.36
   3   1 -12   -1.38    4.16
  -1   3 -12    0.44    1.07
  -1   3 -12    3.95    2.18
   1  -3  12   -1.10    3.18
   1  -3  12    1.41    2.28
  -3  -1  12    3.04    3.80
   3   0 -12    1.25    4.45
   0   3 -12    0.76    3.38
   0   3 -12    0.58    2.14
  -3   0  12   -0.27    4.17
   0  -3  12    3.37    3.31
   1   3 -12    1.85    2.29
   1   3 -12    1.88    3.57
   3  -1  12    0.98    2.39
  -1  -3  12   -0.90    3.42
   2   3 -12    0.85    3.65
  -3   2 -12    0.19    1.32
  -3   2 -12   -2.54    3.71
   2   3 -12   -0.66    2.26
   3  -2  12   -1.12    2.87
   3  -2  12   -0.73    2.60
  -2  -3  12    0.19    3.59
  -3   3 -12    4.86    2.48
   3   3 -12    4.88    2.95
   3   3 -12    3.91    4.48
  -3  -3  12    3.70    4.49
   3  -3  12    3.04    3.58
   3  -3  12    4.18    4.39
  -3   4 -12   27.75    4.91
   4   3 -12    8.90    6.41
  -3   4 -12    9.73    4.95
  -4  -3  12   12.68    4.54
   3  -4  12  -19.29   10.58
   3  -4  12    4.41    6.29
  -4  -3  12   -3.75    6.90
   3  -4  12    9.79    4.62
  -2   4 -12   -0.11    1.78
   4   2 -12    2.96    4.71
   4   2 -12   -0.77    1.94
  -2   4 -12   -1.07    2.01
  -2   4 -12  -11.06    4.66
  -2   4 -12   -0.56    2.77
   2  -4  12   -2.00    2.97
   2  -4  12   -6.52    5.28
   2  -4  12   -4.80    2.59
   2  -4  12   -9.46    4.83
  -4  -2  12   -3.61    4.81
   4   1 -12    2.19    3.09
   4   1 -12   -3.93    4.30
  -1   4 -12    0.79    2.06
  -1   4 -12    1.16    3.31
  -1   4 -12    0.27    1.04
  -1   4 -12    0.20    1.29
   1  -4  12    2.23    3.56
   1  -4  12   -0.17    3.28
   1  -4  12    0.78    1.52
   1  -4  12    3.12    2.04
  -4  -1  12    0.49    4.41
   0   4 -12   -0.21    2.10
   4   0 -12   -0.42    4.30
   0   4 -12   -1.48    3.45
   4   0 -12   -0.40    3.56
   4   0  12    0.17    2.19
   0  -4  12    5.29    3.67
  -4   0  12   -2.25    4.51
   0  -4  12    1.12    2.03
   1   4 -12    1.33    2.29
  -4   1 -12   -1.43    2.00
   1   4 -12    0.78    3.77
  -1  -4  12   -0.97    2.09
  -1  -4  12    0.55    3.74
   2   4 -12   -4.17    4.74
  -4   2 -12   -1.73    2.60
   2   4 -12   -2.11    3.24
  -4   2 -12  -12.17    6.25
  -2  -4  12   -3.38    3.17
   4  -2  12  -10.17    5.12
  -2  -4  12  -11.27    5.52
   3   4 -12    8.54    6.32
  -4   3 -12    2.52    5.07
   3   4 -12   13.39    4.63
  -4   3 -12   -7.74    7.95
  -3  -4  12   12.27    4.53
   4   4 -12   28.14   14.14
  -4  -4  12   25.01   14.03
  -4   5 -12    8.34    5.52
   5   4 -12   13.37    5.28
   5   4 -12   10.61    6.74
  -5  -4  12    4.15    4.94
  -5  -4  12   14.45    6.92
   4  -5  12   15.02    4.89
   5   3 -12   -1.01    4.82
   5   3 -12    2.88    2.86
  -3   5 -12    2.15    2.30
  -3   5 -12   -0.22    3.61
  -3   5 -12    3.26    2.10
  -3   5 -12    2.32    2.74
  -5  -3  12    1.89    4.78
   3  -5  12    3.16    3.73
   3  -5  12    5.41    4.75
   3  -5  12    3.05    2.46
  -5  -3  12    3.56    1.80
   3  -5  12    0.22    2.39
   5   2 -12   58.10   18.75
  -2   5 -12   43.62   20.07
  -2   5 -12   49.94   23.41
  -2   5 -12   45.82   19.52
   5   2 -12   39.89   22.38
   5   2 -12   48.15   20.34
   2  -5  12   45.47   18.23
   2  -5  12   43.72   22.69
   2  -5  12   42.33   20.63
  -5  -2  12   41.91   23.12
  -1   5 -12   -3.74    3.94
   5   1 -12   -4.85    4.64
  -1   5 -12   -0.25    1.21
   5   1 -12    3.27    3.39
   5   1 -12    0.21    2.67
  -1   5 -12   -1.24    2.67
   1  -5  12  -11.42    4.14
   1  -5  12    2.62    2.36
  -5  -1  12   -1.82    4.71
   1  -5  12   -0.83    1.69
   5   0 -12   -1.29    5.49
   0   5 -12   -0.26    2.96
   0   5 -12    1.49    3.65
   5   0 -12   -2.07    4.10
  -5   0  12   -4.08    4.57
   0  -5  12   -0.99    1.08
   0  -5  12   -4.02    2.51
   5   0  12   -0.20    3.26
   0  -5  12   -8.97    4.19
   1   5 -12    1.57    3.62
  -5   1 -12    1.91    2.17
  -5   1 -12   -0.27    2.04
   1   5 -12    1.07    2.74
  -1  -5  12    1.07    2.23
   5  -1  12   -1.71    4.22
  -1  -5  12   -3.54    3.96
   5  -1  12   -1.60    3.66
   2   5 -12   40.40   18.46
   2   5 -12   43.35   21.45
  -5   2 -12   28.01   18.95
  -5   2 -12   57.40   20.27
   5  -2  12   30.30   23.54
  -2  -5  12   44.24   17.19
   5  -2  12   47.91   23.79
   5  -2  12   43.91   21.06
  -2  -5  12   41.96   21.03
  -5   3 -12    3.48    2.10
   3   5 -12    0.56    3.10
   3   5 -12    5.55    4.37
  -5   3 -12    4.41    2.49
  -5   3 -12    6.01    3.95
   5  -3  12    1.21    3.06
  -3  -5  12    1.47    4.26
   5  -3  12    7.42    4.67
   5  -3  12    1.15    1.94
  -3  -5  12    1.21    2.85
   5  -3  12    2.00    3.47
   4   5 -12    7.52    6.48
  -5   4 -12    8.56    4.78
  -5   4 -12   16.70    4.93
  -5   4 -12    7.30    4.74
  -5   4 -12    3.73    6.05
   5  -4  12    8.17    5.42
   5  -4  12   11.53    5.63
   5  -4  12    9.43    7.17
   5  -4  12   10.19    4.31
  -4  -5  12    9.61    6.48
   5   5 -12    8.44    5.74
   5   5 -12   13.85    7.12
  -5   5 -12    7.21    5.47
  -5   5 -12   14.04    5.73
   5  -5  12    8.07    8.11
  -5  -5  12   20.90    5.55
   5  -5  12   11.44    6.20
  -5  -5  12    7.65    7.05
  -5   6 -12    8.85    3.46
  -5   6 -12    5.75    3.32
   6   5 -12    5.88    5.24
   6   5 -12    2.64    3.70
   5  -6  12    1.28    5.69
   5  -6  12    2.48    3.60
  -6  -5  12    1.10    3.59
  -6  -5  12   -4.10    5.19
  -4   6 -12   18.50    9.39
   6   4 -12   22.19    8.56
  -4   6 -12   20.19   11.01
   6   4 -12   18.51   10.71
   4  -6  12   17.97    8.87
  -6  -4  12   22.84   10.73
  -6  -4  12   17.74    8.34
  -3   6 -12   42.36   18.73
   6   3 -12   46.01   16.65
   6   3 -12   34.75   20.50
  -3   6 -12   39.17   22.00
   3  -6  12   43.30   17.29
  -6  -3  12   39.11   21.17
   3  -6  12   39.35   20.82
  -2   6 -12   19.37    7.15
  -2   6 -12   10.70    6.17
   6   2 -12   10.13    5.80
   6   2 -12    8.78    7.59
   6   2 -12    9.14    5.74
   2  -6  12   18.46    5.64
   2  -6  12    7.56    6.38
  -6  -2  12   11.58    7.75
  -1   6 -12    9.58    5.28
  -1   6 -12   13.97    4.81
   6   1 -12    8.50    4.78
   6   1 -12    3.52    6.18
   6   1 -12   12.37    4.62
   1  -6  12    5.08    4.29
  -6  -1  12    7.46    6.29
   6   1  12   11.13    5.00
   1  -6  12    4.43    4.05
  -6   0 -12   -0.32   30.89
   0   6 -12  114.30   31.05
   6   0 -12   45.10   36.01
   6   0 -12  107.94   31.69
   0   6 -12  109.46   34.11
  -6   0  12   51.02   36.52
   0  -6  12  106.80   29.10
  -6   1 -12    3.04    3.81
   1   6 -12    6.48    5.05
   6  -1 -12    7.75    6.40
  -6   1 -12    8.92    4.19
   1   6 -12    7.29    4.34
  -1  -6  12    9.17    4.07
   6  -1  12   10.45    5.45
   6  -1  12    4.08    5.36
  -6   2 -12   16.39    5.84
   2   6 -12   16.13    6.31
   2   6 -12   13.11    7.03
  -6   2 -12    7.94    5.79
   6  -2  12   11.21    7.89
   6  -2  12   13.72    6.78
  -2  -6  12    9.57    5.68
   3   6 -12   55.20   20.66
   3   6 -12   42.14   18.67
  -6   3 -12   47.77   18.44
  -3  -6  12   26.38   17.47
   6  -3  12   47.36   23.17
   6  -3  12   49.77   19.83
  -6   4 -12   20.87    8.84
  -6   4 -12   18.19    8.89
   4   6 -12   19.07   10.15
   6  -4  12   21.04   11.73
   6  -4  12   20.13    9.69
   5   6 -12    1.87    3.72
   5   6 -12   -3.20    5.17
  -6   5 -12    0.44    3.04
  -6   5 -12    2.77    2.89
   6  -5  12    1.08    3.63
   6  -5  12    2.92    5.91
  -5  -6  12    2.71    3.50
  -6   6 -12    9.84    5.71
   6   6 -12   19.01    7.61
   6   6 -12    8.25    6.25
  -6  -6  12   13.17    5.99
   6  -6  12    8.87    6.65
  -6  -6  12   11.61    7.48
   6  -6  12    8.85    8.90
   7   6 -12    0.83    4.63
   7   6 -12    5.55    5.85
  -7  -6  12    1.31    4.17
  -7  -6  12    7.21    6.02
   6  -7  12   -0.31    4.01
   7   5 -12   16.47    8.44
  -5   7 -12    6.86    8.45
   7   5 -12   13.88    7.11
   5  -7  12    8.45    8.12
  -7  -5  12   26.67    8.91
  -7  -5  12   15.59    6.83
   7   4 -12    4.40    3.64
   7   4 -12    2.35    5.63
  -4   7 -12    4.28    4.00
   4  -7  12    0.72    3.52
  -7  -4  12   11.95    5.80
  -7  -4  12    2.19    3.65
   7   3 -12    8.96   10.49
   7   3 -12   28.22    8.13
  -3   7 -12   18.20   10.48
   3  -7  12   18.77    8.80
  -7  -3  12    8.39   10.99
   7   2 -12   13.69    6.76
   7   2 -12   14.27    8.65
  -2   7 -12   13.78    7.38
  -2   7 -12   15.91    8.13
  -7  -2  12   15.07    6.37
  -7  -2  12   10.59    9.09
   2  -7  12   18.15    6.97
  -1   7 -12   24.36    7.17
   7   1 -12   11.94    8.70
  -1   7 -12   19.13    7.81
   7   1 -12    8.44    6.89
  -7  -1  12    4.71    9.09
   7   1  12   16.20    7.93
   1  -7  12   16.62    6.63
   7   0 -12    0.69    3.88
   0   7 -12    0.77    3.61
   7   0 -12    4.65    5.05
   0   7 -12    0.83    3.75
  -7   0 -12    2.51    2.67
   7   0 -12    0.88    4.50
   7   0  12    0.51    3.93
   0  -7  12   -0.38    3.01
   7   0  12   -1.81    4.07
  -7   0  12    7.09    5.51
  -7   1 -12    3.39    6.04
   1   7 -12   13.28    6.63
   1   7 -12    7.37    7.16
   7  -1 -12   18.42    8.34
   7  -1  12   20.13    8.23
  -1  -7  12   10.74    6.15
   7  -1  12   14.39    7.42
   2   7 -12   11.97    7.96
  -7   2 -12   13.16    6.80
   2   7 -12   15.25    7.40
  -2  -7  12   20.15    6.90
   7  -2  12    9.69    7.88
   7  -2  12   16.82    9.24
   3   7 -12   14.51   10.25
   3   7 -12   33.39   11.03
  -7   3 -12   20.79    9.75
   7  -3  12   30.07   12.71
   7  -3  12   16.52   10.52
  -3  -7  12   22.97    9.65
   4   7 -12    5.58    4.31
  -7   4 -12    4.47    3.05
   4   7 -12    2.59    5.13
  -7   4 -12    3.14    3.31
   7  -4  12    0.36    6.37
  -4  -7  12    1.29    4.01
   7  -4  12    1.57    4.01
  -7   5 -12   17.21    7.64
  -7   5 -12   16.24    7.36
   5   7 -12   16.62    8.91
   7  -5  12   18.14    8.28
   7  -5  12   18.57   10.39
   6   7 -12    2.33    4.94
  -7   6 -12    7.47    3.46
   6   7 -12    0.42    5.70
  -7   6 -12    2.44    3.96
   7  -6  12   -0.46    7.24
   7  -6  12    1.00    4.51
  -6  -7  12   -0.47    4.02
   7   7 -12    0.49    5.14
  -7   7 -12    2.77    3.56
   7   7 -12    4.93    6.84
   7  -7  12    2.09    4.71
  -7  -7  12    0.50    4.62
   8   7 -12    3.81    6.36
   8   7 -12    2.56    5.43
  -8  -7  12    0.53    4.78
   7  -8  12    0.36    4.72
   8   6 -12    4.78    4.88
   8   6 -12    3.17    6.63
  -8  -6  12   -5.25    7.08
   6  -8  12    4.27    4.45
  -8  -6  12    5.12    4.73
   8   5 -12   -0.77    4.18
   8   5 -12   -0.42    5.72
  -5   8 -12   -5.10    3.80
  -8  -5  12   -0.42    4.07
   5  -8  12    1.47    3.66
  -8  -5  12   10.17    6.41
   8   4 -12   36.41   17.25
   8   4 -12   40.81   14.15
  -4   8 -12   34.41   17.63
  -8  -4  12   21.42   13.90
  -8  -4  12   43.73   17.67
  -3   8 -12    5.13    4.56
   8   3 -12    6.54    6.30
   8   3 -12    4.99    3.92
  -8  -3  12    2.91    6.62
   8   2 -12   16.30    6.26
   8   2 -12    9.34    8.13
  -2   8 -12   11.09    7.33
  -8  -2  12   11.40    5.87
  -8  -2  12   14.62    8.88
  -8  -2  12   12.80    7.01
  -1   8 -12    7.70    4.92
   8   1 -12   13.19    4.71
  -8  -1 -12   -1.66    3.70
   8   1 -12    8.47    4.64
   8   1 -12    9.97    6.19
   1  -8  12    3.36    4.74
   8   1  12    7.01    5.02
  -8  -1  12    1.26    6.59
   8   0 -12    3.41   14.34
   8   0 -12   35.70   12.42
   0   8 -12   30.80   11.72
   8   0 -12   30.29   11.74
  -8   0 -12    3.56   11.15
   0   8 -12   38.94   12.46
   0  -8  12   17.90   11.19
   8   0  12   34.34   13.38
   8   0  12   37.98   13.07
  -8   0  12   17.41   14.84
   8  -1 -12    5.67    6.41
   8  -1 -12    2.37    5.62
   1   8 -12   11.87    5.20
  -8   1 -12    0.76    3.97
   1   8 -12    5.57    4.92
   8  -1  12   -0.43    5.25
   8  -1  12   16.38    6.33
  -1  -8  12    6.60    4.49
   2   8 -12   21.89    7.90
   2   8 -12    7.09    7.49
  -8   2 -12   10.91    6.87
   8  -2  12   16.23    7.79
  -2  -8  12   20.59    7.10
   8  -2  12   14.20    9.51
   3   8 -12   11.38    5.39
  -8   3 -12    2.05    3.74
  -8   3 -12    2.53    4.06
   3   8 -12    4.85    4.93
   8  -3  12    6.73    6.90
   8  -3  12    4.82    5.10
  -3  -8  12    6.88    4.75
  -8   4 -12   42.68   14.12
   4   8 -12   23.01   14.39
   4   8 -12   30.83   15.47
  -8   4 -12   28.37   14.30
   8  -4  12   36.09   15.37
   8  -4  12   22.73   18.27
  -4  -8  12   24.38   13.52
  -8   5 -12    4.76    3.73
   5   8 -12   -4.69    5.77
  -8   5 -12    2.18    3.67
   8  -5  12    5.73    4.56
   8  -5  12   -7.17    7.80
   6   8 -12    2.14    5.60
   6   8 -12    3.69    6.41
  -8   6 -12    3.10    3.97
  -8   6 -12    1.58    4.56
   8  -6  12    4.16    5.18
  -6  -8  12    5.53    4.96
   8  -6  12   19.47    8.68
   7   8 -12    6.69    5.51
  -8   7 -12   -0.73    4.20
   7   8 -12    2.03    6.83
   8  -7  12   -0.78    5.18
  -7  -8  12    4.07    4.95
   8  -7  12    6.34    7.95
   8   8 -12   -2.17    7.09
   8   8 -12   -0.58    5.77
  -8  -8  12    7.96    4.88
   8  -8  12   -1.21    4.80
   8  -9  12    3.69    5.55
   9   7 -12    1.02    6.78
   9   7 -12    1.61    6.00
   7  -9  12    2.25    4.54
  -9  -7  12   -3.38    5.02
  -9  -7  12   -0.72    7.44
   9   6 -12    2.75    5.37
   9   6 -12    4.78    7.42
  -9  -6  12   15.61    7.64
  -9  -6  12    3.98    5.36
   9   5 -12   15.93   11.37
   9   5 -12   15.19    9.18
  -9  -5  12   32.03   11.71
  -9  -5  12   13.78    8.79
   9   4 -12   -1.78    4.27
   9   4 -12   11.29    6.87
  -4   9 -12    1.85    4.65
  -9  -4  12    4.16    4.57
  -9  -4  12    4.68    7.15
  -3   9 -12   36.60   15.40
   9   3 -12   32.78   12.45
   9   3 -12   23.98   15.68
  -9  -3  12   23.67   16.86
   9   2 -12   -0.33    3.71
   9   2 -12   -3.85    6.09
  -2   9 -12    2.95    4.20
  -9  -2  12    6.07    6.22
   9   1 -12    6.40    7.43
   9   1 -12   13.65    5.66
   9   1 -12   11.00    5.40
  -1   9 -12    8.43    5.91
  -9  -1 -12    1.36    4.84
  -9  -1  12   -0.34    7.98
   9   1  12   11.51    6.58
  -9  -1  12   11.54    5.44
   9   1  12   10.35    6.87
   0   9 -12    6.63    4.51
   9   0 -12    0.51    6.13
   9   0 -12   -5.21    4.70
  -9   0 -12   -0.44    2.99
   9   0 -12    2.22    5.22
   9   0  12    5.92    5.11
  -9   0  12    1.45    6.16
   9   0  12   -1.59    5.24
   1   9 -12    9.18    6.78
   9  -1 -12   10.81    7.68
  -9   1 -12    9.74    5.88
   9  -1 -12    9.57    7.42
   9  -1  12   18.51    8.25
   9  -1  12   17.58    6.99
   2   9 -12    3.40    4.86
  -9   2 -12    6.99    3.52
   9  -2  12    1.74    4.73
  -2  -9  12   -0.58    4.25
   9  -2  12   -5.64    7.12
  -9   3 -12   31.27   14.05
  -9   3 -12   22.03   15.05
   3   9 -12   36.56   15.36
   9  -3  12   40.85   18.22
  -3  -9  12   26.26   13.83
   9  -3  12   32.92   15.25
   4   9 -12   18.04    6.81
  -9   4 -12    5.31    5.19
  -9   4 -12    0.79    4.89
   4   9 -12   16.09    6.55
   9  -4  12   19.74    6.43
   9  -4  12  -11.65    9.56
  -4  -9  12    5.99    5.79
  -9   5 -12   14.73    9.76
   5   9 -12   28.91   11.47
  -9   5 -12   22.06   10.19
   9  -5  12   18.41   13.61
   9  -5  12   21.14   10.99
   6   9 -12    4.11    7.16
  -9   6 -12   11.56    5.30
  -9   6 -12    3.38    3.97
   6   9 -12   -2.45    5.78
   9  -6  12    3.80    9.01
  -6  -9  12   -0.64    5.55
   9  -6  12    4.23    5.63
  -9   7 -12   -3.08    4.35
  -9   7 -12    0.47    4.77
   7   9 -12   -5.00    7.63
   9  -7  12    1.82    9.11
   9  -7  12    4.29    5.48
   9  -8  12    6.20    6.11
   9   9 -12    0.69    6.38
   9   9 -12   -1.99    7.99
   9  -9  12   -3.57    5.75
  -9  -9  12    9.63    6.41
  10   9 -12    5.74    7.44
  10   9 -12    0.70   10.24
 -10  -9  12    2.34    7.16
 -10  -8  12   -4.80    6.50
  10   7 -12    1.70    8.22
 -10  -7  12    7.64    8.45
  10   6 -12    5.31    5.52
  10   6 -12   -0.51    7.32
 -10  -6  12    1.45    7.83
 -10  -6  12   -1.59    5.42
  10   5 -12    5.40    7.49
  10   5 -12    5.65    5.58
 -10  -5  12    5.71    5.16
 -10  -5  12    7.21    7.88
  10   4 -12   21.36   12.16
  10   4 -12   19.66    9.29
 -10  -4  12   14.21    9.20
 -10  -4  12   18.33   12.92
  10   3 -12    1.07    3.90
  10   3 -12    3.14    6.70
 -10  -3  12   -3.31    7.31
 -10  -3  12    3.02    4.56
  10   2 -12    7.24    6.50
  10   2 -12    7.34    4.23
 -10  -2  12   -3.08    6.98
  10   2  12   -0.35    5.30
  10   1 -12   -3.85    6.66
 -10  -1 -12    0.50    3.33
  10   1 -12    0.38    4.33
  10   1  12  -10.54    6.15
 -10  -1  12    4.27    3.92
 -10  -1  12    0.56    3.46
 -10  -1  12    3.94    7.04
  10   1  12   -1.07    5.20
  10   0 -12    0.45    5.25
 -10   0 -12   -0.48    4.00
  10   0 -12   -9.13    6.62
  10   0 -12    7.91    5.32
 -10   0  12    0.38    6.87
  10   0  12   -0.58    6.03
  10   0  12   16.67    6.79
  10  -1 -12    9.10    6.01
 -10   1 -12   -4.26    4.09
  10  -1 -12    1.11    6.34
  10  -1  12   -8.95    6.17
  10  -1  12    7.34    6.95
 -10   2 -12    3.25    3.94
  10  -2  12    4.38    5.43
  10  -2  12   -3.63    8.56
 -10   3 -12    3.95    4.48
 -10   3 -12    4.00    3.98
  10  -3  12   -5.72    5.49
  10  -3  12  -11.38    8.96
 -10   4 -12   29.53   12.64
 -10   4 -12   19.23   12.25
  10  -4  12   30.66   13.31
  10  -4  12   37.14   16.16
 -10   5 -12    6.57    5.06
 -10   5 -12   -0.69    4.78
  10  -5  12    6.66    6.29
  10  -5  12    1.66    9.18
 -10   6 -12    3.48    4.83
 -10   6 -12   -3.72    4.82
  10  -6  12    1.78    9.66
  10  -6  12    3.29    5.74
 -10   7 -12   -1.03    5.26
 -10   7 -12    0.83    4.08
  10  -7  12    3.39    6.22
  10  -7  12   -7.76    9.29
 -10   8 -12   -0.92    5.18
  10  -8  12    6.76    6.17
   9  10 -12    0.74   10.40
  10  -9  12    3.92    6.25
  10  10 -12   22.74   15.85
  11  10 -12   -4.33   12.71
  11   9 -12   -5.20   11.13
  11   9 -12    0.75    7.61
 -11  -9  12   -7.40    7.10
  11   8 -12    3.42   10.42
  11   8 -12   -2.67    6.66
 -11  -8  12    0.73    6.53
 -11  -8  12    4.50   10.14
  11   6 -12    1.61    8.02
  11   6 -12    1.05    4.92
 -11  -6  12  -10.82    8.49
  11   5 -12    5.97    6.06
  11   5 -12    2.06    8.35
 -11  -5  12    6.62    5.65
 -11  -5  12   11.37    8.88
  11   4 -12   -4.73    7.48
  11   4 -12    0.40    4.45
 -11  -4  12   -2.83    5.10
 -11  -4  12   -9.97    8.01
  11   3 -12   13.15    8.35
  11   3 -12    5.64    5.92
 -11  -3  12   10.49    6.28
 -11  -3  12   15.52    9.32
  11   2 -12    2.92    4.46
 -11  -2 -12   -0.56    3.91
  11   2 -12   -2.37    6.50
 -11  -2  12    0.37    7.27
  11   2  12    8.65    6.20
  11   1 -12    0.39    4.53
 -11  -1 -12    4.39    3.78
  11   1 -12   -5.58    7.07
  11   1  12   -2.38    6.75
 -11  -1  12    4.97    7.42
 -11  -1  12    1.60    4.58
  11   1  12   -3.35    6.56
 -11  -1  12    0.62    3.83
 -11   0 -12    1.07    4.29
  11   0 -12   -1.32    5.53
  11   0 -12   -4.32    5.68
  11   0 -12   -6.77    7.01
  11   0  12    6.07    6.98
  11   0  12   -9.71    5.97
 -11   0  12   -6.95    7.32
  11  -1 -12    0.55    6.31
  11  -1 -12    8.58    6.55
 -11   1 -12   -1.59    4.38
  11  -1  12   -1.75    6.56
  11  -1  12   -2.39    7.99
 -11   2 -12    0.52    4.41
  11  -2  12    3.56    8.65
  11  -2  12   -0.54    6.17
 -11   3 -12    4.53    6.37
 -11   3 -12    0.74    6.89
  11  -3  12   14.97   11.09
  11  -3  12   16.10    7.52
 -11   4 -12    1.52    5.18
 -11   4 -12    1.54    5.01
  11  -4  12    8.85   10.14
  11  -4  12   -1.04    6.04
 -11   5 -12    9.45    6.35
 -11   5 -12    3.11    5.74
  11  -5  12    1.23   10.34
  11  -5  12   18.63    7.39
 -11   6 -12    3.28    5.46
 -11   6 -12    2.48    5.37
  11  -6  12   -2.60   10.65
  11  -6  12   10.42    6.58
 -11   7 -12    7.20    6.17
 -11   7 -12   -2.28    7.00
  11  -7  12    4.26    7.49
  11  -7  12   36.22   10.15
  12  10 -12    5.47   14.23
  12   9 -12    7.90   11.84
 -12  -9  12    0.86    7.63
 -12  -9  12   12.36   12.46
  12   8 -12  -13.64   11.11
  12   8 -12   -0.70    7.69
 -12  -8  12    6.14    6.71
 -12  -8  12    3.83   11.00
  12   7 -12    7.44    9.65
  12   7 -12   35.96   12.35
 -12  -7  12    0.68    9.71
  12   5 -12    3.87    5.26
  12   5 -12  -12.80    8.84
  12   4 -12   -1.77    5.67
  12   4 -12   -3.57    8.18
 -12  -4  12   -2.50    5.93
 -12  -4  12   -6.84    8.75
  12   3 -12    3.17    4.81
  12   3 -12    2.44    7.08
 -12  -3  12   10.62    8.24
 -12  -3  12   -0.96    5.49
  12   2 -12    2.98    7.33
  12   2 -12    4.20    4.83
 -12  -2  12    6.22    8.51
  12   1 -12    0.40    4.84
  12   1 -12   -4.77    7.68
 -12  -1  12   -6.92    7.95
  12   0 -12   10.59    5.82
  12   0 -12   11.21    7.86
 -12   0  12    5.14    4.41
  12   0  12    2.67    7.13
 -12   0  12   -1.30    8.64
  12  -1 -12   18.02    7.59
  12  -1 -12    4.80    6.65
 -12   1 -12    2.36    5.02
  12  -1  12    0.65    6.84
  12  -2 -12    3.34    7.97
  12  -2 -12    5.05    8.15
 -12   2 -12    5.28    5.43
  12  -2  12   -1.82    6.94
 -12   3 -12   -5.10    5.65
  12  -3  12    0.60    6.76
 -12   7 -12    0.99    7.91
  12  -7  12  -12.70   13.07
 -12   8 -12   -5.06    6.51
 -12   8 -12   -1.05    5.83
  12  -8  12    5.27    7.11
  12  -8  12   -4.04   11.77
  12  -9  12   -6.31    7.26
  13  10 -12    9.59   15.02
  13   9 -12    5.22   13.48
 -13  -9  12    1.14   12.79
 -13  -9  12   -5.47    7.88
  13   8 -12    3.63    7.37
  13   8 -12   11.22   11.52
 -13  -8  12  -11.26   11.45
 -13  -8  12    0.81    7.48
  13   7 -12    5.19    7.17
  13   7 -12    6.59   10.55
 -13  -7  12    8.50   11.00
 -13  -7  12    7.19    7.28
  13   6 -12   -1.16    8.48
  13   6 -12   56.55   10.82
 -13  -6  12    4.48    8.53
  13   4 -12   12.62    8.39
  13   4 -12    3.27    5.14
 -13  -4  12    3.20    9.58
  13   3 -12   -0.84    5.54
  13   3 -12  -13.70    8.86
 -13  -3  12   -1.61    9.04
 -13  -3  12    2.54    5.96
  13   2 -12    3.64   10.20
 -13  -2 -12    1.35    7.22
  13   2 -12   -1.21    6.83
 -13  -2  12   29.19   12.21
 -13  -2  12    4.04    7.53
  13   2  12    1.45    9.94
  13   2  12   29.10   10.36
  13   1 -12   -0.55    8.14
 -13  -1 -12    2.66    4.97
  13   1 -12    4.05    5.01
  13   1  12   -3.17    7.60
 -13  -1  12   12.10    8.68
  13   1  12    2.58    8.17
 -13   0 -12    1.32    5.71
 -13   0  12    0.59    6.19
  13   0  12   -0.73    7.30
  13   0  12    2.14    8.70
 -13   0  12    3.95    4.40
 -13   1 -12    5.92    5.26
  13  -1 -12   -2.02    8.66
  13  -1  12    2.87    7.23
  13  -1  12  -11.86   10.90
  13  -2 -12    4.59   12.93
 -13   2 -12   17.76   11.02
 -13   2 -12   -2.81   11.52
  13  -2  12   83.31   13.28
 -13   3 -12    3.18    7.90
 -13   3 -12   -6.57    7.00
  13  -3  12  -48.78   15.55
 -13   4 -12   -0.96    6.75
 -13   4 -12   -8.36    7.43
  13  -4  12    5.13    7.56
  13  -4  12   30.48   14.66
 -13   5 -12   11.67    8.53
 -13   5 -12    5.87    8.11
  13  -5  12   25.47   13.82
  13  -5  12   13.75    9.39
 -13   6 -12   -1.02    6.85
 -13   6 -12    2.66    7.46
  13  -6  12   -7.04   12.89
  13  -6  12   11.84    8.31
 -13   7 -12   -1.09    5.55
 -13   7 -12   -6.10    7.50
  13  -7  12    6.34    7.76
  13  -7  12   17.89   12.45
 -13   8 -12   -2.07    7.11
 -13   8 -12   -4.57    6.71
  13  -8  12   10.17    7.48
  13  -8  12    4.34   12.26
 -13   9 -12   -5.51    7.16
  13  -9  12    1.27    7.80
  14  10 -12   -1.06   16.23
 -14 -10  12   -8.86   16.16
  14   9 -12   14.41   15.60
 -14  -9  12   20.57   15.05
  14   8 -12   -3.13   12.66
  14   8 -12    7.54    7.73
 -14  -8  12    1.71    8.01
 -14  -8  12    0.55   12.91
  14   7 -12   -6.78    7.63
  14   7 -12   -2.15   11.49
 -14  -7  12   10.63    7.91
 -14  -7  12   -7.50   11.58
 -14  -6  12  -29.06   11.37
 -14  -6  12    4.73    6.76
 -14  -5  12    4.28    6.29
 -14  -2 -12    7.41    5.77
  14   2  12   25.30    9.75
  14   2  12   -9.03    9.38
 -14  -1 -12    2.94    5.18
  14   1  12   13.17    9.46
  14   1  12  -14.72    8.33
 -14   0 -12   -4.39    5.91
  14   0  12    1.61    7.91
  14   0  12    2.50   10.18
 -14   1 -12   -1.47    5.94
  14  -1  12    0.66   11.20
  14  -1  12   -0.79    8.15
 -14   2 -12    5.88    6.45
 -14   2 -12    1.04    7.94
  14  -2  12   -1.50    8.29
  14  -2  12   -1.44   12.44
 -14   3 -12   -4.19    7.80
 -14   3 -12    7.82    7.01
  14  -3  12   -2.28   13.34
  14  -3  12   -9.69    8.41
 -14   4 -12   10.04    7.29
 -14   4 -12   -2.17    6.91
  14  -4  12    7.20   13.79
  14  -4  12   -2.98    8.27
 -14   5 -12    4.38    7.47
 -14   5 -12    4.44    7.01
  14  -5  12    7.19    8.29
  14  -5  12   -9.90   12.48
 -14   6 -12   -0.73    7.43
 -14   6 -12    4.56    7.35
  14  -6  12   -2.58   13.95
  14  -6  12   12.29    8.67
 -14   7 -12    1.20    6.82
 -14   7 -12    5.92    7.73
  14  -7  12   11.76    8.22
  14  -7  12    6.21   12.90
 -14   8 -12    2.25    7.96
 -14   8 -12    1.25    6.82
  14  -8  12  -24.80    9.06
  14  -8  12  -21.58   14.09
 -14   9 -12    8.22    8.43
  14  -9  12   -1.37    8.62
 -15  -2 -12    1.63    5.72
  15   2  12    2.95    9.16
  15   2  12    8.10   10.32
 -15  -1 -12   -0.81    5.81
  15   1  12    0.95    9.07
  15   1  12   -4.45   10.77
 -15   0 -12    8.93    6.51
  15   0  12   -2.67    8.72
  15   0  12    7.61   11.59
 -15   1 -12   -4.08    7.28
 -15   1 -12   -8.00    8.02
  15  -1  12    6.14    8.94
  15  -1  12    0.73   12.01
 -15   2 -12   -1.15    8.38
  15  -2 -12   -1.79    9.78
 -15   2 -12    5.74    7.47
  15  -2  12   -3.97   13.57
  15  -2  12    9.57    9.14
 -15   3 -12    5.55    8.11
 -15   3 -12   -1.19    8.67
  15  -3  12   14.24   14.26
  15  -3  12    5.78    9.55
 -15   4 -12   -7.27    9.38
 -15   4 -12    3.99    8.72
  15  -4  12  -53.30   11.44
  15  -4  12   -7.03   15.49
 -15   5 -12   22.56    8.95
 -15   5 -12   -3.73    8.80
  15  -5  12   23.59   15.75
  15  -5  12   -0.79    9.70
 -15   6 -12    8.81    8.43
 -15   6 -12   -6.38    8.12
  15  -6  12    9.43   15.06
  15  -6  12   14.23    9.52
 -15   7 -12    8.88    8.64
 -15   7 -12   -2.66    7.65
  15  -7  12  -28.13   13.57
  15  -7  12    5.49    9.38
 -15   8 -12   -1.37    6.88
 -15   8 -12   -0.81    8.65
  15  -8  12   -1.49    9.59
  15  -8  12  -19.35   15.05
 -15   9 -12   -7.29    9.32
  15  -9  12  -12.60    8.99
 -16  -2 -12    1.80    7.51
  16   2  12    6.22   12.11
  16   2  12   31.07   11.51
 -16  -1 -12    0.90    6.31
  16   1  12  -15.53   12.62
  16   1  12    7.28   10.18
 -16   0 -12   13.51    8.39
  16   0  12   16.63   10.77
  16   0  12    0.77   13.60
 -16   1 -12   -0.91    8.07
 -16   1 -12   -2.52    8.93
  16  -1  12  -17.42    9.72
  16  -1  12  -19.92   14.41
 -16   2 -12   17.90   10.59
 -16   2 -12   12.80    9.10
 -16   2  12    7.19   12.17
  16  -2  12    4.81   11.07
  16  -2  12   12.26   15.51
 -16   3 -12  -19.27    7.97
 -16   3 -12    1.33    9.12
  16  -3  12    0.93   15.72
  16  -3  12    3.65    9.69
 -16   4 -12   -4.06    8.89
 -16   4 -12   13.30    8.81
  16  -4  12   18.29   15.90
  16  -4  12    3.61   10.57
 -16   5 -12    4.44    8.44
 -16   5 -12    2.78    8.59
  16  -5  12   -9.43   10.51
  16  -5  12   15.92   15.54
 -16   6 -12   -1.43    9.15
 -16   6 -12   -0.88    8.55
  16  -6  12    2.07   16.41
  16  -6  12  -11.19   10.67
 -16   7 -12   -0.88    9.28
 -16   7 -12    5.92    8.45
  16  -7  12   38.21   16.01
  16  -7  12  -15.38   10.45
 -16   8 -12   -6.07    8.78
 -16   8 -12   -1.76    9.95
  16  -8  12   35.40   11.57
 -16   9 -12    3.48   11.94
  16  -9  12   31.22   12.57
 -17  -2 -12    4.95    7.50
  17   2  12    1.17   10.17
  17   2  12   -0.81   13.57
 -17  -1 -12    1.99    8.90
  17   1  12    5.71   11.52
  17   1  12   41.08   15.08
 -17   0 -12   -8.23   10.41
 -17   0 -12  -10.00    7.34
  17   0  12   -1.13   11.07
  17   0  12    5.95   14.26
 -17   1 -12   12.50   10.51
 -17   1 -12    1.01    9.50
  17  -1  12    0.92   16.50
  17  -1  12    9.60   11.14
 -17   2 -12    9.16    9.43
 -17   2 -12   -5.66   11.18
  17  -2  12   18.03   11.84
  17  -2  12   28.93   17.06
 -17   3 -12    7.15    8.84
 -17   3 -12  -16.23   11.19
  17  -3  12   18.35   16.94
  17  -3  12    3.03   10.58
 -17   4 -12  -10.80    8.31
 -17   4 -12    1.51    8.91
  17  -4  12   -1.05   16.23
  17  -4  12    8.95   10.76
 -17   5 -12   18.62    9.72
 -17   5 -12   -6.22    9.98
  17  -5  12  -44.31   12.80
  17  -5  12   -9.92   18.47
 -17   6 -12    7.97   11.87
 -17   6 -12   -6.84   11.42
  17  -6  12    0.93   12.54
 -17   7 -12  -19.15   10.13
 -17   7 -12    6.60    9.78
  17  -7  12   -1.17   16.69
  17  -7  12    7.43   10.82
 -17   8 -12   -1.68    8.75
 -17   8 -12   -3.81   10.29
  17  -8  12   11.90   10.75
  17  -8  12   -1.21   16.73
 -17   9 -12   -4.72   10.21
  17  -9  12   -3.47    9.99
 -18  -2 -12  -29.58   13.46
  18   2  12  -23.33   18.13
  18   2  12  -16.69   16.17
 -18  -1 -12    4.40   13.15
  18   1  12   -1.26   15.73
  18   1  12   75.86   19.95
 -18   0 -12    1.51   20.88
 -18   0 -12    2.22   19.28
  18   0  12   78.11   22.25
  18   0  12   91.32   26.00
 -18   1 -12   -1.54   14.05
 -18   1 -12    1.12   12.44
  18  -1  12    1.18   14.98
  18  -1  12   90.22   21.48
 -18   2 -12    3.40   13.43
 -18   2 -12   -9.61   14.77
  18  -2  12  -51.98   22.75
  18  -2  12  -74.91   17.46
 -18   3 -12    1.13   10.31
 -18   3 -12    6.56   10.58
  18  -3  12   24.43   11.73
  18  -3  12  -60.22   20.19
 -18   4 -12   -2.18    9.92
 -18   4 -12   -1.68   10.42
  18  -4  12   18.49   18.94
  18  -4  12    7.67   11.84
 -18   5 -12   -6.49    9.84
 -18   5 -12    3.47   10.68
  18  -5  12   11.84   11.91
  18  -5  12    2.41   19.27
 -18   6 -12   -8.91    9.61
 -18   6 -12    8.56   10.93
  18  -6  12  -13.17   11.01
  18  -6  12  -23.53   18.89
 -18   7 -12  -18.07   10.85
 -18   7 -12    9.21    9.69
  18  -7  12    8.07   11.41
  18  -7  12    1.29   18.65
 -18   8 -12    1.87   10.15
 -18   8 -12   -6.21   11.32
  18  -8  12   11.94   19.70
  18  -8  12    1.99   11.31
 -18   9 -12   -6.15   10.11
  18  -9  12   18.60   11.55
 -19  -2 -12   -3.64    8.90
  19   2  12    1.41   13.01
  19   2  12  -22.02   18.84
 -19  -1 -12   -8.27   12.00
 -19  -1 -12   -3.67    8.93
  19   1  12   -1.39   12.85
  19   1  12   27.42   17.58
 -19   0 -12    1.67   12.52
 -19   0 -12    3.70    9.48
  19   0  12  -24.60   14.77
  19   0  12   42.04   18.59
 -19   1 -12   -4.98    9.03
 -19   1 -12    3.39   11.39
  19  -1  12   11.22   17.95
  19  -1  12    1.30   13.04
 -19   2 -12   -3.55   11.69
 -19   2 -12   10.06   11.08
  19  -2  12  -14.14   18.22
  19  -2  12  -18.04   13.35
 -19   3 -12  -15.11   12.23
 -19   3 -12    5.47   12.36
  19  -3  12   -6.10   20.21
  19  -3  12  -24.27   13.63
 -19   4 -12    1.25   11.26
 -19   4 -12    1.89   11.95
  19  -4  12  -12.65   20.94
  19  -4  12   -8.44   12.55
 -19   5 -12    9.54   11.40
 -19   5 -12    1.94    9.95
  19  -5  12   -8.26   12.51
  19  -5  12    1.32   14.51
   0   0 -13   -1.68    3.10
   0   1 -13   17.62    4.96
  -1   0 -13    1.84    4.82
   1   0 -13    0.73    5.08
   0   1 -13   16.11    6.27
   0  -1  13    8.01    5.75
  -1   0  13   10.79    6.01
  -1   1 -13   -0.39    4.61
  -1   1 -13    1.30    2.65
   1   1 -13    1.20    2.91
   1   1 -13   -3.33    3.95
   1  -1  13   -1.50    4.46
  -1  -1  13    1.21    3.97
  -1   2 -13    5.20    4.22
   2   1 -13    0.96    3.37
  -1   2 -13    5.69    2.78
   2   1 -13    0.37    4.20
  -2  -1  13    2.72    4.20
   1  -2  13    3.73    2.60
   1  -2  13    3.98    3.95
   2   0 -13   -3.22    5.00
   0   2 -13   -1.17    2.36
   2   0 -13   -0.39    3.49
   0   2 -13   -2.48    4.16
  -2   0  13   -2.39    4.93
   0  -2  13   -0.19    1.26
   0  -2  13    5.92    3.77
  -2   1 -13    0.48    2.91
   1   2 -13    1.27    4.35
   1   2 -13    4.00    3.03
   2  -1  13   18.15    4.44
   2  -1  13    1.98    2.71
  -1  -2  13    3.39    4.30
   2   2 -13    0.79    2.64
  -2   2 -13    3.42    3.78
  -2   2 -13    1.22    2.20
   2   2 -13   -0.99    4.03
   2  -2  13   -0.93    2.20
   2  -2  13    3.76    3.67
  -2  -2  13    0.45    4.02
   3   2 -13   -0.69    4.25
  -2   3 -13   -1.85    2.69
  -2   3 -13   -1.86    5.42
   3   2 -13    2.52    3.02
  -2   3 -13   -4.53    2.40
   2  -3  13   10.08    4.47
  -3  -2  13    3.06    4.36
   2  -3  13  -10.97    4.88
   2  -3  13   -3.56    3.77
   3   1 -13    0.67    3.27
   3   1 -13    0.38    4.78
  -1   3 -13   -3.04    3.98
  -1   3 -13   -1.59    2.47
  -3  -1  13   -2.31    4.73
   1  -3  13   -1.57    2.48
   1  -3  13   -4.62    3.89
   0   3 -13   -0.43    2.25
   0   3 -13   -0.87    3.82
   3   0 -13   -1.37    4.64
   0   3 -13    0.35    0.60
  -3   0  13   -0.30    4.58
   0  -3  13   -0.24    1.36
   0  -3  13   -1.32    3.69
   1   3 -13   -0.31    4.61
   1   3 -13   -0.45    2.50
  -1  -3  13   -2.80    4.41
   3  -1  13    5.57    2.45
  -3   2 -13   -2.57    2.04
   2   3 -13   -2.41    2.60
   2   3 -13   -4.35    4.44
   3  -2  13   -1.17    3.61
  -2  -3  13   14.45    4.59
   3   3 -13    0.26    3.04
  -3   3 -13   -3.93    2.98
  -3   3 -13   -3.73    2.59
   3   3 -13    0.33    4.82
   3  -3  13   -8.28    4.82
  -3  -3  13   -5.65    4.90
   3  -3  13   -8.85    4.75
   4   3 -13    4.83    5.06
  -3   4 -13    3.36    4.46
  -3   4 -13    5.40    2.49
  -3   4 -13    4.08    2.58
  -3   4 -13    4.54    2.92
   3  -4  13    4.14    4.64
   3  -4  13    5.49    2.54
  -4  -3  13    0.96    5.21
   3  -4  13    0.30    3.94
   3  -4  13    6.38    3.11
   4   2 -13    1.80    4.61
  -2   4 -13    4.13    2.08
  -2   4 -13    4.09    4.19
  -2   4 -13    3.07    2.16
  -2   4 -13    2.81    2.78
   2  -4  13    1.48    4.18
   2  -4  13    1.78    4.24
   2  -4  13    1.78    2.89
   2  -4  13    3.92    2.46
  -4  -2  13    5.50    4.83
  -1   4 -13   -3.47    2.26
  -1   4 -13   -2.96    2.57
  -1   4 -13  -13.04    5.56
  -1   4 -13   -2.97    3.16
   4   1 -13   -1.18    5.11
   1  -4  13   -6.28    3.56
   1  -4  13  -11.62    5.68
  -4  -1  13   -5.91    5.17
   1  -4  13   -5.39    2.93
   4   0 -13    0.86    4.52
   4   0 -13    2.76    5.81
   0   4 -13    0.44    2.86
   0   4 -13   -6.60    5.32
   4   0  13    0.18    3.11
  -4   0  13   -1.52    5.02
   0  -4  13  -17.58    5.31
   0  -4  13   -5.58    2.93
   1   4 -13   -3.94    5.53
   1   4 -13   -1.40    3.13
   4  -1  13    0.17    3.74
  -1  -4  13  -12.95    5.53
   2   4 -13    6.41    3.47
   2   4 -13    7.68    5.08
  -2  -4  13    6.78    4.78
   3   4 -13    3.04    5.21
   3   4 -13    5.74    3.40
  -3  -4  13    8.34    5.03
   4   4 -13   -2.86    4.77
  -4   4 -13    1.97    2.15
  -4  -4  13   -2.16    4.71
   4  -4  13   -0.52    1.98
   5   4 -13   18.87   13.94
  -4   5 -13   23.99   12.25
   5   4 -13   26.90   11.30
  -4   5 -13   31.55   14.52
  -5  -4  13   32.29   13.96
   4  -5  13   30.94   11.02
   4  -5  13   13.89   13.81
  -5  -4  13   42.40   11.16
   5   3 -13   66.22   27.55
   5   3 -13   66.82   22.83
  -3   5 -13   39.71   23.77
  -3   5 -13   71.79   29.39
  -3   5 -13   53.56   25.02
  -3   5 -13   62.18   24.94
   3  -5  13   50.60   22.43
   3  -5  13   68.93   30.84
   3  -5  13   44.76   25.15
   3  -5  13   41.78   28.17
  -5  -3  13   65.68   28.15
   5   2 -13   17.41    7.69
  -2   5 -13   15.03    7.20
   5   2 -13    6.72    5.83
  -2   5 -13   18.51    5.97
  -5  -2  13   12.50    7.80
   2  -5  13   11.63    5.24
   2  -5  13    9.06    7.01
   2  -5  13    9.87    5.64
   5   1 -13   17.19    8.23
   5   1 -13   11.03    6.76
   5   1 -13   13.42    6.78
  -1   5 -13   17.46    6.34
  -1   5 -13   17.45    7.55
  -5  -1  13   15.24    8.15
   1  -5  13   13.53    5.78
   1  -5  13   12.68    7.39
   0   5 -13   34.31   13.25
   0   5 -13   29.01   15.69
   5   0 -13   16.93   16.51
   5   0 -13   22.18   14.43
   0  -5  13   40.88   12.15
  -5   0  13   18.26   16.64
   0  -5  13   32.36   15.31
   5   0  13   33.44   16.56
  -5   1 -13   -1.46    5.26
   1   5 -13    9.63    5.52
  -5   1 -13   10.60    6.22
   1   5 -13   13.83    6.89
  -1  -5  13   15.61    6.89
  -1  -5  13   19.91    5.19
   5  -1  13   13.01    7.04
   5  -1  13    4.81    6.78
  -5   2 -13   14.13    6.01
  -5   2 -13    2.67    5.61
   2   5 -13   19.89    5.83
   2   5 -13   12.11    7.21
   5  -2  13   11.42    7.55
  -2  -5  13   14.92    5.45
  -2  -5  13    9.97    7.04
   5  -2  13    9.78    6.62
   3   5 -13   57.89   23.55
  -5   3 -13   58.50   29.18
   3   5 -13   66.34   27.29
  -5   3 -13   63.37   24.23
   5  -3  13   57.01   26.09
   5  -3  13   37.44   27.62
  -3  -5  13   69.41   26.88
  -3  -5  13   55.91   22.31
   5  -3  13   49.97   30.08
  -5   4 -13   33.21   10.88
  -5   4 -13   21.65   11.09
   4   5 -13   32.42   13.07
   5  -4  13   22.52   14.32
  -4  -5  13   20.88   12.89
   5  -4  13   15.89   11.74
  -5   5 -13    0.48    2.67
  -5   5 -13    0.67    2.26
  -5   5 -13   -0.40    2.56
   5   5 -13   -1.30    3.31
   5   5 -13    0.74    5.24
   5  -5  13   -2.09    3.05
   5  -5  13   -1.11    2.28
  -5  -5  13    9.48    5.08
   5  -5  13    2.00    5.59
   6   5 -13    9.08    6.69
  -5   6 -13    8.75    4.89
  -5   6 -13   14.28    4.51
  -5   6 -13    5.68    4.49
  -5   6 -13    4.88    5.66
   6   5 -13    8.24    4.85
   5  -6  13   12.35    5.19
  -6  -5  13    4.16    6.74
   5  -6  13    2.10    7.27
  -6  -5  13    6.15    4.76
   6   4 -13    1.99    5.28
   6   4 -13    0.94    3.32
  -4   6 -13    1.54    3.13
  -4   6 -13   -4.78    3.51
  -4   6 -13    2.02    2.67
  -6  -4  13    7.39    5.57
   4  -6  13    0.59    2.93
  -6  -4  13    4.02    3.51
   4  -6  13    0.16    3.81
  -3   6 -13   15.32    7.47
  -3   6 -13   10.34    6.28
   6   3 -13   10.87    5.81
   6   3 -13   13.93    7.95
  -6  -3  13   12.10    8.19
   3  -6  13    6.86    5.58
  -2   6 -13   10.33    5.46
  -2   6 -13    5.23    4.74
   6   2 -13    9.61    4.57
   6   2 -13    2.39    6.07
   2  -6  13    6.30    4.04
  -6  -2  13    8.49    6.69
  -1   6 -13   38.73   14.05
  -1   6 -13   37.96   12.65
   6   1 -13   26.80   12.69
   6   1 -13   40.04   13.24
   6   1 -13   28.63   14.48
   1  -6  13   34.42   11.74
  -6  -1  13   14.38   14.75
   0   6 -13    4.18    4.08
   6   0 -13   -0.47    4.43
   0   6 -13   -1.88    3.35
   6   0 -13    8.71    5.25
   0  -6  13    1.22    2.90
  -6   0  13   -2.96    5.19
   6   0  13   -0.23    3.34
   1   6 -13   37.60   12.70
   1   6 -13   27.64   11.30
  -6   1 -13    3.54   11.17
  -6   1 -13   12.31   13.05
  -1  -6  13   31.35   10.48
   6  -1  13   33.64   13.81
   6  -1  13   29.26   12.88
   2   6 -13    8.79    5.04
  -6   2 -13    6.29    4.42
   2   6 -13    9.92    5.76
  -2  -6  13    6.05    4.49
   6  -2  13   10.48    6.47
   6  -2  13   13.12    5.39
   3   6 -13    9.87    6.57
  -6   3 -13   16.16    6.16
   3   6 -13   19.78    7.71
   6  -3  13   13.49    8.73
  -3  -6  13    5.67    6.03
   6  -3  13   16.42    6.92
   4   6 -13    4.58    4.68
  -6   4 -13    1.15    2.57
  -6   4 -13    0.26    2.60
   4   6 -13   -2.57    3.63
   6  -4  13   -0.80    3.18
  -4  -6  13   -3.00    3.60
  -4  -6  13    2.48    4.90
   6  -4  13   -0.96    5.70
  -6   5 -13    9.25    4.46
   5   6 -13    9.43    6.51
  -6   5 -13    6.14    4.53
  -5  -6  13   10.29    6.55
   6  -5  13    5.45    7.40
   6  -5  13    9.89    5.21
   6   6 -13    0.40    4.14
  -6   6 -13    1.47    3.10
   6   6 -13   -1.67    5.80
  -6   6 -13    1.62    3.25
   6  -6  13   -0.43    7.26
  -6  -6  13   -5.91    6.10
  -6  -6  13    2.95    4.06
   6  -6  13   -0.85    3.82
   7   6 -13   13.31    8.06
   7   6 -13   17.00    6.55
  -6   7 -13    9.40    5.74
   6  -7  13    7.86    6.58
  -7  -6  13   12.69    8.06
  -7  -6  13   11.67    6.06
   7   5 -13    2.54    4.09
   7   5 -13    3.78    5.74
  -5   7 -13    1.87    3.95
  -7  -5  13   -0.82    4.06
   5  -7  13    1.32    3.92
  -7  -5  13   16.04    6.45
  -4   7 -13   51.57   23.75
   7   4 -13   45.35   21.92
   7   4 -13   61.70   18.15
  -7  -4  13   43.59   17.83
   4  -7  13   28.18   19.23
  -7  -4  13   41.55   22.26
   7   3 -13   16.31   11.11
  -3   7 -13   14.17    9.68
   7   3 -13   31.27    8.80
  -3   7 -13   14.31   11.22
  -7  -3  13   19.70   11.69
   3  -7  13   18.96    9.04
   7   2 -13   10.75    5.75
  -2   7 -13    4.09    6.53
  -2   7 -13    8.32    5.96
   7   2 -13    9.63    7.63
   2  -7  13   18.74    5.65
  -7  -2  13   17.21    8.06
   7   1 -13    4.30    4.71
  -1   7 -13    8.33    4.24
   7   1 -13    8.95    5.84
  -1   7 -13    6.00    4.55
   7   1  13    2.86    4.22
   1  -7  13    3.64    3.80
  -7  -1  13   -7.31    6.46
   0   7 -13   30.44   11.09
   7   0 -13   30.59   11.74
   7   0 -13    9.04   13.51
   0   7 -13   34.87   12.19
  -7   0 -13    1.51   10.53
   7   0 -13   35.42   12.12
   7   0  13   33.90   12.77
  -7   0  13    3.80   13.68
   0  -7  13   33.67   10.19
   7   0  13   24.28   12.55
   7  -1 -13    7.88    6.49
  -7   1 -13    2.13    3.36
   1   7 -13    2.86    4.85
   1   7 -13    6.32    4.59
  -1  -7  13    2.28    3.93
   7  -1  13   10.25    5.03
   7  -1  13    9.06    5.11
   2   7 -13   11.10    6.51
   2   7 -13   13.84    6.12
  -7   2 -13    5.38    5.16
   7  -2  13    8.22    6.17
  -2  -7  13   14.98    5.28
   7  -2  13    7.86    7.50
  -7   3 -13   18.72    9.56
   3   7 -13   29.98   11.01
   3   7 -13    8.84    9.97
   7  -3  13   25.01   12.80
   7  -3  13   21.03   10.40
  -3  -7  13   27.95    9.39
  -7   4 -13   28.54   18.79
  -7   4 -13   41.13   18.32
   4   7 -13   42.81   18.56
   4   7 -13   46.94   20.26
   7  -4  13   35.15   19.73
   7  -4  13   42.26   23.43
  -4  -7  13   50.41   17.32
  -7   5 -13    1.25    3.06
  -7   5 -13    0.98    2.99
   5   7 -13    0.40    5.29
   7  -5  13    0.32    4.52
   7  -5  13    0.40    6.66
  -7   6 -13    9.83    5.54
  -7   6 -13    6.84    5.28
   6   7 -13    1.90    6.13
   6   7 -13   18.00    7.37
   7  -6  13   15.20    8.64
  -6  -7  13    4.78    5.62
   7  -6  13    5.88    6.02
  -7   7 -13    3.45    3.88
   7   7 -13    0.99    5.52
   7   7 -13    9.67    6.52
   7  -7  13    6.61    7.86
   7  -7  13    1.03    4.59
  -7  -7  13   -2.53    5.27
  -7  -7  13   -1.92    6.69
   8   7 -13    2.60    5.86
   8   7 -13   -0.52    7.76
  -8  -7  13   -2.15    5.32
  -8  -7  13   -8.92    7.34
   8   6 -13    3.78    6.84
   8   6 -13    4.47    5.09
  -8  -6  13    0.65    7.40
  -8  -6  13    3.82    4.63
   8   5 -13   36.53   15.93
   8   5 -13   21.56   13.12
  -8  -5  13   50.93   15.92
  -8  -5  13   22.62   12.77
   8   4 -13   -1.77    3.94
   8   4 -13   -4.41    6.09
  -4   8 -13   -4.89    4.18
  -8  -4  13   -2.90    4.29
  -8  -4  13   -2.50    6.32
   8   3 -13   39.15   13.29
  -3   8 -13   27.93   16.49
   8   3 -13   33.40   16.45
  -8  -3  13   29.48   17.23
  -2   8 -13    4.78    4.33
   8   2 -13    3.52    4.04
   8   2 -13    0.44    6.20
  -8  -2  13    0.32    6.43
   2  -8  13    1.89    4.28
  -1   8 -13   26.95   10.11
   8   1 -13   34.93    9.78
  -1   8 -13   12.71   10.72
   8   1 -13   13.16   11.93
   1  -8  13   17.41    9.37
   8   1  13   19.79   11.10
  -8  -1  13   23.31   12.50
   0   8 -13    1.25    4.22
   0   8 -13    3.67    4.36
   8   0 -13    4.86    5.37
   8   0 -13   -0.39    4.98
   8   0 -13    2.10    6.19
  -8   0 -13    0.41    2.94
  -8   0  13   -0.73    5.84
   0  -8  13    2.73    3.74
   8   0  13   -0.30    4.78
   8   0  13   -2.04    5.42
  -8   1 -13    5.12    9.29
   8  -1 -13   11.16   11.20
   1   8 -13   22.85   10.01
   1   8 -13   22.18   10.52
   8  -1  13   29.81   12.06
  -1  -8  13   23.06    9.23
   8  -1  13   27.25   10.79
  -8   2 -13    4.53    3.77
   2   8 -13    6.00    5.06
   2   8 -13    1.90    5.07
   8  -2  13    5.83    5.03
  -2  -8  13    1.41    4.36
   8  -2  13   11.74    6.64
  -8   3 -13   25.18   13.58
   3   8 -13   33.67   14.15
   3   8 -13   33.26   15.08
   8  -3  13   35.96   14.75
   8  -3  13   25.95   17.94
  -3  -8  13   25.36   13.07
   4   8 -13   -2.84    5.66
   4   8 -13    7.05    5.01
  -8   4 -13   -0.51    3.43
  -8   4 -13    1.05    3.27
  -4  -8  13    2.02    4.16
   8  -4  13    0.84    6.96
   8  -4  13   -0.36    4.54
  -8   5 -13   18.69   12.63
  -8   5 -13   17.98   12.92
   5   8 -13   32.07   14.46
   8  -5  13   42.29   16.79
   8  -5  13   28.48   14.23
   6   8 -13   -1.08    5.56
   6   8 -13    0.48    6.69
  -8   6 -13    8.91    4.48
  -8   6 -13    6.80    4.02
  -6  -8  13    6.08    5.24
   8  -6  13    2.23    5.24
   8  -6  13    7.97    7.95
   7   8 -13   -2.55    6.76
  -8   7 -13    4.33    4.02
   7   8 -13    2.82    5.55
  -8   7 -13    0.83    4.45
   8  -7  13   -3.53    5.22
   8  -7  13    2.85    9.08
  -7  -8  13    4.07    5.19
   8   8 -13   -2.18    7.38
   8  -8  13   -2.41    5.54
   9   7 -13    0.55    7.82
  -9  -7  13   -1.10    8.39
   9   6 -13    6.57    6.83
   9   6 -13    4.71    5.16
  -9  -6  13  -13.10    7.35
  -9  -6  13    1.02    4.95
   9   5 -13    3.84    5.00
   9   5 -13   -3.47    7.28
  -9  -5  13   -0.68    7.44
  -9  -5  13    0.93    4.41
   9   4 -13   44.39   13.96
  -4   9 -13   27.19   17.51
   9   4 -13   41.69   17.41
  -9  -4  13   35.79   17.97
  -9  -4  13   17.23   13.70
  -3   9 -13    2.62    5.05
   9   3 -13    1.43    4.39
   9   3 -13    0.92    7.07
  -9  -3  13    1.67    7.83
   9   2 -13   16.97    6.94
  -2   9 -13   15.29    8.07
   9   2 -13   18.13    9.40
  -9  -2  13    2.07    9.83
   9   1 -13   -2.04    4.58
  -9  -1 -13   -0.47    3.57
   9   1 -13    1.98    6.47
  -1   9 -13   -2.25    4.40
   9   1  13    4.23    5.02
  -9  -1  13   -5.03    6.97
   9   0 -13   13.71   11.64
  -9   0 -13   -0.45    8.19
   9   0 -13   25.24    9.58
   9   0 -13   15.64    9.66
   0   9 -13   17.68    9.47
   9   0  13   29.17   10.04
   9   0  13   32.07   10.39
  -9   0  13   11.96   11.79
   1   9 -13   -3.97    4.93
   9  -1 -13   -4.83    6.69
  -9   1 -13   -1.75    3.22
   9  -1 -13    3.13    6.93
   9  -1  13   -3.70    6.74
  -1  -9  13   -1.67    4.28
   9  -1  13   -2.45    5.05
   2   9 -13   18.79    8.00
   2   9 -13   22.67    8.47
  -9   2 -13    7.62    7.02
   9  -2  13    8.84    8.35
   9  -2  13   18.87   10.48
  -2  -9  13    9.01    7.52
   3   9 -13    2.47    6.45
  -9   3 -13    1.19    5.27
  -9   3 -13   -0.40    4.84
   3   9 -13    5.65    6.26
   9  -3  13   34.37    7.20
  -3  -9  13   12.09    5.79
  -9   4 -13   37.23   15.59
  -9   4 -13   26.46   16.03
   4   9 -13   37.69   16.76
   4   9 -13   26.70   15.95
   9  -4  13   42.03   16.70
   9  -4  13   39.65   20.25
  -4  -9  13   36.17   15.15
  -9   5 -13   -2.05    4.43
  -9   5 -13   -0.62    4.09
   5   9 -13   21.54    6.92
   9  -5  13   -2.00    8.54
   9  -5  13   -1.69    5.34
   6   9 -13   -2.07    6.90
  -9   6 -13    0.43    4.44
  -9   6 -13    0.68    3.97
   9  -6  13   -1.68    5.36
   9  -6  13   -3.80    8.61
  -9   7 -13    2.31    4.56
  -9   7 -13    4.16    4.86
   9  -7  13    3.62    9.04
   9  -7  13   -1.31    5.78
  -9   8 -13   -1.75    5.24
   8   9 -13    0.67    6.76
   9  -8  13    3.99    6.01
  -8  -9  13  -25.37    6.45
   9   9 -13   -4.18    6.73
   9   9 -13   -4.61    9.32
  -9  -9  13   11.86    6.68
  10   9 -13    5.61   10.10
  10   9 -13   -7.99    7.32
 -10  -9  13   -5.48    7.12
  10   8 -13   -2.58    6.97
  10   8 -13    3.29    9.95
 -10  -8  13    1.38    6.94
 -10  -8  13   32.59    9.89
  10   6 -13    8.45    6.57
  10   6 -13   14.50    9.28
 -10  -6  13    9.49    9.72
  10   5 -13   18.76    9.13
  10   5 -13    6.79    6.63
 -10  -5  13   12.78    9.49
 -10  -5  13    7.42    6.57
  10   4 -13    4.39    4.58
  10   4 -13    6.77    7.26
 -10  -4  13   -1.07    7.69
 -10  -4  13    3.30    5.14
  10   3 -13   13.98    7.80
  10   3 -13    8.21   10.57
 -10  -3  13   20.24   11.53
 -10  -3  13   17.20    8.31
  10   2 -13   -1.54    4.42
  10   2 -13   -1.95    6.83
 -10  -2  13    5.89    7.38
  10   1 -13   -5.19    7.12
 -10  -1 -13    1.03    3.48
  10   1 -13   -4.20    4.90
 -10  -1  13   -8.03    7.89
  10   1  13    0.64    5.50
  10   1  13   -1.09    5.30
  10   0 -13   -3.00    5.79
  10   0 -13  -10.92    7.07
 -10   0 -13   -3.49    3.67
 -10   0  13   -4.91    7.37
  10   0  13   -1.18    6.20
  10   0  13   -2.39    5.79
  10  -1 -13   -2.46    6.67
 -10   1 -13   -3.89    4.53
  10  -1 -13   -8.52    6.45
  10  -1  13    7.46    6.93
  10  -1  13   -0.54    5.35
 -10   2 -13    0.48    4.13
  10  -2  13   -0.52    5.91
  10  -2  13    0.92    8.00
 -10   3 -13   29.37    9.99
 -10   3 -13    9.48   10.75
  10  -3  13   28.12   11.17
  10  -3  13   23.62   13.96
 -10   4 -13    3.43    4.62
 -10   4 -13    5.00    4.69
  10  -4  13    6.00    5.96
  10  -4  13    0.53    9.69
 -10   5 -13    4.90    6.83
 -10   5 -13   15.79    6.89
  10  -5  13    6.20    7.87
  10  -5  13   25.10   11.55
 -10   6 -13    3.42    6.44
 -10   6 -13    6.73    6.10
  10  -6  13    8.34   10.24
  10  -6  13   14.59    7.05
 -10   7 -13    3.08    5.14
 -10   7 -13   -1.66    4.41
   7  10 -13  -10.00    8.91
  10  -7  13   -1.29    9.47
  -7 -10  13   -0.77    6.44
  10  -7  13    2.91    5.60
 -10   8 -13    0.53    6.09
   8  10 -13  -13.58    9.56
 -10   8 -13    3.67    5.37
  -8 -10  13   12.04    7.41
  10  -8  13   15.52    7.17
   9  10 -13    3.00   10.35
  10  -9  13    4.45    6.33
  -9 -10  13    4.22    7.29
  10  10 -13  -35.47   14.30
 -10 -10  13   -8.87   10.02
  11  10 -13   -1.71   12.50
  11   9 -13   -7.58    8.23
  11   9 -13   -5.29   10.87
 -11  -9  13    4.13    7.51
 -11  -9  13   14.75   11.14
  11   8 -13   -3.49   10.37
  11   8 -13    6.08    7.37
 -11  -8  13   -2.19    6.62
 -11  -8  13  -25.28   10.39
  11   7 -13   47.44    9.73
  11   7 -13   -9.65    7.81
 -11  -7  13   -1.94    7.29
  11   5 -13    1.63    7.92
  11   5 -13    6.70    5.48
 -11  -5  13    0.53    3.74
 -11  -5  13    3.89    8.71
  11   4 -13    4.19    8.48
  11   4 -13    6.35    5.72
 -11  -4  13   15.68    9.26
 -11  -4  13    5.02    6.10
  11   3 -13    2.43    4.76
  11   3 -13   -1.51    7.19
 -11  -3  13   -1.91    8.06
 -11  -3  13    3.44    5.41
  11   2 -13    7.16    7.58
  11   2 -13   -0.80    5.44
 -11  -2  13   -0.78    8.67
  11   2  13   21.96    6.83
  11   1 -13    2.16    5.15
 -11  -1 -13   -0.56    3.96
  11   1 -13    5.42    7.20
  11   1  13   -9.01    6.89
 -11  -1  13   -1.22    8.30
  11   1  13    0.40    6.21
  11   0 -13    3.95    6.12
  11   0 -13   12.61    7.84
 -11   0 -13   -1.10    4.32
 -11   0  13    3.48    8.13
  11   0  13    5.85    6.69
  11   0  13    7.03    7.48
  11  -1 -13   -1.21    6.97
  11  -1 -13   -1.83    7.41
 -11   1 -13    0.54    4.47
  11  -1  13   -1.79    5.72
  11  -1  13    6.02    7.71
 -11   2 -13   -2.14    4.88
  11  -2  13    1.74    6.47
  11  -2  13    3.09    8.91
 -11   3 -13    2.55    4.64
 -11   3 -13    3.82    5.31
  11  -3  13   -0.55    6.21
  11  -3  13    9.56    9.94
 -11   4 -13    3.10    5.95
 -11   4 -13    8.75    6.05
  11  -4  13    9.29    7.19
  11  -4  13   10.07   11.14
 -11   5 -13   -3.13    5.46
 -11   5 -13    2.37    5.21
  11  -5  13   13.63   10.61
  11  -5  13    2.14    6.52
 -11   6 -13   -0.54    5.61
 -11   6 -13   -0.83    5.26
  11  -6  13    4.58   10.54
  11  -6  13   -0.55    6.63
 -11   7 -13    1.81    4.85
 -11   7 -13    1.71    6.24
  11  -7  13   -0.53    6.89
  12  10 -13   -0.91   13.68
  12   9 -13   42.14   14.62
  12   9 -13    1.58    9.12
 -12  -9  13  -10.47   10.19
 -12  -9  13   16.29   13.65
  12   8 -13   -4.25    7.34
  12   8 -13    0.74   11.06
 -12  -8  13  -10.90   11.17
 -12  -8  13   -2.32    7.07
  12   7 -13    2.53    7.44
  12   7 -13    3.96   10.61
 -12  -7  13   12.97   11.18
 -12  -7  13    0.69    6.91
  12   6 -13    8.00    7.12
 -12  -6  13    3.08    6.85
  12   4 -13  -19.03   10.25
  12   4 -13    3.14    5.85
 -12  -4  13  -29.52   11.65
  12   3 -13   -0.85    4.97
  12   3 -13   -2.10    7.41
 -12  -3  13   -6.09    8.33
 -12  -3  13    8.30    5.79
  12   2 -13    1.07    7.57
  12   2 -13   -1.67    5.03
  12   2  13   -2.20    6.38
 -12  -2  13   -2.49    8.46
  12   1 -13    4.41    5.42
  12   1 -13    3.40    7.79
 -12  -1  13    4.33    8.40
  12   0 -13    0.50    6.11
  12   0 -13   -0.63    8.07
 -12   0  13   11.08    8.56
  12  -1 -13   -1.80    7.64
  12  -6  13    8.63   11.88
 -12   7 -13   -4.97    6.25
 -12   7 -13   -0.99    6.14
  12  -7  13   10.50   12.11
 -12   8 -13   -5.27    5.81
 -12   8 -13    1.27    6.66
  12  -8  13    3.56    7.26
  12  -8  13   -8.89   11.51
 -12   9 -13    9.61   10.63
  12  -9  13   33.91   11.42
  13  10 -13   32.77   19.29
 -13 -10  13   22.12   18.38
  13   9 -13   -4.10    8.13
  13   9 -13  -11.51   13.74
 -13  -9  13   -1.84    8.05
 -13  -9  13    9.91   13.06
  13   8 -13   -5.17    8.09
  13   8 -13    3.12   12.27
 -13  -8  13   -1.64    7.69
 -13  -8  13    5.91   11.89
  13   7 -13   12.36   11.26
  13   7 -13    3.98    7.12
 -13  -7  13   -4.94   11.25
 -13  -7  13   -2.91    7.36
  13   6 -13  -31.67   10.85
  13   6 -13    0.60    6.61
 -13  -6  13    9.70   10.56
 -13  -6  13   -1.31    6.58
  13   5 -13   -0.53    6.17
 -13  -5  13   -1.80    6.09
  13   3 -13   -5.48    8.61
 -13  -3  13   11.19    9.20
 -13  -2 -13   -2.77    4.83
  13   2 -13   -4.47    8.25
  13   2 -13    9.14    5.46
  13   2  13   -4.39    7.16
 -13  -2  13   17.06    6.05
 -13  -2  13   -5.26    9.28
 -13  -1 -13    1.36    4.90
  13   1 -13    2.96    8.21
  13   1 -13    1.35    5.46
  13   1  13   -6.52    8.22
  13   1  13   -9.39    8.67
 -13  -1  13   -6.42    8.48
  13   0 -13   -3.47    6.42
 -13   0 -13   -4.71    6.18
  13   0  13  -14.86    7.76
  13   0  13   -4.33    9.53
 -13   0  13   -9.79    9.92
 -13   1 -13    5.36    5.62
  13  -1  13    4.38    7.63
  13  -1  13  -10.19   10.32
 -13   2 -13   -1.34    5.94
 -13   2 -13    2.88    6.72
  13  -2 -13   -5.64    9.28
  13  -2  13  -31.14   11.77
  13  -2  13   20.14    7.91
 -13   3 -13    3.84    7.01
 -13   3 -13    5.36    6.83
  13  -3  13   -8.86    8.31
  13  -3  13   26.43   13.27
 -13   4 -13    9.83    7.08
 -13   4 -13   -3.90    6.90
  13  -4  13    7.36   13.08
  13  -4  13   10.20    8.24
 -13   5 -13    5.97    5.94
 -13   5 -13   -1.99    6.65
  13  -5  13  -13.65   12.12
  13  -5  13   -2.63    8.08
 -13   6 -13   -1.03    6.67
 -13   6 -13   -4.67    7.10
  13  -6  13   -4.01    8.00
  13  -6  13   -2.37   12.71
 -13   7 -13    5.45    6.98
 -13   7 -13    8.74    6.40
  13  -7  13  -15.46    8.05
  13  -7  13   -0.82   12.05
 -13   8 -13   -0.70    7.38
 -13   8 -13   -3.44    6.28
  13  -8  13   16.13    8.02
  13  -8  13    0.87   12.76
 -13   9 -13   -4.87    7.48
  13  -9  13  -12.91    8.71
  13 -10  13   15.65   11.65
  14  10 -13    3.21   16.01
 -14 -10  13    0.69   16.22
  14   9 -13  -26.05   15.67
 -14  -9  13    0.62   14.21
 -14  -9  13    4.81    8.09
  14   8 -13   -4.89   13.72
  14   8 -13   -4.61    8.56
 -14  -8  13    4.32    8.14
 -14  -8  13   -0.57   12.95
  14   7 -13   -4.84    8.01
  14   7 -13    3.76   12.14
 -14  -7  13  -22.54   12.48
 -14  -7  13   -1.55    7.88
  14   6 -13    1.33   10.75
  14   6 -13    6.90    7.26
 -14  -6  13  -13.21    7.77
 -14  -6  13  -38.08   11.88
  14   5 -13   -2.48    9.05
  14   5 -13   -2.22    6.24
 -14  -5  13    2.55    6.44
 -14  -5  13    3.72   10.70
 -14  -4  13    0.59    6.14
 -14  -2 -13   -5.31    5.54
  14   2  13   -0.57    9.46
 -14  -1 -13   -4.50    5.53
  14   1  13    0.58   10.11
  14   1  13  -16.90    9.45
 -14   0 -13    2.98    5.92
  14   0  13    4.30    8.35
  14   0  13    7.56   10.72
 -14   1 -13   -2.24    6.96
  14  -1  13  -13.94   12.06
  14  -1  13  -15.33    8.34
 -14   2 -13    5.32    7.62
 -14   2 -13    3.74    6.66
  14  -2  13   -4.79    8.28
  14  -2  13   21.76   12.53
 -14   3 -13   -4.28    8.22
 -14   3 -13    5.25    7.56
  14  -3  13   10.63    8.71
  14  -3  13    8.46   13.33
 -14   4 -13    1.10    6.86
 -14   4 -13    4.37    6.76
  14  -4  13  -19.47   13.47
  14  -4  13   12.07    8.47
 -14   5 -13   -5.58    7.31
 -14   5 -13    8.83    6.95
  14  -5  13   36.78   14.37
  14  -5  13   -5.79    8.72
 -14   6 -13    3.46    7.61
 -14   6 -13   11.03    8.13
  14  -6  13   10.28    8.81
  14  -6  13    7.82   14.13
 -14   7 -13    1.21    7.15
 -14   7 -13   -2.24    7.93
  14  -7  13   -3.66    8.92
  14  -7  13  -18.77   12.83
 -14   8 -13    1.26    6.55
 -14   8 -13    6.75    7.83
  14  -8  13   12.62    8.82
  14  -8  13   -7.53   13.76
 -14   9 -13    0.75    7.88
  14  -9  13    0.70    7.85
 -14  10 -13   -0.75    7.40
  14 -10  13    0.69    8.42
 -15 -10  13    5.16   17.27
 -15  -2 -13   -1.67    7.33
  15   2  13   28.86   11.44
 -15  -1 -13    3.31    6.21
  15   1  13  -11.50   11.10
  15   1  13  -13.61    9.88
 -15   0 -13    0.83    6.57
  15   0  13    2.84    9.57
  15   0  13   18.83   12.25
 -15   1 -13  -11.62    7.27
  15  -1  13    3.57    8.53
  15  -1  13    8.81   12.44
 -15   2 -13   -7.52    7.79
 -15   2 -13    8.24    9.37
  15  -2  13   36.81   14.56
  15  -2  13   -0.88    9.61
 -15   3 -13    5.86    8.32
 -15   3 -13   -3.66    9.53
  15  -3  13  -18.53   11.21
  15  -3  13  -47.40   17.62
 -15   4 -13   14.61    9.31
 -15   4 -13   -1.23    9.54
  15  -4  13   47.21   17.88
  15  -4  13    0.83   11.26
 -15   5 -13   -1.26    7.90
 -15   5 -13    4.88    7.98
  15  -5  13   -5.02    9.95
  15  -5  13  -11.03   13.90
 -15   6 -13   -1.29    8.00
 -15   6 -13    0.82    8.72
  15  -6  13   -0.95   15.69
  15  -6  13    3.21    9.23
 -15   7 -13   -1.35    8.01
 -15   7 -13    1.63    9.02
  15  -7  13   25.63    9.92
  15  -7  13    4.89   14.79
 -15   8 -13   -7.35    9.10
 -15   8 -13   -2.77    7.60
  15  -8  13    6.34    9.00
  15  -8  13  -16.37   15.15
 -15   9 -13    1.43    6.33
 -15   9 -13    5.68    8.44
  15  -9  13  -13.56   10.15
 -15  10 -13   -8.09    9.03
  15 -10  13  -13.44    8.51
 -16  -2 -13    3.67    6.64
  16   2  13   12.51   11.26
 -16  -1 -13    3.66    6.51
  16   1  13  -23.43   10.90
  16   1  13   -8.93   12.51
 -16   0 -13    5.50    7.94
  16   0  13   20.83   13.64
  16   0  13    3.12   10.95
 -16   1 -13   16.60    9.11
 -16   1 -13   -7.70    9.97
  16  -1  13   22.58   15.03
  16  -1  13   28.56   11.33
 -16   2 -13    0.93    7.92
 -16   2 -13  -20.86   10.01
  16  -2  13   15.68   10.50
  16  -2  13  -18.54   15.13
 -16   3 -13   -1.35    8.76
 -16   3 -13    0.93    7.94
  16  -3  13   22.36   10.10
  16  -3  13  -12.08   14.06
 -16   4 -13    6.31    8.49
 -16   4 -13   -4.13    9.55
  16  -4  13   27.68   10.76
  16  -4  13   -5.85   16.22
 -16   5 -13    1.80    8.75
 -16   5 -13   -2.83    9.06
  16  -5  13   -3.02   16.45
  16  -5  13  -33.88   10.78
 -16   6 -13   -0.90    8.79
 -16   6 -13    8.66    8.97
  16  -6  13   -1.74   10.13
  16  -6  13    9.41   15.85
 -16   7 -13    5.99    8.42
 -16   7 -13    9.77    8.86
  16  -7  13  -16.57   10.87
  16  -7  13   -4.29   15.65
 -16   8 -13  -10.64   11.12
 -16   8 -13    3.06    9.02
  16  -8  13  -65.86   19.81
  16  -8  13   -6.03   11.79
 -16   9 -13   -4.71    7.72
 -16   9 -13    2.64    9.12
  16  -9  13    8.16    9.10
 -16  10 -13   -4.38    8.67
  16 -10  13   -2.41    9.30
 -17  -2 -13    2.02    7.99
  17   2  13    5.40   12.59
 -17  -1 -13    3.03    7.06
  17   1  13    9.36   10.77
  17   1  13   -1.65   14.23
 -17   0 -13    4.07    7.74
  17   0  13   -8.55   14.94
  17   0  13   10.32   11.17
 -17   1 -13  -12.30    8.28
 -17   1 -13    1.41    9.79
  17  -1  13  -17.50   16.80
  17  -1  13    5.43   10.79
 -17   2 -13    4.32   11.07
 -17   2 -13   13.45   10.18
  17  -2  13   31.11   17.31
  17  -2  13   10.81   12.48
 -17   3 -13   12.48    9.28
 -17   3 -13    6.01    9.89
  17  -3  13  -27.79   16.51
  17  -3  13  -20.44   10.89
 -17   4 -13    4.60    9.73
 -17   4 -13    2.08    9.38
  17  -4  13  -12.80   17.59
  17  -4  13  -34.64   12.98
 -17   5 -13   -6.32   23.58
 -17   5 -13    6.98   22.23
  17  -5  13   83.33   24.79
 -17   6 -13  -11.30   10.88
 -17   6 -13   -7.93   10.85
  17  -6  13   -2.29   19.43
  17  -6  13   -4.99   10.81
 -17   7 -13   13.81    9.98
 -17   7 -13   -1.67    8.87
  17  -7  13   -6.62   10.81
  17  -7  13   -3.52   16.58
 -17   8 -13   -5.77    9.71
 -17   8 -13   -3.40    9.90
  17  -8  13   13.10   11.29
  17  -8  13   36.61   17.98
 -17   9 -13   12.11    8.96
 -17   9 -13    5.72    8.88
  17  -9  13  -13.79   10.24
 -18  -2 -13    3.35    7.95
  18   2  13    7.20   14.75
 -18  -1 -13   -3.36    7.95
  18   1  13    3.86   11.49
  18   1  13    2.75   16.01
 -18   0 -13    9.19   11.32
 -18   0 -13  -13.55    8.14
  18   0  13    7.81   16.94
  18   0  13  -22.76   13.42
 -18   1 -13   -6.83   10.01
 -18   1 -13   -1.56   11.27
  18  -1  13    6.11   17.50
  18  -1  13   19.21   12.26
 -18   2 -13   -5.75   10.88
 -18   2 -13   16.28   11.50
  18  -2  13   -5.96   11.83
  18  -2  13   -7.48   16.69
 -18   3 -13   -8.34   11.13
 -18   3 -13   -8.09   10.25
  18  -3  13    4.50   18.77
  18  -3  13   -1.18   12.30
 -18   4 -13   -1.71   10.70
 -18   4 -13    8.06   10.29
  18  -4  13    4.48   11.64
  18  -4  13    5.83   18.73
 -18   5 -13    4.41   10.64
 -18   5 -13   -3.53   12.38
  18  -5  13   -7.71   11.88
  18  -5  13  -37.80   20.21
 -18   6 -13    9.03   10.60
 -18   6 -13    4.36   10.08
  18  -6  13    1.09   11.75
  18  -6  13  -45.11   17.33
 -18   7 -13    1.86   10.24
 -18   7 -13   11.85   10.17
  18  -7  13   -5.19   18.12
  18  -7  13   -2.05   11.51
 -18   8 -13   15.12   10.48
 -18   8 -13   -9.42   10.79
  18  -8  13  -32.07   20.50
  18  -8  13   -9.13   11.60
 -18   9 -13    1.03   10.02
 -19  -2 -13   -3.71    9.22
 -19  -1 -13    1.24    9.22
 -19  -1 -13    1.68   12.61
  19   1  13  -25.56   14.96
 -19   0 -13    8.78    9.98
 -19   0 -13   11.84   12.61
  19   0  13    9.72   18.86
  19   0  13   -5.59   14.92
 -19   1 -13    2.53    9.87
 -19   1 -13  -29.26   14.17
  19  -1  13   13.25   13.80
  19  -1  13  -14.64   18.59
 -19   2 -13   -1.28   11.53
 -19   2 -13   23.41   12.28
  19  -2  13    1.31   13.76
  19  -2  13  -18.97   18.85
 -19   3 -13   -5.56   11.91
 -19   3 -13    7.70   11.73
  19  -3  13    2.60   13.32
 -19   4 -13  -11.49   12.21
 -19   4 -13   -1.92   10.69
  19  -4  13   -1.28   16.46
  19  -4  13    1.23   13.17
 -19   5 -13   -8.52   11.41
   0   0 -14    6.83    4.58
   0   1 -14    0.31    3.08
   1   0 -14    1.56    3.56
   0   1 -14    1.26    4.86
   0  -1  14   -0.81    4.49
   1   1 -14    6.98    6.53
  -1   1 -14   10.77    4.82
   1   1 -14    6.87    4.96
  -1   1 -14    8.36    6.69
  -1  -1  14    5.63    5.90
   1  -1  14   10.82    6.19
  -1   2 -14   15.95    7.04
  -1   2 -14    5.60    5.49
   2   1 -14   11.85    6.23
   2   1 -14    3.71    6.94
   1  -2  14   23.11    6.69
  -2  -1  14   14.13    6.91
   0   2 -14    6.77    4.40
   2   0 -14    1.26    5.21
   0   2 -14    1.04    5.64
   0  -2  14    8.91    4.73
  -2   0  14    7.83    6.25
   0  -2  14   17.29    5.96
  -2   1 -14    6.55    5.09
   1   2 -14    5.32    6.36
   1   2 -14    3.32    4.84
  -1  -2  14   10.84    6.35
   2  -1  14    4.95    5.42
   2  -1  14   27.58    7.35
   2   2 -14   -1.83    4.63
  -2   2 -14  -11.69    5.53
  -2   2 -14   -0.23    2.94
   2   2 -14   -2.93    3.42
  -2  -2  14   -2.95    4.56
   2  -2  14   -1.34    4.75
   2  -2  14   -2.47    3.12
   3   2 -14    0.76    4.53
   3   2 -14   -0.31    3.08
  -2   3 -14    0.21    2.46
  -2   3 -14    4.18    4.48
   2  -3  14    0.38    3.93
  -3  -2  14    0.26    4.61
   2  -3  14    2.49    3.08
  -1   3 -14    0.22    2.45
   3   1 -14   -2.21    3.54
   3   1 -14   -0.42    5.10
  -1   3 -14    4.02    4.19
  -3  -1  14    3.36    4.56
   1  -3  14   -1.33    2.19
   1  -3  14    0.39    3.92
   3   0 -14   -2.20    4.15
   3   0 -14   -2.99    5.28
   0   3 -14   -1.93    4.12
   0   3 -14   -2.35    2.82
  -3   0  14    9.08    5.05
   0  -3  14   -6.66    4.00
  -3   1 -14    0.24    2.84
   1   3 -14    0.25    2.69
   1   3 -14    3.36    4.21
  -1  -3  14   -1.32    4.29
   2   3 -14    2.11    2.90
  -3   2 -14   -0.42    2.43
   2   3 -14    1.76    4.62
  -3   2 -14    4.12    5.13
   3  -2  14   -0.61    2.96
  -2  -3  14    1.64    4.51
   3  -2  14   -0.23    4.69
  -3   3 -14   11.42    3.72
  -3   3 -14    0.42    3.42
   3   3 -14    7.03    5.87
   3   3 -14    3.91    3.94
  -3   3 -14    9.18    5.36
  -3  -3  14   13.41    5.85
   3  -3  14    5.60    4.93
   3  -3  14    7.05    4.44
   3  -3  14    7.08    4.95
  -3   4 -14   10.23    5.86
  -3   4 -14    4.32    3.80
   4   3 -14    4.67    6.40
  -3   4 -14    5.53    3.90
  -3   4 -14   15.03    4.29
   3  -4  14    9.01    3.87
  -4  -3  14    5.01    6.22
   3  -4  14   11.96    5.46
   3  -4  14    6.58    5.76
   3  -4  14    8.97    4.65
  -2   4 -14    2.53    4.28
  -2   4 -14    0.85    2.39
   4   2 -14    1.19    4.80
   2  -4  14   -0.35    2.30
   2  -4  14    8.34    3.89
   2  -4  14    0.35    3.72
   2  -4  14    0.90    2.28
  -4  -2  14   -5.73    4.79
   4   1 -14    9.08    7.72
  -1   4 -14   14.58    7.20
  -1   4 -14   14.65    5.53
  -4  -1  14    1.75    7.53
   1  -4  14   12.40    6.95
   4   0 -14    2.00    5.39
   0   4 -14   -0.48    2.80
   0   4 -14   -1.26    4.16
   0  -4  14   -3.29    4.50
  -4   0  14   -3.62    4.92
   1   4 -14   11.57    7.74
  -4   1 -14    4.40    6.86
   1   4 -14   16.57    6.09
  -1  -4  14   19.87    7.62
   4  -1  14   14.70    7.59
   2   4 -14   -1.33    2.96
  -4   2 -14    0.19    2.34
   2   4 -14    2.09    4.68
  -2  -4  14   -2.55    4.70
   3   4 -14    8.39    4.20
  -4   3 -14    6.11    3.95
   3   4 -14   11.36    6.18
  -3  -4  14    2.70    6.05
   4   4 -14   16.26    5.94
  -4   4 -14    8.01    5.91
  -4   4 -14   16.31    7.52
   4   4 -14   16.58    8.00
   4  -4  14    4.84    7.06
   4  -4  14   12.86    5.30
  -4  -4  14   15.12    7.79
   5   4 -14   10.14    6.01
   5   4 -14    1.25    4.00
  -4   5 -14    4.97    3.69
  -4   5 -14    4.65    4.97
  -5  -4  14    9.43    6.05
   4  -5  14    4.79    3.15
   4  -5  14    4.33    4.75
   5   3 -14   23.73    6.96
  -3   5 -14   22.03    8.78
   5   3 -14   15.11    8.88
  -3   5 -14   10.61    6.98
   3  -5  14   12.12    8.13
   3  -5  14   12.75    6.27
  -5  -3  14   14.29    8.94
   5   2 -14   13.13    5.38
   5   2 -14    5.41    7.02
  -2   5 -14   14.14    6.52
  -2   5 -14   11.32    5.16
   2  -5  14    5.56    6.48
  -5  -2  14    1.74    6.97
   2  -5  14   13.30    4.53
  -1   5 -14   33.26   14.82
   5   1 -14   30.71   12.57
  -1   5 -14   27.49   12.20
   5   1 -14   19.69   14.75
   1  -5  14   25.08   11.03
  -5  -1  14   19.60   14.83
   1  -5  14   26.20   14.32
   5   0 -14    2.55    5.87
   0   5 -14   -0.27    2.84
   0   5 -14    8.58    4.41
   5   0 -14    0.49    4.87
   0  -5  14   -5.84    4.60
  -5   0  14    2.03    5.23
   0  -5  14    1.94    2.53
   5   0  14    0.63    3.20
   1   5 -14   28.64   15.22
   1   5 -14   32.53   12.81
   5  -1  14   25.33   16.20
  -1  -5  14   34.30   11.99
  -1  -5  14   29.31   14.88
   2   5 -14   15.23    6.73
   2   5 -14   12.33    5.02
  -5   2 -14    0.29    4.89
   5  -2  14    7.86    6.75
  -2  -5  14   13.76    6.56
  -2  -5  14   11.03    4.79
   5  -2  14    7.24    5.88
  -5   3 -14    8.09    5.96
   3   5 -14   13.85    6.20
   3   5 -14   11.42    7.87
  -3  -5  14   18.75    7.94
   5  -3  14    7.18    6.94
  -3  -5  14   11.40    5.82
   5  -3  14   13.48    8.50
   4   5 -14    5.67    5.48
  -5   4 -14    4.84    3.27
  -5   4 -14    6.18    3.08
   4   5 -14    4.86    3.95
  -5   4 -14    2.33    3.21
  -4  -5  14    2.86    3.77
   5  -4  14    8.17    2.82
   5  -4  14    6.40    3.91
   5  -4  14    7.56    5.95
  -4  -5  14   -1.83    5.78
  -5   5 -14   10.64    8.31
  -5   5 -14   30.62    8.14
  -5   5 -14   14.87   10.28
   5   5 -14   21.56   10.31
  -5   5 -14   10.05    8.62
   5  -5  14   17.31   11.04
   5  -5  14   18.83    8.83
  -5  -5  14   23.65   10.36
   6   5 -14   -7.13    6.30
   6   5 -14    1.44    3.78
  -6  -5  14   -1.62    3.76
  -6  -5  14   -7.73    5.88
   6   4 -14   13.57    6.36
   6   4 -14   18.78    8.79
  -4   6 -14   14.61    8.38
  -4   6 -14   13.65    6.81
   4  -6  14    4.88    8.03
   4  -6  14    7.29    6.03
  -6  -4  14   10.97    6.34
  -6  -4  14   16.00    8.75
   6   3 -14   15.46   10.86
  -3   6 -14   16.53    9.24
  -3   6 -14   18.22   11.05
   6   3 -14   21.41    8.56
   3  -6  14   25.67   10.75
  -6  -3  14   18.76   11.27
   3  -6  14   15.92    8.17
  -2   6 -14   15.20    7.40
   6   2 -14    8.13    6.03
  -2   6 -14   13.89    6.01
   6   2 -14   15.24    7.91
   2  -6  14   11.22    7.19
   2  -6  14   11.17    5.32
  -6  -2  14    2.46    8.08
   6   1 -14    4.66    6.23
   6   1 -14    7.07    4.92
  -1   6 -14    2.71    4.90
  -1   6 -14    5.61    3.76
   1  -6  14    6.41    4.90
   1  -6  14    2.97    3.35
  -6  -1  14   -0.65    6.27
   0   6 -14    2.21    5.91
   6   0 -14    6.67    5.99
   6   0 -14   11.01    7.27
   0   6 -14   10.03    4.72
   0  -6  14    8.41    4.24
  -6   0  14    1.76    6.87
   6   0  14    5.39    5.20
   0  -6  14   13.90    5.82
   1   6 -14    9.41    3.99
   1   6 -14    0.66    5.12
  -6   1 -14    0.34    3.00
   6  -1  14    5.08    4.85
  -1  -6  14    5.90    3.67
  -1  -6  14    6.42    5.04
   6  -1  14    7.12    4.94
   2   6 -14   17.84    6.36
   2   6 -14   22.69    7.72
  -6   2 -14    3.80    5.89
   6  -2  14   10.42    7.20
   6  -2  14   12.40    8.25
  -2  -6  14   12.09    5.75
  -2  -6  14   10.95    7.43
  -6   3 -14   13.22    9.00
   3   6 -14   18.23    9.23
   3   6 -14   26.12   10.87
   6  -3  14   14.39   12.03
   6  -3  14   17.33    9.83
  -3  -6  14   27.09   10.45
  -3  -6  14   23.35    8.58
  -6   4 -14   21.74    7.00
   4   6 -14   15.23    7.58
  -6   4 -14   16.05    7.37
   4   6 -14   23.73    8.98
  -4  -6  14   21.93    8.89
   6  -4  14    5.51    9.89
   6  -4  14   12.50    7.77
  -4  -6  14   13.13    7.02
   5   6 -14    7.84    5.56
  -6   5 -14    1.83    2.70
  -6   5 -14   -1.74    2.75
   6  -5  14   -0.36    6.16
   6  -5  14    1.09    3.55
  -5  -6  14    3.63    5.73
   6   6 -14   10.46    5.13
   6   6 -14   12.31    6.77
  -6  -6  14    7.83    4.78
   6  -6  14    3.42    7.33
  -6  -6  14    3.28    6.81
   6  -6  14    0.82    4.30
   7   6 -14   -3.52    5.05
   7   6 -14    5.17    6.51
  -7  -6  14   -4.63    4.51
  -7  -6  14   -6.72    7.09
   7   5 -14   17.93    8.29
   7   5 -14    9.90    5.53
  -7  -5  14   -3.49    8.56
  -7  -5  14    5.61    5.45
  -4   7 -14   10.16    5.22
   7   4 -14    3.14    6.71
  -4   7 -14    4.23    4.65
   7   4 -14    1.76    4.37
  -7  -4  14    8.82    6.93
   4  -7  14   10.89    4.50
  -7  -4  14    3.75    4.70
  -3   7 -14   11.52    9.85
   7   3 -14   18.03   10.42
   7   3 -14   29.89    7.87
  -3   7 -14   16.96    8.60
  -7  -3  14    6.01   10.75
   3  -7  14   14.73    7.74
  -2   7 -14    8.27    5.48
   7   2 -14    8.51    5.51
  -2   7 -14   10.63    6.30
   7   2 -14    8.22    7.69
   2  -7  14   11.34    4.92
  -7  -2  14    4.25    7.57
  -1   7 -14   21.75   10.17
   7   1 -14   20.42   12.38
   7   1 -14   21.16   10.12
  -1   7 -14   30.64   11.63
  -7  -1  14   10.25   12.76
   1  -7  14   17.21    9.10
   0   7 -14    0.31    4.61
   7   0 -14   -1.59    5.62
   7   0 -14   -1.63    6.26
   0   7 -14   -1.17    3.92
  -7   0  14   -4.06    5.88
   0  -7  14    6.99    3.30
   7   0  14   -1.58    3.81
   1   7 -14   28.09   12.29
  -7   1 -14    0.75   10.78
   1   7 -14   25.74   11.20
   7  -1  14   27.54   13.41
  -1  -7  14   31.25   10.31
   7  -1  14   41.98   12.45
  -7   2 -14    5.26    4.76
   2   7 -14   14.12    5.74
   2   7 -14    4.87    6.49
  -2  -7  14    8.75    5.08
   7  -2  14   16.11    7.53
   7  -2  14    7.01    6.10
   3   7 -14   16.53    9.75
  -7   3 -14   12.59    8.42
   3   7 -14   26.95    8.99
   7  -3  14   16.32   11.63
  -3  -7  14   26.26    8.37
   7  -3  14   17.69    9.44
   4   7 -14    0.78    5.71
  -7   4 -14    5.82    3.56
   4   7 -14    2.15    4.88
  -7   4 -14    5.92    3.98
   7  -4  14    2.98    7.09
  -4  -7  14    5.70    4.58
   7  -4  14    5.24    4.46
  -7   5 -14   18.62    5.86
   5   7 -14    2.92    8.40
  -7   5 -14   16.22    5.87
   7  -5  14   14.28    6.60
   7  -5  14    6.89    9.17
  -5  -7  14    5.51    7.90
  -7   6 -14    2.60    3.48
   6   7 -14   -7.05    7.06
   6   7 -14   -8.90    5.68
  -7   6 -14    2.84    3.46
   7  -6  14    4.45    4.43
   7  -6  14    0.46    6.91
  -6  -7  14   13.62    6.52
  -6  -7  14    0.98    4.46
   7   7 -14   16.67    9.24
   7   7 -14   18.58   10.96
  -7  -7  14   12.93    8.52
  -7  -7  14   19.20   10.84
   8   7 -14    8.57    8.26
  -8  -7  14    7.48    7.96
   8   6 -14   11.12    6.08
   8   6 -14   10.03    7.87
  -8  -6  14    8.00    8.30
  -8  -6  14    7.89    5.88
   8   5 -14   -1.21    4.54
   8   5 -14    7.49    7.15
  -8  -5  14    7.48    7.27
  -8  -5  14   -0.46    4.57
  -4   8 -14   39.18   29.68
   8   4 -14   50.92   27.43
   8   4 -14   49.81   22.21
  -8  -4  14   82.97   28.30
  -8  -4  14   47.07   21.93
   8   3 -14    2.57    4.17
   8   3 -14    1.89    6.74
  -3   8 -14    4.87    4.55
   3  -8  14    2.32    4.29
  -8  -3  14   -8.75    7.36
   8   2 -14   25.35   13.52
   8   2 -14   34.91   11.10
  -2   8 -14   35.03   11.94
  -2   8 -14   22.42   12.97
  -8  -2  14   18.45   14.19
   2  -8  14   23.72   11.07
   8   1 -14    2.23    5.14
  -1   8 -14   -1.37    4.32
  -1   8 -14   -1.25    4.30
   8   1 -14    0.51    6.20
  -8  -1  14   -1.09    6.52
   8   1  14   -1.47    4.52
   1  -8  14  -15.94    3.66
  -8   0 -14   -0.43    6.62
   0   8 -14   15.75    7.93
   0   8 -14   12.91    7.52
   8   0 -14   12.40    9.42
   8   0 -14   24.08    8.47
  -8   0  14    8.54    9.64
   8   0  14   18.49    8.19
   0  -8  14   20.93    6.80
   1   8 -14    0.47    4.45
  -8   1 -14   -0.82    2.92
   8  -1 -14    0.67    6.62
   1   8 -14   12.05    5.13
   8  -1  14    0.97    4.96
  -1  -8  14   -5.01    4.18
   8  -1  14    1.00    5.34
   2   8 -14   15.85   10.59
  -8   2 -14   11.32   10.04
   2   8 -14   24.02   11.48
   8  -2  14   23.64   11.24
  -2  -8  14   19.63    9.69
   8  -2  14   27.87   13.67
   3   8 -14    5.19    5.86
  -8   3 -14    4.49    3.94
   3   8 -14    9.39    5.30
  -3  -8  14    4.85    4.53
   8  -3  14    5.44    4.80
   8  -3  14    6.23    7.55
   4   8 -14   88.88   26.53
  -8   4 -14   48.31   27.13
   4   8 -14   59.49   28.09
  -8   4 -14   52.47   26.05
   8  -4  14   65.32   27.68
  -4  -8  14   52.05   24.83
   8  -4  14   85.18   32.90
  -8   5 -14   -1.41    3.49
  -8   5 -14    1.67    3.81
   5   8 -14   -3.62    5.90
   8  -5  14    3.17    7.94
   8  -5  14   -0.37    4.34
   6   8 -14    9.17    7.15
   6   8 -14    0.55    5.80
  -8   6 -14    3.70    4.41
  -8   6 -14    4.49    4.57
   8  -6  14    3.49    8.16
   8  -6  14    7.67    5.58
  -6  -8  14    3.33    5.44
   7   8 -14    3.10    7.36
   8  -7  14    0.57    8.25
   8  -7  14    1.93    5.43
   9   8 -14   45.42   21.20
  -9  -8  14   68.53   20.60
   9   6 -14   10.26    6.54
   9   6 -14   13.90    9.13
  -9  -6  14    1.58    6.14
  -9  -6  14   19.05    9.47
   9   5 -14    6.42    6.14
   9   5 -14    7.89    9.20
  -9  -5  14    2.44    6.18
  -9  -5  14    5.82    9.60
   9   4 -14    7.20    7.39
  -4   9 -14    0.87    4.36
   9   4 -14    0.40    4.64
  -9  -4  14   -5.39    7.66
  -9  -4  14   -1.89    4.55
   9   3 -14   18.37   14.58
  -3   9 -14   26.00   14.15
   9   3 -14   34.05   11.32
  -9  -3  14   18.98   15.47
  -2   9 -14    2.84    4.53
   9   2 -14   -3.51    6.43
   9   2 -14   -3.25    4.71
  -9  -2  14   -0.74    7.58
   9   1 -14   21.74    7.80
  -1   9 -14   10.28    8.04
   9   1 -14   13.31    9.94
   9   1  14   15.85    8.63
  -9  -1  14    9.61   10.31
  -9   0 -14    1.41    3.55
   9   0 -14    1.64    6.27
   9   0 -14    7.05    7.24
   0   9 -14    3.84    5.04
   9   0  14    9.86    5.99
   9   0  14    5.74    5.86
   0  -9  14    1.08    4.56
  -9   0  14   -6.98    7.08
   1   9 -14   12.56    8.05
   9  -1 -14   15.08    9.63
  -9   1 -14    8.58    7.02
   1   9 -14   20.72    8.59
   9  -1  14   14.81    8.52
  -1  -9  14    9.25    7.51
   9  -1  14   18.85    9.94
   2   9 -14   -1.67    5.67
  -9   2 -14   -1.31    3.84
   2   9 -14    6.30    5.42
   9  -2  14   -5.44    7.95
  -2  -9  14    4.44    5.02
   9  -2  14   -0.95    5.20
   3   9 -14   23.60   14.16
  -9   3 -14   18.17   12.90
   3   9 -14   29.66   13.51
  -3  -9  14   27.96   12.76
   9  -3  14   47.62   17.52
   9  -3  14   33.70   14.03
   4   9 -14   -3.52    5.51
  -9   4 -14   -1.80    3.82
  -9   4 -14   -0.81    3.64
   4   9 -14    0.45    6.23
   9  -4  14    2.40    8.24
  -4  -9  14   -0.59    5.05
   9  -4  14    0.43    5.56
  -9   5 -14    7.54    8.40
   5   9 -14   18.93   10.22
  -9   5 -14    9.31    8.44
   5   9 -14   44.23    9.38
   9  -5  14   21.27   12.06
  -5  -9  14   35.60    8.74
   9  -5  14    9.20    9.36
  -9   6 -14   12.91    5.63
  -9   6 -14    1.28    5.68
   9  -6  14    4.91    9.34
   9  -6  14   10.37    6.81
  -9   7 -14    2.31    4.22
  -9   7 -14    3.64    4.62
   7   9 -14   -1.30    6.17
   9  -7  14    4.21    9.50
  -7  -9  14    0.67    5.68
   9  -7  14   -1.73    6.02
   8   9 -14    6.16   10.97
   8   9 -14    6.10    9.25
  -8  -9  14    2.83    8.18
   9   9 -14  -13.21    9.65
   9   9 -14   12.72    7.67
  -9  -9  14  -10.44    6.77
  10   9 -14    4.42    9.58
  10   9 -14   35.20   12.93
 -10  -9  14   27.83   12.55
 -10  -9  14   -1.58    9.11
  10   8 -14   -4.71    9.26
  10   8 -14  -10.51    6.63
 -10  -8  14  -12.76   10.16
 -10  -8  14    6.26    6.41
  10   7 -14    0.59    6.36
 -10  -7  14   -3.71    6.06
  10   5 -14    8.05    5.97
  10   5 -14    4.41    8.64
 -10  -5  14    6.76    5.75
 -10  -5  14   20.17    9.16
  10   4 -14   12.32    6.53
  -4  10 -14    4.37    7.20
  10   4 -14   13.41    9.26
 -10  -4  14    1.54    9.85
 -10  -4  14   16.58    6.53
  10   3 -14    4.09    5.06
  -3  10 -14    0.33    4.87
  10   3 -14    4.15    7.37
 -10  -3  14    7.33    8.54
  10   2 -14    5.78    7.54
  -2  10 -14    8.92    5.97
  10   2 -14    6.35    5.63
 -10  -2  14    5.90    8.55
  10   1 -14    1.11    7.30
  10   1 -14   -3.26    5.17
 -10  -1 -14    1.60    3.20
  -1  10 -14    7.58    5.08
  10   1  14   -2.94    5.44
 -10  -1  14    1.23    7.93
 -10   0 -14   -1.54    3.47
  10   0 -14   -1.11    6.34
   0  10 -14   -0.76    5.07
  10   0 -14    4.29    7.60
  10   0  14   -3.05    5.83
  10   0  14    1.85    6.37
 -10   0  14   -4.78    7.35
   1  10 -14   -0.40    5.47
  10  -1 -14    0.68    8.25
 -10   1 -14    0.50    3.58
  10  -1  14   -2.53    7.32
  10  -1  14   -2.22    5.68
   2  10 -14    6.45    6.81
 -10   2 -14    8.28    4.96
  10  -2  14    0.53    6.30
  10  -2  14    9.86    8.84
 -10   3 -14   -3.48    5.52
   3  10 -14    4.61    6.57
 -10   3 -14    2.39    4.23
  -3 -10  14    6.68    5.37
  10  -3  14    0.49    5.58
  10  -3  14    3.58    9.16
 -10   4 -14   13.68    8.31
 -10   4 -14   11.45    7.65
  10  -4  14   19.38   12.04
  10  -4  14   25.24    8.76
 -10   5 -14    5.62    4.93
 -10   5 -14    0.71    4.76
  10  -5  14   -2.82    9.67
  10  -5  14   -2.84    6.06
 -10   6 -14   -0.75    5.51
   6  10 -14   22.63    7.89
 -10   6 -14   -0.48    5.36
  10  -6  14   -0.49    6.92
  10  -6  14   11.39    9.95
   7  10 -14    5.14    8.92
   7  10 -14    0.73    7.71
 -10   7 -14    1.66    4.57
 -10   7 -14   13.60    5.69
  -7 -10  14   -3.08    6.91
  10  -7  14    8.96   10.18
  10  -7  14    0.48    6.32
   8  10 -14    7.61    8.15
   8  10 -14   24.31   10.39
  -8 -10  14    0.81    7.91
   9  10 -14   31.64   10.02
   9  10 -14   11.20   12.39
  -9 -10  14    0.85    9.74
  10  10 -14    8.80   11.85
 -10 -10  14    5.33    8.44
  11  10 -14   25.87   14.47
 -11 -10  14    5.61   10.42
  11   9 -14   -7.26   12.08
  11   9 -14   -6.16    7.64
 -11  -9  14    5.83    7.54
 -11  -9  14    9.79   11.41
  11   8 -14   -3.59   10.33
  11   8 -14   -3.44    7.21
 -11  -8  14    3.69    6.47
 -11  -8  14    7.62   10.49
  11   7 -14   -3.93    9.36
  11   7 -14    3.72    6.55
 -11  -7  14  -16.73   10.68
 -11  -7  14    0.66    6.28
  11   6 -14    0.54    6.22
 -11  -6  14  -11.98    6.65
  11   4 -14   -5.03    8.68
  11   4 -14    9.00    4.84
 -11  -4  14   -1.22    8.88
  11   3 -14    7.04    7.46
  11   3 -14    2.59    4.93
 -11  -3  14  -14.74    9.34
 -11  -3  14   -1.06    5.48
  11   2 -14    0.88    5.29
  11   2 -14    7.16    7.24
 -11  -2  14   -4.17    8.26
 -11  -1 -14    0.58    4.81
  11   1 -14    2.39    6.10
  11   1 -14    4.64    8.51
  11   1  14   21.62    6.94
 -11  -1  14    1.74    9.13
 -11   0 -14   -2.26    3.78
  11   0 -14   -1.28    7.74
  11   0 -14   -3.30    6.58
  11   0  14    8.47    7.39
 -11   0  14   -1.85    8.04
  11   0  14    2.01    6.43
 -11   1 -14    3.31    4.83
  11  -1 -14    2.03    8.23
  11  -1  14    1.88    8.65
  11  -1  14    3.05    6.29
 -11   2 -14    2.72    4.91
  11  -2  14   -1.18    5.84
  11  -2  14   -7.86    8.97
 -11   3 -14    0.78    5.49
 -11   3 -14    2.15    4.64
  11  -3  14    2.77    6.20
  11  -3  14    1.71   10.17
 -11   4 -14   -2.38    5.41
 -11   4 -14   -4.67    5.21
  11  -4  14    7.22   10.69
  11  -4  14    2.73    6.67
 -11   5 -14    3.20    5.68
 -11   5 -14    7.41    5.71
  11  -5  14   -3.19    6.88
  11  -5  14   18.20   10.91
 -11   6 -14   -0.84    5.67
 -11   6 -14    5.93    5.70
  11  -6  14   33.63   11.55
  11  -6  14   -6.02    6.97
 -11   7 -14    1.68    5.82
  11  -7  14    1.61    6.62
  12  10 -14   -1.95   14.83
 -12 -10  14    4.94    8.69
 -12 -10  14    5.53   15.23
  12   9 -14   -3.21    8.65
  12   9 -14  -18.87   13.31
 -12  -9  14   -7.80   12.87
 -12  -9  14   -0.88    8.41
  12   8 -14   -1.44    7.42
  12   8 -14   15.38   11.56
 -12  -8  14    3.93    7.43
 -12  -8  14    0.52   11.56
  12   7 -14   -1.46   10.84
  12   7 -14    0.65    7.17
 -12  -7  14    4.21    6.96
 -12  -7  14    0.49   10.86
  12   6 -14    0.66    9.89
  12   6 -14    0.57    6.73
 -12  -6  14    1.28    6.56
 -12  -6  14    6.44   10.44
  12   5 -14    9.55    6.55
 -12  -5  14    2.36    6.49
  12   3 -14    3.40    9.47
 -12  -3  14   11.30   10.26
  12   2 -14   -2.29    5.92
  12   2 -14   -4.60    8.39
 -12  -2  14  -11.04    9.88
  12   2  14  -10.70    7.08
  12   1 -14   -4.25    8.88
  12   1 -14    1.47    5.74
 -12  -1  14    5.52    9.06
  12   1  14  -11.35    7.28
  12   0 -14   -2.21    6.71
 -12   0  14   -4.89    9.13
  12  -1 -14    2.67    7.84
 -12   6 -14   -0.93    6.70
  12  -6  14   21.06   11.93
 -12   7 -14   10.54    7.58
 -12   7 -14    0.98    7.00
  12  -7  14   12.83   12.24
  12  -7  14   21.58    8.29
 -12   8 -14    1.06    5.55
 -12   8 -14    4.47    6.93
  12  -8  14    9.58    7.94
  12  -8  14  -14.55   12.72
  13  10 -14    8.29   16.41
 -13 -10  14    3.11    9.61
 -13 -10  14   22.43   16.06
  13   9 -14   -1.83   14.01
  13   9 -14  -11.71    8.55
 -13  -9  14    4.64    8.27
 -13  -9  14   -6.00   13.30
  13   8 -14   -7.53    8.00
  13   8 -14   -9.75   12.35
 -13  -8  14   -4.99    8.27
 -13  -8  14  -11.71   12.47
  13   7 -14   -0.68    7.32
  13   7 -14    3.05   11.47
 -13  -7  14    7.46    7.65
 -13  -7  14   -4.15   11.63
  13   6 -14   -2.72   10.31
  13   6 -14    2.49    6.85
 -13  -6  14   -2.04    6.76
 -13  -6  14   19.55   11.34
  13   5 -14  -14.12   10.41
  13   5 -14    5.57    6.46
 -13  -5  14    5.03    6.40
 -13  -5  14    4.70   10.45
  13   4 -14    2.01    6.76
  13   4 -14   33.70    8.82
 -13  -4  14   -4.77    7.29
  13   2  14   10.85    8.28
  13   1 -14   17.71    8.75
 -13  -1 -14   -0.70    4.91
  13   1  14   -0.84    8.32
  13   1  14   -0.53    9.29
 -13  -1  14    6.79    9.24
 -13   0 -14   -5.49    5.05
  13   0 -14   22.18    7.20
  13   0  14    2.19    9.58
  13   0  14   -1.60    7.77
 -13   0  14    8.28    9.05
 -13   1 -14    2.04    5.71
  13  -1 -14   -3.23    8.01
  13  -1  14   -0.61   10.42
  13  -1  14    2.23    7.44
 -13   2 -14    4.76    5.72
 -13   2 -14    3.94    6.65
  13  -2  14  -23.36    8.54
  13  -2  14   -2.58   11.21
 -13   3 -14    2.72    6.23
 -13   3 -14    2.95    7.89
  13  -3  14  -29.80    8.80
  13  -3  14   -1.41   12.37
 -13   4 -14    0.66    6.98
 -13   4 -14   -5.02    6.82
  13  -4  14   10.46   13.37
  13  -4  14   10.30    8.52
 -13   5 -14   -2.66    6.71
 -13   5 -14    6.08    6.46
  13  -5  14   22.28   12.85
  13  -5  14   -2.08    8.66
 -13   6 -14   -4.18    6.51
 -13   6 -14    7.35    6.71
  13  -6  14  -19.99   14.10
  13  -6  14    4.04    8.39
 -13   7 -14   -2.17    5.61
 -13   7 -14    1.37    7.06
  13  -7  14  -10.19    8.63
  13  -7  14   -9.07   11.72
 -13   8 -14    6.23    7.52
 -13   8 -14    3.46    6.48
  13  -8  14   -6.97   12.77
  13  -8  14   12.44    8.32
  14  10 -14    8.78   18.21
 -14 -10  14  -11.37   16.50
  14   9 -14   -8.70   14.79
  14   9 -14    2.61    8.69
 -14  -9  14    6.85    8.82
 -14  -9  14   17.59   15.11
  14   8 -14   13.43   13.68
  14   8 -14   -1.58    8.91
 -14  -8  14   -6.15    8.08
 -14  -8  14   -0.60   13.81
  14   7 -14    2.85    8.26
  14   7 -14   19.71   12.44
 -14  -7  14    5.53    8.50
 -14  -7  14   14.89   13.25
  14   6 -14    5.21    8.75
  14   6 -14    2.80   11.59
 -14  -6  14   -5.03    8.22
 -14  -6  14    4.66   13.18
  14   5 -14  -15.20   11.03
  14   5 -14    5.25    7.01
 -14  -5  14  -37.94   12.89
 -14  -5  14   -6.66    8.09
  14   4 -14   -3.10    8.93
  14   4 -14    4.40    6.54
 -14  -4  14    0.63    6.98
 -14  -4  14   17.43   10.73
 -14  -3  14   51.13   12.81
 -14  -3  14   -8.65    9.95
  14   2  14  -10.30    9.37
 -14  -1 -14    8.42    5.60
  14   1  14  -11.65   10.38
  14   1  14   -3.64    8.85
 -14   0 -14    4.55    6.27
  14   0  14    4.39    8.77
  14   0  14    8.90   10.89
 -14   1 -14    8.33    5.98
  14  -1  14  -18.05    8.32
  14  -1  14   -8.05   11.32
 -14   2 -14    3.80    6.63
 -14   2 -14   -2.18    8.16
  14  -2  14   -2.43    8.11
  14  -2  14   -5.88   12.88
 -14   3 -14    9.15    7.91
 -14   3 -14    6.56    9.05
  14  -3  14   -3.12   13.79
  14  -3  14    6.17    9.20
 -14   4 -14   -2.94    6.64
 -14   4 -14    4.50    7.25
  14  -4  14   -6.13    8.68
  14  -4  14   22.23   14.38
 -14   5 -14   -6.81    7.69
 -14   5 -14    0.74    8.14
  14  -5  14  -15.34    9.80
  14  -5  14   11.01   13.95
 -14   6 -14    0.75    8.20
 -14   6 -14   -3.50    7.77
  14  -6  14    2.22    9.24
  14  -6  14   32.55   14.67
 -14   7 -14    6.74    7.75
 -14   7 -14   -4.83    6.58
  14  -7  14   -7.21   13.09
  14  -7  14    7.46    9.16
 -14   8 -14    0.76    7.38
 -14   8 -14   -1.26    6.69
  14  -8  14    8.51   13.82
  14  -8  14   -0.74    8.41
  14  -9  14  -11.34    8.89
  15  10 -14    1.16   18.03
 -15 -10  14   -2.31   17.31
 -15  -9  14   23.61   17.28
 -15  -9  14    2.05    9.76
 -15  -2 -14    1.70    8.22
  15   2  14    6.33   12.00
 -15  -1 -14  -10.11    6.60
  15   1  14  -26.87   10.99
  15   1  14   12.89   11.19
 -15   0 -14    4.20    6.14
  15   0  14    3.86    9.44
  15   0  14   -5.63   11.66
 -15   1 -14    5.05    7.58
  15  -1  14  -30.39   13.53
  15  -1  14   -2.72    9.40
 -15   2 -14    6.01   15.19
 -15   2 -14   13.56   14.24
  15  -2  14   75.19   20.17
  15  -2  14   51.23   16.48
 -15   3 -14    1.21   10.03
 -15   3 -14    9.36    8.64
  15  -3  14  -17.14   16.82
 -15   4 -14    6.28    8.16
 -15   4 -14   -2.47    7.20
  15  -4  14  -12.66   14.32
  15  -4  14   -4.26    9.05
 -15   5 -14    7.43    8.70
 -15   5 -14   10.15    9.47
  15  -5  14    8.39   15.56
  15  -5  14   16.92   10.45
 -15   6 -14   -1.31    8.62
 -15   6 -14    1.66    7.73
  15  -6  14   -9.66   15.57
  15  -6  14   14.55    9.11
 -15   7 -14   -4.03    7.61
 -15   7 -14   -0.82    8.61
  15  -7  14   -7.90   14.06
  15  -7  14  -20.37    9.87
 -15   8 -14   -6.59    9.10
 -15   8 -14   -1.39    8.00
  15  -8  14   27.79   15.32
  15  -8  14   16.17   10.18
 -15   9 -14   -1.64   10.04
 -15   9 -14    4.31    9.38
  15  -9  14   31.50   11.34
 -16  -2 -14    0.93    7.92
  16   2  14   27.99   12.75
 -16  -1 -14    0.93    6.64
  16   1  14   -2.99   12.92
  16   1  14    5.45   10.53
 -16   0 -14   -7.45    6.93
  16   0  14   -6.99   13.41
  16   0  14    1.06   10.83
 -16   1 -14   -1.31    9.44
 -16   1 -14   16.85    7.83
  16  -1  14  -24.05   10.46
  16  -1  14   35.85   14.44
 -16   2 -14   12.26    9.04
 -16   2 -14    7.96    9.86
  16  -2  14   18.90   11.05
  16  -2  14  -21.37   16.40
 -16   3 -14    3.80    8.52
 -16   3 -14   -5.51    9.42
  16  -3  14    6.93   10.59
  16  -3  14  -32.90   15.83
 -16   4 -14   -2.81    9.87
 -16   4 -14   22.81    9.67
  16  -4  14   -6.92   16.19
  16  -4  14   21.64   11.09
 -16   5 -14    1.44    8.95
 -16   5 -14   -6.41    8.31
  16  -5  14    2.79    9.94
  16  -5  14   -5.11   16.62
 -16   6 -14    1.83    8.73
 -16   6 -14   -1.46    8.98
  16  -6  14   10.60   16.16
  16  -6  14  -12.08   11.88
 -16   7 -14    6.06   21.49
 -16   7 -14   29.25   21.45
  16  -7  14   41.62   23.15
 -16   8 -14  -15.21    9.04
 -16   8 -14    3.09    8.92
  16  -8  14  -12.36   17.13
  16  -8  14  -18.47   10.70
 -16   9 -14    3.56    9.03
 -16   9 -14    4.74    7.89
  16  -9  14    7.79   10.25
 -17  -2 -14   -7.21    8.27
  17   2  14   18.61   12.67
 -17  -1 -14    7.20    8.25
  17   1  14   16.76   11.84
  17   1  14    4.98   14.62
 -17   0 -14   -1.03    8.39
  17   0  14  -14.63   16.20
  17   0  14  -10.53   12.50
 -17   1 -14    8.62   11.13
 -17   1 -14   13.52    9.02
  17  -1  14   13.29   11.68
  17  -1  14   -0.93   16.99
 -17   2 -14    5.86   10.51
 -17   2 -14   16.80    9.17
  17  -2  14  -13.18   11.25
  17  -2  14   -8.82   16.73
 -17   3 -14    8.45    9.39
 -17   3 -14    1.53   10.34
  17  -3  14  -29.13   18.75
 -17   4 -14   24.30   20.31
 -17   4 -14    4.68   21.60
  17  -4  14   32.22   22.49
 -17   5 -14   -5.08    9.85
 -17   5 -14   -1.61   11.61
  17  -5  14  -52.51   20.03
  17  -5  14   -7.18   11.56
 -17   6 -14    1.01    9.18
 -17   6 -14   -1.64   10.50
  17  -6  14   -9.12   11.54
  17  -6  14  -31.32   20.27
 -17   7 -14   16.99   10.23
 -17   7 -14   13.53    9.81
  17  -7  14  -23.72   17.65
  17  -7  14   12.46   11.61
 -17   8 -14   -0.97    9.58
 -17   8 -14   -1.71    8.99
  17  -8  14   13.52   18.28
  17  -8  14    8.59   10.91
 -17   9 -14   -5.23   10.96
 -17   9 -14   -4.81    9.61
  17  -9  14   14.08   11.02
 -18  -2 -14    5.69   10.26
  18   2  14   30.75   16.70
 -18  -1 -14   -2.28    8.11
  18   1  14   -3.68   15.02
  18   1  14   10.52   12.84
 -18   0 -14    7.78   11.17
 -18   0 -14    1.15    8.82
  18   0  14   16.12   16.25
  18   0  14   -1.29   12.22
 -18   1 -14   -8.09    9.08
 -18   1 -14  -17.41   11.39
  18  -1  14   -3.07   16.28
  18  -1  14    5.10   13.20
 -18   2 -14   -2.33   10.89
 -18   2 -14    8.08   12.34
  18  -2  14   25.83   18.87
  18  -2  14   15.76   13.34
 -18   3 -14  -10.16   12.19
 -18   3 -14   -1.17   11.21
  18  -3  14  -24.09   13.29
  18  -3  14  -15.93   18.67
 -18   4 -14   -3.47   10.91
 -18   4 -14    3.52   10.49
  18  -4  14   -8.26   18.98
  18  -4  14   -9.15   11.78
 -18   5 -14    7.16   11.73
 -18   5 -14   16.82   11.13
  18  -5  14   13.54   12.54
  18  -5  14  -23.45   19.82
 -18   6 -14   12.81   11.22
 -18   6 -14   -1.11   10.62
  18  -6  14   25.45   13.47
  18  -6  14   -3.81   19.69
 -18   7 -14   11.32   10.79
 -18   7 -14   -8.74   10.10
  18  -7  14  -12.99   18.75
  18  -7  14    4.37   12.35
 -18   8 -14    7.64   10.78
 -18   8 -14   -1.08   10.29
  18  -8  14  -25.76   11.26
  18  -8  14   -6.73   20.89
 -19  -1 -14   -2.53   10.00
  19   1  14   -7.24   12.77
 -19   0 -14   -2.55    9.22
  19   0  14    7.13   13.26
 -19   1 -14   10.27    9.58
  19  -1  14    1.13   15.28
  19  -1  14  -12.68   14.91
 -19   2 -14   -5.18   10.12
  19  -2  14  -21.39   14.75
  19  -2  14    1.18   15.13
 -19   3 -14    2.60   16.09
  19  -3  14   53.11   18.65
 -19   4 -14    7.79   12.26
   0   1 -15   36.30   16.74
   1   0 -15   19.53   15.12
   0   1 -15   33.07   14.98
   0  -1  15   41.33   16.04
   1   1 -15    5.45    5.72
   1   1 -15    0.35    3.65
  -1   1 -15    2.46    3.37
  -1   1 -15    0.98    5.93
  -1  -1  15    2.94    4.95
   1  -1  15    3.38    4.98
  -1   2 -15   -1.17    5.07
   2   1 -15   -1.14    3.61
  -1   2 -15    0.54    3.08
   2   1 -15   -3.17    5.51
   1  -2  15   -0.51    2.31
   1  -2  15    4.20    4.45
  -2  -1  15    4.46    4.75
   2   0 -15   -0.90    4.40
   0   2 -15   -0.57    3.00
   0   2 -15   -1.16    5.19
   0  -2  15   -0.75    4.42
  -2   0  15    3.90    5.09
   1   2 -15    0.91    3.12
  -2   1 -15    1.42    3.14
   1   2 -15    1.18    5.24
  -1  -2  15    4.66    4.81
   2  -1  15    0.14    2.05
   2   2 -15    0.64    3.30
  -2   2 -15    6.76    5.12
  -2   2 -15    0.75    2.73
   2   2 -15    2.82    5.14
   2  -2  15   -3.76    4.42
  -2  -2  15   -1.62    4.97
   2  -2  15   -0.76    2.47
   3   2 -15   -5.00    5.01
   3   2 -15    1.02    3.53
  -2   3 -15   -1.37    2.53
  -2   3 -15   -7.08    5.06
  -3  -2  15   -1.41    5.00
   2  -3  15   -0.13    2.90
   2  -3  15    6.44    4.17
   3   1 -15    0.46    7.17
   3   1 -15    8.42    5.91
  -1   3 -15   10.98    6.66
  -1   3 -15   11.66    5.02
   1  -3  15    7.10    6.39
  -3  -1  15   12.21    6.87
   0   3 -15   -2.06    2.97
   0   3 -15   -1.78    4.63
   3   0 -15    1.42    4.55
   0  -3  15   -2.32    4.53
  -3   0  15   -4.92    5.55
   1   3 -15    7.40    7.28
  -3   1 -15    3.92    6.13
   1   3 -15   19.67    5.70
  -1  -3  15   16.65    7.14
   2   3 -15    1.73    3.08
  -3   2 -15    0.23    2.75
  -3   2 -15    3.83    5.69
   2   3 -15    1.54    5.15
   3  -2  15   -0.79    5.17
  -2  -3  15    3.56    4.76
  -3   3 -15    0.42    2.60
   3   3 -15    1.53    3.27
  -3   3 -15    2.02    4.64
   3   3 -15   -2.83    5.22
  -3   3 -15    0.23    1.51
   3  -3  15    0.87    3.72
   3  -3  15   -0.42    4.69
  -3  -3  15   -3.23    5.19
  -3   4 -15    6.45    5.07
   4   3 -15    4.22    5.93
  -3   4 -15    5.71    3.41
   4   3 -15    6.77    4.08
  -4  -3  15   -1.14    5.94
   3  -4  15    0.57    4.69
   3  -4  15    8.49    3.05
  -2   4 -15   14.73    6.33
  -2   4 -15   16.69    8.14
   4   2 -15    8.67    8.52
   2  -4  15   12.90    7.64
  -4  -2  15   18.75    8.41
  -1   4 -15   -0.49    2.76
   4   1 -15   -6.11    5.86
  -1   4 -15    3.72    4.79
  -4  -1  15   -1.27    5.80
   1  -4  15    3.83    4.40
   0   4 -15   -4.44    4.48
   4   0 -15   -0.54    5.74
   0   4 -15    2.57    2.89
  -4   0  15   -6.75    5.30
   0  -4  15    1.13    4.79
   1   4 -15    1.79    5.09
  -4   1 -15    1.68    2.77
   1   4 -15    0.54    3.08
   4  -1  15    1.12    3.14
  -1  -4  15    4.05    4.72
   2   4 -15   12.06    7.86
   2   4 -15   16.00    5.91
  -4   2 -15    4.92    6.38
   4  -2  15   10.30    7.90
   4  -2  15   14.46    7.66
  -2  -4  15   11.59    7.63
   3   4 -15   11.87    5.86
  -4   3 -15    2.14    3.20
  -4   3 -15    9.40    5.48
   3   4 -15   -0.90    3.68
   4  -3  15    3.62    4.76
  -3  -4  15    4.80    5.66
  -4   4 -15    1.85    2.46
   4   4 -15   -0.42    5.53
  -4   4 -15    1.77    4.59
   4   4 -15   -0.64    3.33
   4  -4  15    1.21    2.21
   4  -4  15   -0.55    4.28
  -4  -4  15    1.41    5.67
   5   4 -15    8.71    6.50
  -4   5 -15    2.26    5.23
  -4   5 -15    9.13    3.87
   4  -5  15    2.90    3.28
   4  -5  15    4.06    4.92
  -5  -4  15   12.00    6.70
  -3   5 -15   -0.77    2.97
   5   3 -15   -0.44    6.01
  -3   5 -15    2.11    4.41
   3  -5  15    1.52    4.43
   3  -5  15   -0.48    2.60
  -5  -3  15  -10.58    6.13
  -2   5 -15    1.81    3.48
  -2   5 -15    2.55    5.25
   5   2 -15    6.66    4.53
   5   2 -15   12.20    6.18
   2  -5  15    5.13    3.19
  -5  -2  15   -5.34    6.14
   2  -5  15   13.95    4.93
   5   1 -15   11.16    7.67
   5   1 -15   10.90    6.56
  -1   5 -15   15.45    5.57
  -1   5 -15    7.06    7.32
   1  -5  15   10.30    7.00
  -5  -1  15   11.25    7.70
   1  -5  15   17.88    5.25
   0   5 -15    3.88    5.26
   0   5 -15    3.68    3.29
   5   0 -15    3.71    5.30
   5   0 -15   -1.65    6.06
   0  -5  15    3.63    5.09
   0  -5  15    2.94    2.94
  -5   0  15   -2.19    5.58
   5   0  15    1.09    3.57
   1   5 -15   10.35    6.79
  -5   1 -15   -0.22    5.06
   1   5 -15   14.51    4.73
   5  -1  15    6.00    5.86
  -1  -5  15   12.27    4.38
  -1  -5  15    0.72    6.57
   2   5 -15    3.88    5.51
  -5   2 -15    3.29    2.97
  -5   2 -15   -0.31    2.35
   2   5 -15    4.34    3.45
  -2  -5  15   -1.51    5.45
   5  -2  15    5.01    4.69
  -2  -5  15    3.35    3.29
   5  -2  15    2.63    4.03
   3   5 -15    1.95    3.63
  -5   3 -15   -0.18    2.37
   3   5 -15    4.48    5.56
  -5   3 -15    0.28    2.40
   5  -3  15    2.47    3.44
   5  -3  15    0.51    4.67
  -3  -5  15    0.36    3.49
  -3  -5  15   -0.27    5.39
  -5   4 -15    5.31    3.19
  -5   4 -15    2.30    3.31
  -5   4 -15    5.00    5.41
  -5   4 -15    7.47    3.42
   4   5 -15    6.49    4.21
   4   5 -15   11.58    6.47
  -4  -5  15    4.93    4.08
   5  -4  15    2.26    6.31
   5  -4  15    4.08    4.10
  -4  -5  15    5.65    6.08
   5   5 -15   -3.16    6.36
  -5  -5  15   10.79    6.54
   6   5 -15   -6.20    6.91
   6   5 -15    1.90    4.47
  -6  -5  15    8.15    4.54
  -6  -5  15   13.39    7.02
   6   4 -15   17.76    7.85
  -4   6 -15   16.32   10.10
   6   4 -15   17.84   10.26
  -4   6 -15   17.38    8.30
   4  -6  15   18.76    9.57
  -6  -4  15   20.08   10.57
   4  -6  15   10.94    7.17
  -3   6 -15    2.41    4.24
   6   3 -15    6.46    4.74
  -3   6 -15    8.91    5.63
   6   3 -15    1.39    6.59
  -6  -3  15   13.14    6.91
   3  -6  15    4.48    3.86
   3  -6  15    9.07    5.53
   6   2 -15   26.79   12.73
  -2   6 -15   38.31   13.21
  -2   6 -15   41.38   15.53
   6   2 -15   19.35   14.96
   2  -6  15   34.37   14.96
  -6  -2  15   22.96   15.66
   2  -6  15   30.53   11.86
  -1   6 -15    7.76    4.69
  -1   6 -15    5.52    5.86
   6   1 -15    1.01    6.77
   6   1 -15    2.28    5.79
  -6  -1  15    9.39    7.04
   1  -6  15    7.33    4.17
   1  -6  15   14.50    5.84
   0   6 -15   -0.67    3.63
   6   0 -15   -1.69    6.28
   0   6 -15    4.40    5.09
   6   0 -15    1.11    5.59
   0  -6  15    0.64    3.02
   0  -6  15    4.54    5.03
  -6   0  15   13.22    6.38
   6   0  15    0.48    3.67
  -6   1 -15   -0.36    3.31
   1   6 -15    4.25    5.75
   1   6 -15    7.34    4.57
  -1  -6  15    6.44    3.76
  -1  -6  15   11.43    5.83
   6  -1  15    4.54    5.17
  -6   2 -15    2.69   11.72
   2   6 -15   31.98   11.72
   2   6 -15   32.02   13.79
   6  -2  15   25.42   13.31
   6  -2  15   25.52   15.56
  -2  -6  15   27.79   13.50
  -2  -6  15   23.35   10.68
   3   6 -15    4.54    4.44
   3   6 -15    5.10    5.64
  -6   3 -15    3.10    3.25
  -3  -6  15    0.76    4.06
  -3  -6  15    6.87    6.01
   6  -3  15    2.71    6.36
   6  -3  15    3.37    4.65
  -6   4 -15   18.65    7.62
  -6   4 -15   18.78    8.05
   4   6 -15   23.73    8.26
   4   6 -15   21.62    9.89
  -4  -6  15   23.37    7.61
   6  -4  15    8.21   10.65
  -4  -6  15   10.91    9.60
   6  -4  15   10.01    8.33
   5   6 -15   -8.83    6.38
   6  -5  15    2.25    4.39
   6  -5  15    8.36    7.05
  -5  -6  15   25.32    7.10
   6   6 -15  -21.13    9.54
   6   6 -15   -9.56    6.48
  -6  -6  15   -9.07    6.22
   7   6 -15    1.83    5.30
   7   6 -15    7.51    7.60
  -7  -6  15    0.48    5.11
  -7  -6  15    9.63    7.90
   7   5 -15    5.04    7.60
   7   5 -15   -4.82    5.04
  -7  -5  15   -5.48    5.35
   7   4 -15    4.52    4.83
   7   4 -15   10.99    7.79
  -4   7 -15    6.03    4.53
  -4   7 -15    2.06    5.58
   4  -7  15    7.42    4.01
  -7  -4  15    1.70    8.06
   4  -7  15    7.71    5.43
  -3   7 -15    7.11    4.91
   7   3 -15    4.38    7.53
  -3   7 -15   10.53    5.93
   7   3 -15    4.17    4.68
   3  -7  15    8.16    5.71
  -7  -3  15    5.79    7.15
   3  -7  15    3.80    4.22
   7   2 -15   26.67   12.21
   7   2 -15   25.64    9.74
  -2   7 -15   24.35   11.87
  -2   7 -15   14.78   10.10
   2  -7  15   18.13    9.05
   2  -7  15   21.62   11.49
  -7  -2  15   12.34   12.53
  -1   7 -15    1.55    4.20
   7   1 -15    1.42    5.12
   7   1 -15    1.57    6.58
  -1   7 -15    2.88    4.89
  -7  -1  15    4.40    6.69
   1  -7  15    1.07    3.59
   1  -7  15    4.02    4.98
   0   7 -15    8.00    6.43
   0   7 -15    9.58    5.53
   7   0 -15    4.08    7.98
   7   0 -15   23.71    7.60
  -7   0  15    9.47    7.94
   7   0  15    6.20    6.02
   0  -7  15   12.60    4.82
   0  -7  15    2.80    6.41
  -7   1 -15   -1.57    3.20
   1   7 -15   -1.05    5.04
   1   7 -15    1.59    3.92
  -1  -7  15    3.10    3.55
   7  -1  15    7.47    4.94
  -1  -7  15   -2.93    5.19
   7  -1  15   -1.91    4.39
   2   7 -15   22.11   11.72
   2   7 -15   27.56   10.57
  -7   2 -15    4.05   10.02
   7  -2  15   21.77   11.46
  -2  -7  15   27.11   11.52
  -2  -7  15   23.97    9.68
   7  -2  15   34.65   13.65
   3   7 -15   11.51    5.05
  -7   3 -15    8.29    3.87
   3   7 -15    2.04    6.11
   7  -3  15    5.60    5.10
  -3  -7  15   -0.43    4.71
   7  -3  15    4.52    6.79
  -3  -7  15    1.89    6.13
  -7   4 -15    4.71    3.52
  -7   4 -15   10.24    4.05
   4   7 -15    7.36    7.13
   4   7 -15  -14.63    6.21
  -4  -7  15    4.04    4.71
   7  -4  15    7.92    7.12
   7  -4  15   12.05    4.63
  -4  -7  15   -8.83    6.58
  -7   5 -15    2.48    3.46
   5   7 -15  -30.80    8.29
  -7   5 -15    0.62    3.22
  -5  -7  15  -12.41    6.86
   7  -5  15   -1.24    4.23
   7  -5  15    2.86    8.06
   6   7 -15   -5.79    5.83
   6   7 -15   15.65    7.91
  -6  -7  15   11.32    7.60
  -6  -7  15    7.51    5.11
   7   7 -15   -2.61    7.27
   7   7 -15   -1.52    4.75
  -7  -7  15    2.43    7.14
   8   6 -15   30.93    7.82
   8   6 -15    5.60   10.03
  -8  -6  15   -7.01    9.82
  -8  -6  15   37.45    7.78
   8   5 -15   14.47    7.77
   8   5 -15   23.31   10.81
  -8  -5  15   21.42   10.71
  -8  -5  15    8.27    7.58
  -4   8 -15    3.26    5.09
   8   4 -15    3.66    7.60
   8   4 -15    5.59    4.64
  -8  -4  15    5.07    7.72
  -8  -4  15    3.34    4.95
   4  -8  15   -0.92    4.58
   8   3 -15   32.33   10.42
  -3   8 -15   29.51   11.36
   8   3 -15   23.95   13.31
  -3   8 -15   28.12   13.05
   3  -8  15   14.48   10.38
  -8  -3  15    9.52   13.88
  -2   8 -15    3.17    5.63
   8   2 -15    5.54    5.86
   8   2 -15   -3.10    7.56
  -2   8 -15    5.80    6.34
  -8  -2  15   14.95    8.62
   2  -8  15   10.78    5.04
   8   1 -15   12.02   10.03
  -1   8 -15   16.45    8.13
   8   1 -15   21.61    8.46
  -1   8 -15   20.83    8.93
  -8  -1  15    4.27   10.35
   8   1  15   17.38    8.70
   1  -8  15   19.45    7.36
   0   8 -15   -2.32    4.89
   0   8 -15   -1.40    5.47
   8   0 -15   -0.59    6.26
   8   0 -15   -4.22    6.88
   8   0  15   -1.86    5.12
   0  -8  15   -1.32    4.32
  -8   0  15   -2.90    6.99
   1   8 -15   18.51    7.52
   1   8 -15   19.13    8.11
  -8   1 -15   -0.85    6.46
   8  -1  15   14.36    9.01
  -1  -8  15   14.47    6.51
   8  -1  15    4.07    8.24
   2   8 -15   16.25    7.14
  -8   2 -15    1.62    5.08
   2   8 -15   18.55    6.60
   8  -2  15   11.59    6.51
  -2  -8  15    9.37    5.66
   8  -2  15    8.66    8.23
   3   8 -15   31.49   12.54
  -8   3 -15   16.62   10.87
   3   8 -15   26.68   11.60
   8  -3  15   19.14   11.94
  -3  -8  15   26.36   10.61
   8  -3  15   24.24   15.17
   4   8 -15    4.17    5.94
  -8   4 -15    4.30    3.73
   4   8 -15    6.07    6.13
  -8   4 -15    0.54    4.08
  -4  -8  15    3.57    4.76
   8  -4  15   11.63    7.96
   8  -4  15    5.33    4.95
   5   8 -15   20.51    8.14
  -8   5 -15   11.03    6.91
  -8   5 -15   10.11    7.17
   5   8 -15    8.31    8.84
   8  -5  15   17.22    7.82
   8  -5  15    4.58   10.89
  -5  -8  15   20.88    7.32
   6   8 -15   -4.99    7.92
  -6  -8  15    0.34    7.88
   8  -6  15    8.00    9.02
   8  -6  15   -0.37    6.12
   8   8 -15   11.02   17.07
   8   8 -15   68.25   19.77
  -8  -8  15    3.78   16.17
  -8  -8  15   57.42   18.53
   9   8 -15   -3.85    6.92
   9   8 -15   -5.83    9.29
  -9  -8  15   19.03    9.22
  -9  -8  15   -2.67    6.55
   9   7 -15    2.23    6.12
  -9  -7  15    1.80    5.99
   9   5 -15    6.68    8.31
   9   5 -15    6.31    5.29
  -9  -5  15   17.64    5.63
  -9  -5  15   -0.39    8.55
   9   4 -15   16.30    8.32
   9   4 -15   11.50   11.59
  -4   9 -15   16.12   10.94
  -9  -4  15   13.18    8.22
  -9  -4  15   15.06   12.08
  -3   9 -15    4.16    4.85
   9   3 -15   -2.13    7.65
   9   3 -15   -0.42    5.04
  -9  -3  15   -2.33    7.89
   9   2 -15   21.12   12.88
  -2   9 -15   21.99   11.88
   9   2 -15   27.22   10.50
  -9  -2  15   23.78   13.77
   9   1 -15    8.55    7.00
  -1   9 -15   -2.78    4.91
   9   1 -15   -1.50    5.58
  -9  -1  15   -2.47    7.92
   1  -9  15    2.62    4.50
   9   1  15    4.62    5.09
   9   0 -15    1.25    7.05
   9   0 -15    4.81    7.02
   0   9 -15    4.74    5.33
   0   9 -15   -2.16    5.01
  -9   0 -15    0.49    3.68
   0  -9  15    7.91    4.81
  -9   0  15   -2.62    7.17
   9   0  15    5.54    5.59
   9  -1 -15    2.24    8.17
  -9   1 -15   -0.47    3.25
   1   9 -15   -1.15    5.23
   1   9 -15    3.30    5.37
   9  -1  15    1.10    5.91
  -1  -9  15   -2.68    4.75
   9  -1  15    6.15    6.54
   2   9 -15   18.00   10.43
   2   9 -15   31.66   11.06
  -9   2 -15    4.48    9.39
   9  -2  15   27.31   13.60
  -2  -9  15   14.31    9.29
   9  -2  15   21.52   10.67
  -9   3 -15   -1.30    4.10
   3   9 -15   -6.36    5.48
   3   9 -15    4.87    6.32
  -3  -9  15   -0.57    4.97
   9  -3  15    4.19    5.17
   9  -3  15   -3.60    8.34
  -9   4 -15   15.37   11.11
   4   9 -15   49.20   11.47
  -9   4 -15   28.11   10.51
   4   9 -15   20.33   12.09
   9  -4  15   12.53   11.36
   9  -4  15   22.90   14.76
  -4  -9  15   30.08   10.61
  -9   5 -15    2.54    4.55
  -9   5 -15    4.89    4.21
   9  -5  15  -11.29    9.32
   9  -5  15    2.16    5.27
  -9   6 -15   -2.05    4.22
  -9   6 -15    2.08    4.34
   9  -6  15    5.12    5.64
   9  -6  15   12.62    9.07
   7   9 -15   -9.22    6.36
   7   9 -15   12.73    8.19
  -7  -9  15   -1.35    6.17
   8   9 -15    0.63    8.71
   8   9 -15    8.24    6.94
  -8  -9  15   -2.14    6.40
   9   9 -15    1.43    7.55
   9   9 -15    0.71   10.00
  -9  -9  15   14.29    6.99
  -9  -9  15  -15.39    9.54
  10   9 -15   -1.50    7.72
  10   9 -15  -11.51   10.69
 -10  -9  15    7.16    7.10
 -10  -9  15   16.59   10.73
  10   8 -15    6.72    7.57
  10   8 -15   -4.88   10.35
 -10  -8  15   15.56   10.49
 -10  -8  15    8.48    6.95
  10   7 -15   -0.59    6.49
  10   7 -15    2.58    9.87
 -10  -7  15    5.74    6.21
 -10  -7  15  -11.01   10.25
  10   6 -15    4.84    5.86
 -10  -6  15   -8.76    5.82
  10   4 -15    6.82    4.70
  10   4 -15   -8.60    8.68
 -10  -4  15    2.45    8.51
  -3  10 -15    4.73    7.60
  10   3 -15   19.98    7.43
  10   3 -15   22.84    9.91
 -10  -3  15    9.08   10.46
  10   2 -15   -1.13    7.36
  10   2 -15    1.86    5.30
  -2  10 -15    1.06    5.22
 -10  -2  15   -7.97    8.19
  10   1 -15   -0.60    7.79
  -1  10 -15    6.29    5.35
  10   1 -15    2.58    5.53
 -10  -1  15   -2.18    8.71
  10   1  15    1.87    5.74
 -10   0 -15   -0.53    3.82
   0  10 -15   -1.95    5.73
  10   0 -15   -2.61    7.46
  10   0 -15   -4.90    6.88
  10   0  15   -0.64    6.51
  10   0  15   -1.16    6.44
 -10   0  15   15.72    8.14
   1  10 -15   -3.30    6.05
 -10   1 -15   -1.54    3.56
  10  -1 -15    3.70    8.33
  10  -1  15   -0.60    5.89
  10  -1  15    2.15    7.31
  -1 -10  15    2.54    5.13
 -10   2 -15    1.00    4.10
   2  10 -15   -1.75    6.49
  -2 -10  15   -6.44    4.98
  10  -2  15    3.24    5.99
  10  -2  15   -8.13    8.68
 -10   3 -15    4.29    7.38
 -10   3 -15   11.69    6.37
   3  10 -15    1.88    8.09
  10  -3  15   15.63   10.73
  10  -3  15   21.94    7.76
 -10   4 -15   -2.10    4.80
 -10   4 -15   -2.77    4.09
  10  -4  15    5.87    5.52
  10  -4  15  -10.94    9.24
   5  10 -15   32.19    8.17
 -10   5 -15    5.11    5.59
   5  10 -15   -4.17    7.51
 -10   5 -15    1.44    5.96
  10  -5  15    6.87   10.50
  -5 -10  15    4.95    7.02
  10  -5  15    9.81    7.14
 -10   6 -15    5.20    4.81
   6  10 -15  -13.15    8.31
 -10   6 -15   -2.27    4.82
  10  -6  15    9.66    9.69
  10  -6  15    1.45    6.35
   7  10 -15   21.27    9.68
   7  10 -15    4.46    7.39
  -7 -10  15   -2.31    6.67
  10  -7  15   -5.13   11.76
   8  10 -15    2.77    9.68
   8  10 -15   12.35    7.51
  -8 -10  15  -10.52    7.32
   9  10 -15   -3.21    8.32
   9  10 -15   -5.96   10.73
  -9 -10  15    0.85    7.07
  10  10 -15   38.09   12.45
  10  10 -15    3.34    8.87
 -10 -10  15  -10.68   11.63
 -10 -10  15    0.90    8.40
  11  10 -15    1.74    9.15
  11  10 -15    7.38   14.05
 -11 -10  15   10.40    8.64
 -11 -10  15    4.04   13.01
  11   9 -15    3.14    7.77
  11   9 -15   -2.47   11.73
 -11  -9  15   14.30   11.71
 -11  -9  15   -8.44    7.64
  11   8 -15   -6.75   11.27
  11   8 -15   -4.23    7.48
 -11  -8  15  -23.59   10.77
 -11  -8  15    9.77    7.49
  11   7 -15   -3.62   10.48
  11   7 -15    0.64    7.43
 -11  -7  15    1.42   10.23
 -11  -7  15    4.75    6.39
  11   6 -15    1.70    6.62
  11   6 -15   19.18    9.95
 -11  -6  15   -3.19    9.99
 -11  -6  15    1.87    6.13
  11   5 -15    5.29    7.03
 -11  -5  15    1.75    6.58
  11   3 -15    7.60    8.33
 -11  -3  15  -10.53    9.33
  11   2 -15    0.59    8.22
  11   2 -15    2.42    5.82
 -11  -2  15   16.45    9.46
  11   1 -15   -0.62    8.39
  11   1 -15    3.18    6.45
 -11  -1  15   -0.46    8.52
  11   0 -15   11.59    8.07
 -11   0 -15   -1.16    5.52
  11   0  15   -2.07    8.21
 -11   0  15    3.92    9.97
  11   0  15   31.66    8.73
  11  -1 -15    3.72    8.54
 -11   1 -15   -0.56    4.14
  11  -1  15   -1.91    8.03
  11  -1  15    3.91    6.38
 -11   2 -15   -3.88    5.09
  11  -2  15    0.60    5.97
  11  -2  15   -9.05    9.34
 -11   3 -15   -0.80    6.11
 -11   3 -15    1.09    4.83
  11  -3  15    7.56   10.28
  11  -3  15   -1.17    6.67
 -11   4 -15    5.75    4.89
 -11   4 -15   -1.58    6.02
  11  -4  15   -3.86    6.89
  11  -4  15  -11.61   11.78
 -11   5 -15    2.44    6.41
 -11   5 -15    1.58    6.06
  11  -5  15   -4.98    8.15
 -11   6 -15    1.07    5.62
 -11   6 -15    2.54    4.82
  11  -6  15    1.63    6.86
  11  -7  15   -2.23    7.24
  -7 -11  15    5.26    7.26
   8  11 -15  -10.11   11.70
  -8 -11  15    2.75    7.91
   9  11 -15    0.84   12.26
  10  11 -15    2.72   13.40
  11  11 -15    0.98   14.26
  12  11 -15    1.12   17.10
 -12 -11  15    0.69   15.49
  12  10 -15    5.44    9.71
  12  10 -15  -19.79   15.79
 -12 -10  15   -1.00    8.56
 -12 -10  15  -13.72   14.15
  12   9 -15    1.64    8.78
  12   9 -15    0.89   13.61
 -12  -9  15   25.25   13.37
 -12  -9  15   -1.79    8.49
  12   8 -15  -10.35    8.34
  12   8 -15   -1.60   12.24
 -12  -8  15    0.80    8.15
 -12  -8  15  -20.01   12.44
  12   7 -15    3.36    7.31
  12   7 -15  -22.91   11.79
 -12  -7  15   -0.72    6.98
 -12  -7  15   13.26   11.48
  12   6 -15    5.38    6.95
  12   6 -15    7.61   10.37
 -12  -6  15   -8.76   10.87
 -12  -6  15   -6.64    6.55
  12   5 -15    5.93    9.94
  12   5 -15    0.56    6.63
 -12  -5  15  -21.70   10.94
 -12  -5  15   -3.73    6.65
  12   4 -15   -4.07    6.05
  12   4 -15   -2.49    8.19
 -12  -4  15    3.03    6.22
  12   1 -15   10.38   10.23
 -12  -1 -15   20.21    6.36
  12   1  15    0.46    8.81
 -12  -1  15   14.12   11.03
  12   0 -15   17.85    8.24
  12   0  15    0.50   10.05
 -12   0  15   18.66   11.39
  12  -1 -15    7.41   10.10
 -12   5 -15   -2.75    6.33
  12  -5  15   -6.35   11.64
 -12   6 -15   -0.94    6.89
  12  -6  15   31.59   12.46
 -12   7 -15   -0.61    6.47
 -12   7 -15   -4.96    5.77
  12  -7  15  -14.87    8.43
  12  -7  15   -7.60   11.41
  13  11 -15   -6.00   19.11
 -13 -11  15    8.20   17.14
  13  10 -15    2.12   16.09
 -13 -10  15    1.05    9.21
 -13 -10  15   -8.80   15.14
  13   9 -15   -4.28    9.22
  13   9 -15   -3.80   14.92
 -13  -9  15  -13.84   14.36
 -13  -9  15  -11.33    9.57
  13   8 -15    3.10    8.21
  13   8 -15    1.79   13.57
 -13  -8  15   17.02    8.47
 -13  -8  15   -9.90   13.13
  13   7 -15    2.82   11.41
  13   7 -15   28.74   15.46
 -13  -7  15   56.24   15.76
 -13  -7  15    9.99   11.06
  13   6 -15    5.65    7.22
  13   6 -15   15.78   11.00
 -13  -6  15   11.39   11.79
 -13  -6  15   -7.08    7.46
  13   5 -15    4.78    9.61
  13   5 -15    1.18    6.88
 -13  -5  15   -0.66    6.83
 -13  -5  15  -12.94   11.70
  13   4 -15    1.07    6.29
  13   4 -15    9.64    9.60
 -13  -4  15   -5.40    9.87
 -13  -4  15   -5.75    6.91
  13   3 -15    0.52    6.34
  13   3 -15  -16.41    8.74
 -13  -3  15   -2.55    6.93
 -13  -3  15   36.19   10.34
  13   2 -15   -2.61    6.50
 -13  -1 -15    1.42    5.16
  13   1  15    4.80    8.65
 -13   0 -15    4.20    5.32
  13   0  15  -18.28    9.86
  13   0  15   19.65    8.02
 -13   1 -15    5.54    5.35
  13  -1  15   -2.46   10.43
  13  -1  15  -16.56    7.93
 -13   2 -15    6.20    5.84
  13  -2  15   -2.22    7.53
  13  -2  15  -11.12   11.70
 -13   3 -15    5.02    6.86
 -13   3 -15    3.45    5.90
  13  -3  15  -10.02   12.70
  13  -3  15   -0.73    7.89
 -13   4 -15    2.05    6.47
 -13   4 -15    2.07    6.13
  13  -4  15    1.39    7.54
  13  -4  15    8.26   12.68
 -13   5 -15   -5.15    6.62
 -13   5 -15   -0.67    6.55
  13  -5  15    2.08    7.99
  13  -5  15   13.26   12.78
 -13   6 -15    7.46    6.73
 -13   6 -15    6.34    7.40
  13  -6  15    0.67    8.31
  13  -6  15   -2.43   12.87
 -13   7 -15   -3.40    9.50
 -13   7 -15    3.29    8.86
  13  -7  15   23.29   10.79
  13  -7  15   29.09   15.43
  13  -8  15   -2.62   13.79
  14  11 -15   61.50   24.76
 -14 -11  15   -0.81   23.11
  14  10 -15   28.41   21.12
 -14 -10  15   31.88   20.84
 -14 -10  15   15.50   14.10
  14   9 -15    0.89    8.55
  14   9 -15    1.06   16.61
 -14  -9  15   -6.98    8.44
 -14  -9  15   -8.11   15.88
  14   8 -15   -2.42    9.33
  14   8 -15   13.10   14.34
 -14  -8  15   11.23   14.34
 -14  -8  15    0.90    8.71
  14   7 -15  -17.39   13.25
  14   7 -15   -2.96    8.08
 -14  -7  15   -4.89    8.09
 -14  -7  15    0.58   13.75
  14   6 -15    0.77   11.38
  14   6 -15    5.46    8.11
 -14  -6  15   19.84   12.79
 -14  -6  15   -0.75    7.23
  14   5 -15    9.26    8.56
  14   5 -15   -2.82   11.61
 -14  -5  15  -14.76    8.18
 -14  -5  15  -39.26   14.29
  14   4 -15  -12.01   11.54
  14   4 -15   -8.84    8.08
 -14  -4  15  -13.44    8.32
 -14  -4  15  -42.85   13.30
  14   3 -15   13.72    9.64
  14   3 -15   -1.09    6.87
 -14  -3  15   18.94   10.95
 -14  -3  15    0.67    7.33
 -14  -2  15    0.68    8.23
 -14  -2  15   20.30   10.96
 -14  -1 -15   -0.78    5.41
  14   1  15    7.07    9.82
 -14   0 -15    0.77    5.33
  14   0  15   -0.90    9.07
  14   0  15   -4.28   10.61
 -14   1 -15   -2.30    6.19
  14  -1  15   20.35   11.34
  14  -1  15   -6.09    8.49
 -14   2 -15    2.22    7.94
 -14   2 -15    3.84    6.88
  14  -2  15    0.74   13.46
  14  -2  15   -2.46    8.18
 -14   3 -15    3.86    6.71
 -14   3 -15    1.12    8.49
  14  -3  15    1.63    8.59
  14  -3  15  -28.44   14.71
 -14   4 -15   13.74    8.98
 -14   4 -15    5.41    8.19
  14  -4  15  -23.27   10.14
  14  -4  15  -12.54   16.02
 -14   5 -15   -5.77    8.00
 -14   5 -15    7.49    8.16
  14  -5  15    0.77    9.93
  14  -5  15   60.17   16.64
 -14   6 -15    2.37    7.90
 -14   6 -15   -0.75    7.08
  14  -6  15    6.24    8.83
  14  -6  15  -14.25   13.94
 -14   7 -15   -0.75    7.53
 -14   7 -15   -3.65    6.48
  14  -7  15    4.55   13.55
  14  -7  15    4.51    9.39
  14  -8  15    7.60   14.35
  14  -8  15   -0.75    9.27
  15  10 -15  -19.23   17.92
 -15 -10  15   38.14   18.84
  15   9 -15   18.82   16.82
  15   9 -15   -0.92    9.20
 -15  -9  15   -7.34    9.10
 -15  -9  15   21.66   16.83
 -15  -8  15    0.95   10.48
 -15  -8  15  -11.92   17.46
 -15  -7  15    0.86    8.37
 -15  -1 -15    0.86    6.11
  15   1  15   10.14    9.45
  15   1  15   -1.30   10.95
 -15   0 -15  -12.80    6.48
  15   0  15   10.64   12.47
  15   0  15   14.76    9.74
 -15   1 -15   -5.97    6.79
  15  -1  15   -6.73   12.93
  15  -1  15    1.92    9.60
 -15   2 -15   -6.13    9.54
 -15   2 -15    2.57    7.93
  15  -2  15    9.81   14.23
  15  -2  15   11.82    9.61
 -15   3 -15    6.89    7.72
 -15   3 -15   -3.72    9.19
  15  -3  15   -9.04    9.37
  15  -3  15   -2.61   15.92
 -15   4 -15    6.39    8.44
 -15   4 -15    8.64    7.86
  15  -4  15    1.84   14.89
  15  -4  15   -5.18    9.05
 -15   5 -15    1.67    7.64
 -15   5 -15    1.29    8.46
  15  -5  15   -7.72    9.95
  15  -5  15  -17.95   15.51
 -15   6 -15    1.32    8.48
 -15   6 -15    2.51    8.14
  15  -6  15  -54.83   17.57
  15  -6  15    7.72    9.95
 -15   7 -15    5.42    8.35
 -15   7 -15    1.68    8.26
  15  -7  15  -19.96   14.39
  15  -7  15   22.18   10.00
 -15   8 -15  -10.76   11.49
 -15   8 -15   -7.03    9.96
  15  -8  15  -33.73   12.88
  15  -8  15  -69.44   18.43
 -16  -1 -15    0.95    6.87
  16   1  15    1.51   13.35
  16   1  15  -12.21    9.81
 -16   0 -15   -3.78    6.45
  16   0  15   -3.25   11.15
  16   0  15   -0.78   13.81
 -16   1 -15   -5.31    9.85
 -16   1 -15    0.95    7.92
  16  -1  15   25.50   10.99
  16  -1  15   18.11   14.71
 -16   2 -15   -4.77    7.55
 -16   2 -15   -1.35    8.58
  16  -2  15   14.38   15.56
  16  -2  15  -27.20   10.79
 -16   3 -15    7.02   10.38
 -16   3 -15    0.96    8.48
  16  -3  15  -15.06   10.63
  16  -3  15   15.23   15.54
 -16   4 -15   -2.85    9.57
 -16   4 -15    3.85    8.58
  16  -4  15    6.02   16.62
  16  -4  15  -19.12    9.84
 -16   5 -15    5.76    9.39
 -16   5 -15   -1.86    8.82
  16  -5  15  -21.76   17.18
  16  -5  15  -14.24   10.32
 -16   6 -15   20.73   12.37
 -16   6 -15    3.71   10.26
  16  -6  15  -21.48   24.54
 -16   7 -15   -0.92    8.65
 -16   7 -15   -3.03    8.86
  16  -7  15   -1.09   16.59
  16  -7  15   16.97   10.34
 -16   8 -15    1.56    8.90
 -16   8 -15   -2.71    9.04
  16  -8  15   15.86   16.50
  16  -8  15   13.41   10.46
 -17  -1 -15  -17.79   11.47
  17   1  15   -9.74   14.18
  17   1  15  -46.78   17.08
 -17   0 -15  -11.52    9.58
  17   0  15   -7.79   16.33
  17   0  15  -28.63   13.50
 -17   1 -15    1.46   13.15
 -17   1 -15   -3.16   10.94
  17  -1  15  -34.03   14.64
  17  -1  15  -47.67   19.60
 -17   2 -15    5.96   27.98
 -17   2 -15   24.42   26.13
  17  -2  15  120.36   28.83
  17  -2  15   91.96   33.53
 -17   3 -15   -7.77   11.36
 -17   3 -15   -7.49   10.47
  17  -3  15   46.84   20.17
  17  -3  15  -37.71   13.82
 -17   4 -15  -39.67   12.73
 -17   4 -15  -10.74   11.69
  17  -4  15  -21.00   13.64
  17  -4  15  -17.50   19.99
 -17   5 -15    1.63   10.84
 -17   5 -15   18.18   10.30
  17  -5  15  -20.94   11.17
  17  -5  15  -18.12   19.99
 -17   6 -15   -4.97   11.97
 -17   6 -15   -4.09    9.36
  17  -6  15   20.64   11.92
  17  -6  15   -7.05   21.10
 -17   7 -15   -9.12    9.21
 -17   7 -15   -1.71    9.11
  17  -7  15  -13.19   17.36
  17  -7  15   12.28   11.53
 -17   8 -15   -8.66    9.83
 -17   8 -15    4.01    9.54
  17  -8  15   23.55   18.25
  17  -8  15   -3.87   10.85
 -18  -1 -15   -3.48    8.86
  18   1  15  -30.78   12.59
  18   1  15  -13.87   16.50
 -18   0 -15   -8.14    8.18
 -18   0 -15    7.88   11.85
  18   0  15   23.69   12.71
  18   0  15  -15.29   15.53
 -18   1 -15   17.66   11.62
 -18   1 -15   -3.51    8.92
  18  -1  15   -6.48   13.81
  18  -1  15    2.06   17.66
 -18   2 -15   17.70   10.24
 -18   2 -15   -4.92   11.06
  18  -2  15    3.25   18.72
  18  -2  15  -16.01   13.50
 -18   3 -15    5.95   11.07
 -18   3 -15   -1.72   11.61
  18  -3  15   -6.90   18.76
  18  -3  15    8.58   12.74
 -18   4 -15    7.05   13.07
 -18   4 -15    8.33   12.67
  18  -4  15   40.14   15.08
  18  -4  15    7.16   20.97
 -18   5 -15    5.45   12.17
 -18   5 -15    4.73   11.21
  18  -5  15  -49.99   21.44
  18  -5  15   -5.76   12.97
 -18   6 -15    1.85   10.86
 -18   6 -15   -1.13   10.50
  18  -6  15  -21.83   19.15
  18  -6  15   23.80   13.01
 -18   7 -15   -4.45   11.30
 -18   7 -15   -3.82   11.23
  18  -7  15   26.26   19.80
  18  -7  15   18.91   12.70
 -18   8 -15    1.93   10.49
 -18   8 -15   12.01   12.42
  18  -8  15   38.61   14.23
   0   1 -16   -2.56    5.75
   0   1 -16   -1.78    3.75
   0  -1  16   -2.91    5.45
   1   1 -16   36.27   10.79
   1   1 -16   12.00   12.23
  -1   1 -16   18.51   10.77
  -1  -1  16   28.76   11.92
   1  -1  16   14.88   11.86
  -1   2 -16    2.34    3.24
  -1   2 -16  -12.52    5.12
   2   1 -16    6.46    5.92
   2   1 -16    2.45    4.17
  -2  -1  16    3.23    5.22
   1  -2  16   -0.55    5.00
   0   2 -16    6.03    6.01
   0   2 -16    3.74    3.88
   2   0 -16    2.38    5.04
   0  -2  16    6.90    5.31
  -2   1 -16    1.53    3.47
   1   2 -16    5.65    5.60
   1   2 -16    1.99    3.63
  -1  -2  16    6.24    5.29
  -2   2 -16    9.37    7.84
   2   2 -16    7.10    7.57
   2   2 -16   16.14    6.04
  -2   2 -16    8.22    5.79
   2  -2  16    8.62    7.09
  -2  -2  16   14.68    7.29
   3   2 -16   21.84    9.09
  -2   3 -16   26.78    9.12
   3   2 -16   20.57   10.88
  -2   3 -16   21.10   10.68
   2  -3  16   12.88   10.30
  -3  -2  16   16.27   10.76
   3   1 -16   -1.50    6.20
  -1   3 -16    1.91    5.30
   3   1 -16    4.77    4.73
  -1   3 -16    4.26    3.18
   1  -3  16    9.33    5.10
  -3  -1  16    2.65    6.01
   0   3 -16   -0.39    5.41
   3   0 -16    0.50    4.71
   0   3 -16    1.41    3.22
   0  -3  16    0.76    4.93
  -3   0  16    4.94    5.51
   1   3 -16    3.88    3.35
   1   3 -16    2.83    5.47
  -3   1 -16    0.28    3.37
  -1  -3  16   -5.34    5.16
   2   3 -16   26.80    8.59
   2   3 -16   19.76   10.58
  -3   2 -16   18.68   11.27
  -3   2 -16   10.20    9.34
   3  -2  16   18.70   10.47
  -2  -3  16   13.77   10.54
   3   3 -16    7.66    4.47
  -3   3 -16    3.42    6.15
  -3   3 -16    7.72    4.14
   3   3 -16    3.07    6.43
   3  -3  16   11.06    5.73
  -3  -3  16    2.37    6.34
   4   3 -16   -2.46    3.71
  -3   4 -16   -0.71    2.70
  -3   4 -16   -2.04    4.91
   4   3 -16   -0.46    6.10
  -4  -3  16   -4.69    6.33
   3  -4  16    0.43    4.59
  -2   4 -16   -4.25    2.94
   4   2 -16    1.56    4.16
  -2   4 -16   -0.35    5.01
   4   2 -16    0.47    5.89
  -4  -2  16   -2.26    5.76
   2  -4  16   -6.41    4.52
  -1   4 -16   10.30    5.39
   4   1 -16   13.30    7.75
  -1   4 -16    9.96    7.49
   1  -4  16   11.23    6.94
  -4  -1  16    7.54    7.51
   0   4 -16    2.31    5.49
   0   4 -16   -1.39    3.33
  -4   0  16    5.75    5.89
   0  -4  16   -1.49    5.12
   1   4 -16   21.12    5.79
   1   4 -16   23.05    7.91
  -4   1 -16    4.14    6.14
  -1  -4  16    3.92    7.45
   4  -1  16    9.62    6.78
  -4   2 -16    0.24    2.81
   2   4 -16   -3.70    3.31
   2   4 -16   -0.85    6.04
   4  -2  16   -0.99    5.20
   4  -2  16   -0.40    4.00
  -2  -4  16    5.23    5.45
   3   4 -16    3.99    5.87
  -4   3 -16    0.87    2.64
  -4   3 -16    7.49    5.72
   3   4 -16    1.95    3.50
   4  -3  16   -1.55    4.53
   4  -3  16   -0.96    4.82
  -3  -4  16    4.07    5.71
  -4   4 -16   -0.67    2.60
   4   4 -16    2.74    3.73
  -4   4 -16   -3.67    5.20
   4   4 -16   -0.46    6.17
   4  -4  16    3.69    4.58
   4  -4  16   -0.22    2.57
  -4  -4  16    1.23    6.10
  -4   5 -16    1.81    3.28
   5   4 -16    2.92    6.53
  -4   5 -16    5.46    5.25
   4  -5  16    7.42    4.95
  -5  -4  16   -0.65    6.40
   4  -5  16   -0.93    2.69
  -3   5 -16    3.93    4.98
  -3   5 -16   -0.52    2.96
   5   3 -16   -5.74    6.57
   3  -5  16   -0.62    4.52
   3  -5  16    1.52    2.74
  -5  -3  16   -4.29    6.77
  -2   5 -16   35.01   13.86
  -2   5 -16   23.30   11.28
   5   2 -16   25.05   13.44
  -5  -2  16   12.56   13.68
   2  -5  16   26.77   13.10
   2  -5  16   27.29   10.19
  -1   5 -16    2.55    5.47
   5   1 -16    3.78    5.32
   5   1 -16    5.78    6.46
  -1   5 -16    3.16    3.53
   1  -5  16   11.93    5.21
   1  -5  16    0.29    2.99
  -5  -1  16   -2.50    6.49
   5   0 -16   -1.71    5.37
   0   5 -16   -0.38    5.53
   0   5 -16    0.90    3.41
   5   0 -16    1.19    6.41
   0  -5  16    3.95    5.20
   0  -5  16   -0.63    3.07
  -5   0  16    0.39    5.74
   1   5 -16    1.89    3.56
  -5   1 -16    0.24    3.28
   1   5 -16   -5.61    5.98
  -1  -5  16   -1.68    3.48
  -1  -5  16   12.23    5.51
   5  -1  16    2.21    3.90
   2   5 -16   34.81   14.28
   2   5 -16   26.69   11.57
  -5   2 -16   15.74   13.01
  -2  -5  16   36.25   11.02
  -2  -5  16   21.39   13.67
   5  -2  16   28.94   15.05
   3   5 -16   -1.04    3.58
  -5   3 -16   -1.38    2.49
  -5   3 -16    1.51    2.65
   3   5 -16    2.20    6.17
  -5   3 -16    3.90    6.18
  -3  -5  16   -0.76    3.55
   5  -3  16   -0.26    4.91
  -3  -5  16   -0.29    5.98
   5  -3  16    0.70    3.66
   4   5 -16    1.81    3.92
   4   5 -16    0.46    6.18
  -4  -5  16    0.41    3.85
  -4  -5  16    4.88    6.39
   5   5 -16   -0.48    7.12
  -5  -5  16   -8.39    7.07
   6   5 -16  -18.91    7.73
   6   5 -16  -36.61   12.71
  -6  -5  16   -8.69    7.65
   6   4 -16   -9.67    8.19
  -4   6 -16   -0.62    4.08
  -4   6 -16    1.29    5.66
   6   4 -16   -2.67    4.37
  -6  -4  16  -26.56    7.79
   4  -6  16    0.27    3.34
   4  -6  16   -2.99    5.48
   6   3 -16   14.88    7.70
   6   3 -16   21.50   10.00
  -3   6 -16   12.13    7.60
  -3   6 -16   19.82    9.56
   3  -6  16   16.48    6.81
  -6  -3  16   15.74   10.09
   3  -6  16   16.41    9.02
  -2   6 -16    5.83    4.00
   6   2 -16    4.61    6.92
  -2   6 -16    3.75    5.91
   6   2 -16    1.27    4.78
   2  -6  16    0.30    3.34
   2  -6  16   18.28    5.54
  -6  -2  16   -6.80    7.19
   6   1 -16    4.96    6.37
   6   1 -16    6.52    8.21
  -1   6 -16    5.34    7.36
  -1   6 -16   13.50    5.58
   1  -6  16    7.91    4.72
  -6  -1  16    7.85    8.10
   1  -6  16    5.70    7.06
   6   0 -16    0.60    5.92
   0   6 -16    1.05    3.76
   0   6 -16   -5.56    5.77
   6   0 -16    2.42    6.73
  -6   0  16   -3.64    6.10
   6   0  16    3.46    3.69
   0  -6  16    4.02    3.31
   0  -6  16    3.99    5.44
   1   6 -16   11.68    6.48
   1   6 -16   17.41    8.02
  -1  -6  16   11.48    7.91
  -1  -6  16   12.09    5.83
   6  -1  16   14.51    7.74
   2   6 -16   -2.18    4.11
   2   6 -16    6.88    5.75
  -6   2 -16   -0.36    3.02
   6  -2  16    0.85    4.24
  -2  -6  16    6.41    3.75
  -2  -6  16    9.03    6.00
   6  -2  16    1.43    5.56
   3   6 -16    7.22    8.71
  -6   3 -16    2.63    6.29
   3   6 -16   19.30    6.94
   6  -3  16   14.50    9.56
  -3  -6  16    8.79    6.29
  -3  -6  16   23.04    8.81
   6  -3  16   11.93    7.59
   4   6 -16   -4.35    4.49
   4   6 -16  -17.91    7.88
   6  -4  16    0.32    4.19
   6  -4  16    1.00    6.56
  -4  -6  16   -5.08    4.47
  -5  -6  16  -12.12    7.77
   6   6 -16    1.06    7.56
   6   6 -16   -8.71    5.32
  -6  -6  16    6.67    4.54
  -6  -6  16    5.49    7.37
   7   6 -16    4.48   11.60
   7   6 -16   23.97    8.78
  -7  -6  16   38.94    8.43
  -7  -6  16   -0.73   11.29
   7   5 -16    5.11    5.08
   7   5 -16    4.82    7.79
  -7  -5  16   -7.30    8.02
  -7  -5  16    3.40    5.02
  -4   7 -16   14.17    5.82
   7   4 -16   12.54    5.99
  -4   7 -16    8.58    7.00
   7   4 -16   13.33    8.72
  -7  -4  16   -4.39    8.51
  -3   7 -16   14.60   11.09
   7   3 -16   26.68   11.62
   7   3 -16   11.55    8.29
  -3   7 -16    8.67    8.74
   3  -7  16    9.86    7.32
   3  -7  16    5.46   10.41
   7   2 -16    4.28   10.27
  -2   7 -16   20.45    8.31
  -2   7 -16   19.36    9.76
   7   2 -16   19.16    8.46
   2  -7  16   16.45    9.48
   2  -7  16   31.35    7.40
  -7  -2  16    0.76   10.76
  -1   7 -16   10.74    5.07
  -1   7 -16    4.68    6.14
   7   1 -16   10.16    7.74
   7   1 -16    6.22    6.06
   1  -7  16    2.89    4.07
  -7  -1  16   11.41    7.51
   1  -7  16    6.89    5.83
   7   0 -16    2.49    6.84
   0   7 -16    1.98    4.17
   0   7 -16   -0.37    5.35
   7   0 -16   -0.63    6.93
   0  -7  16   -3.79    3.37
  -7   0  16   -2.95    6.73
   7   0  16    0.28    4.14
   0  -7  16   -2.48    5.42
   1   7 -16   -3.69    4.81
  -7   1 -16    0.83    2.81
   1   7 -16    2.35    5.62
   7  -1  16    7.06    5.33
  -1  -7  16   -4.65    5.77
  -1  -7  16    0.40    3.74
  -7   2 -16   -0.39    6.94
   2   7 -16   19.57    7.67
   2   7 -16   22.94    8.98
  -2  -7  16   17.52    6.85
   7  -2  16   12.39   10.10
   7  -2  16   10.81    8.28
  -2  -7  16   11.09    8.93
  -7   3 -16    2.88    9.37
   3   7 -16   32.20   10.35
   3   7 -16   28.87   12.01
  -3  -7  16   55.78    9.85
   7  -3  16   12.03   10.55
   7  -3  16   -2.85   13.20
   4   7 -16    8.26    6.20
  -7   4 -16    6.19    5.20
   4   7 -16   12.74    7.61
  -7   4 -16    9.14    4.86
  -4  -7  16   10.57    7.39
  -4  -7  16    5.09    5.45
   7  -4  16    8.05    8.58
   7  -4  16    8.63    5.88
   5   7 -16   10.05    5.58
   5   7 -16   -6.77    6.92
  -5  -7  16    7.70    7.20
  -5  -7  16    3.91    4.69
   6   7 -16    0.52    9.76
  -6  -7  16   15.06    9.56
   8   7 -16   -4.95    6.13
  -8  -7  16    9.91    6.04
   8   5 -16   23.90    5.95
   8   5 -16  -11.83    9.60
  -8  -5  16   -7.76    8.68
  -8  -5  16   24.30    6.21
   8   4 -16    0.56    7.71
  -4   8 -16    2.22    5.71
   8   4 -16    0.86    5.20
  -8  -4  16    0.78    7.92
  -8  -4  16    9.74    5.40
  -3   8 -16    3.15    4.86
   8   3 -16    3.91    5.30
  -3   8 -16    4.27    5.94
   8   3 -16    6.02    7.96
   3  -8  16    2.53    4.35
  -8  -3  16    9.81    8.24
   8   2 -16    7.82    7.78
   8   2 -16   11.67    5.83
  -2   8 -16    7.80    6.19
  -2   8 -16   -4.54    5.95
   2  -8  16    8.84    4.82
  -8  -2  16    4.80    8.23
  -1   8 -16   -7.36    4.88
   8   1 -16   -2.69    6.00
   8   1 -16    2.94    7.39
  -1   8 -16    1.05    5.66
   1  -8  16    7.68    4.20
  -8  -1  16  -11.62    7.99
   0   8 -16   -5.18    5.11
   8   0 -16   -5.16    7.25
   0   8 -16   -3.29    5.52
   8   0 -16   -1.27    7.17
   8   0  16    1.58    5.42
   0  -8  16   -5.71    3.98
  -8   0  16   -2.65    7.05
  -8   1 -16    0.45    3.27
   1   8 -16   -0.97    4.79
   1   8 -16   -4.97    5.49
   8  -1  16   -1.60    5.05
   8  -1  16    2.00    5.72
  -1  -8  16    5.01    3.95
   2   8 -16   11.47    6.19
  -8   2 -16    2.53    4.37
   2   8 -16    5.23    6.62
   8  -2  16   12.18    7.48
   8  -2  16   12.57    6.29
  -2  -8  16    5.21    5.12
   3   8 -16    9.82    6.62
  -8   3 -16    1.60    4.08
   3   8 -16   13.90    6.07
  -3  -8  16   -3.47    5.09
   8  -3  16    4.70    5.19
  -3  -8  16    9.68    6.84
   8  -3  16    8.93    8.01
  -8   4 -16    0.76    4.20
   4   8 -16    9.60    6.04
   4   8 -16    0.91    6.94
  -8   4 -16    3.84    4.48
  -4  -8  16    9.86    5.36
   8  -4  16    7.36    5.21
  -4  -8  16    7.14    7.08
   8  -4  16    7.00    8.53
   5   8 -16    6.11    7.38
   8  -5  16   -2.32    9.20
  -5  -8  16   -5.27    7.42
   7   8 -16    1.20    7.25
   7   8 -16   33.72    8.42
  -7  -8  16    0.61    6.38
  -7  -8  16   -2.26    7.37
   8   8 -16    5.03    6.66
   8   8 -16  -20.00    9.70
  -8  -8  16   -1.63    8.78
  -8  -8  16    3.22    5.99
   9   8 -16  -42.54   10.39
   9   8 -16   -4.61    7.41
  -9  -8  16    0.88   10.19
  -9  -8  16    7.51    6.87
   9   7 -16    0.58    6.07
   9   7 -16    4.02   10.07
  -9  -7  16    8.67    6.21
  -9  -7  16  -10.32    9.42
   9   6 -16    8.02    6.12
  -9  -6  16   -0.57    5.76
   9   4 -16    5.27    8.52
  -9  -4  16    5.35    8.73
  -3   9 -16   17.24    9.42
   9   3 -16   17.87    8.03
   9   3 -16   14.99   10.74
  -9  -3  16    1.67   11.40
  -2   9 -16    4.65    5.65
   9   2 -16    0.98    5.84
   9   2 -16    2.34    7.74
   2  -9  16    6.65    4.69
  -9  -2  16   -0.42    7.78
  -1   9 -16    2.61    5.40
  -1   9 -16   -1.61    4.90
   9   1 -16   -1.84    7.72
   9   1 -16   -1.65    6.40
  -9  -1  16   14.91    8.34
   1  -9  16    1.54    4.55
   0   9 -16    2.72    5.85
   9   0 -16    3.34    7.69
   0   9 -16   -4.90    5.68
   9   0 -16   -3.28    7.28
   0  -9  16    6.24    4.94
  -9   0  16   15.36    8.11
   9   0  16   -0.71    5.66
  -9   1 -16   -0.48    3.54
   1   9 -16   -8.91    5.54
   1   9 -16    2.44    5.70
  -1  -9  16    0.53    4.71
   9  -1  16   -4.31    6.56
   9  -1  16   -1.71    6.25
   2   9 -16    2.57    6.07
   2   9 -16    2.27    5.86
  -9   2 -16    0.92    3.68
   9  -2  16    2.49    7.40
   9  -2  16    5.26    5.75
  -2  -9  16    1.65    4.91
   3   9 -16    9.05   10.11
  -9   3 -16    6.22    8.26
   3   9 -16   39.18    9.51
  -3  -9  16   37.11    8.71
   9  -3  16   10.44    9.47
   9  -3  16   13.78   12.52
  -9   4 -16    3.14    4.13
  -9   4 -16   -1.72    3.98
   9  -4  16   -4.95    8.51
   9  -4  16   -3.50    4.89
  -5  -9  16   -2.48    6.03
   9  -5  16   10.68    5.78
   9  -5  16    5.72    9.68
   6   9 -16   -1.65    7.39
   7   9 -16   -0.60    7.99
   7   9 -16   -3.36    6.41
  -7  -9  16   -2.39    8.11
  -7  -9  16   -2.05    6.60
   8   9 -16    0.70    7.15
   8   9 -16    0.68   10.09
  -8  -9  16  -12.96    7.44
  -8  -9  16   -2.57    9.81
   9   9 -16    0.73    7.62
   9   9 -16  -20.41   10.43
  -9  -9  16   11.12   10.09
  -9  -9  16   -1.53    6.82
  10   9 -16   -9.95    7.63
  10   9 -16    6.29   11.23
 -10  -9  16    5.55   11.18
 -10  -9  16   -3.24    7.28
  10   8 -16   -2.19   10.84
  10   8 -16    6.92    7.75
 -10  -8  16    0.73    6.72
 -10  -8  16    2.42   10.59
  10   7 -16   12.85   11.24
  10   7 -16    2.44    7.30
 -10  -7  16   16.24   10.91
 -10  -7  16    3.31    6.83
  10   6 -16  -15.25    8.12
  10   6 -16   -1.99   12.05
 -10  -6  16  -11.60    7.90
 -10  -6  16  -18.46   12.53
  10   5 -16   -0.51    5.89
 -10  -5  16   -1.76    5.84
  10   3 -16    1.20    8.89
  -3  10 -16    1.42    5.41
 -10  -3  16    0.44    9.42
  10   2 -16   -3.66    8.66
  -2  10 -16    8.87    6.13
  10   2 -16   12.79    6.84
 -10  -2  16    8.95    9.28
  10   1 -16   -2.84    6.96
  10   1 -16   -1.92    8.55
  -1  10 -16   -2.70    6.04
  10   1  16    2.28    5.81
 -10  -1  16  -10.19    9.00
   0  10 -16   -8.08    6.13
  10   0 -16    0.67    7.51
 -10   0 -16    0.55    4.00
 -10   0  16   -4.42    8.24
  10   0  16   -1.18    6.59
   0 -10  16   -0.62    4.97
 -10   1 -16    2.64    3.73
   1  10 -16    0.85    6.00
  10  -1  16   -1.84    6.48
  -1 -10  16    3.12    5.35
  10  -1  16   -2.19    7.22
 -10   2 -16   -2.54    4.12
   2  10 -16    5.08    6.79
  10  -2  16    6.82    9.32
  10  -2  16    1.11    6.35
 -10   3 -16    1.98    4.51
  10  -3  16   -0.53    5.65
  10  -3  16    1.03    9.73
   4  10 -16    7.53    8.20
 -10   4 -16   10.21    6.80
 -10   4 -16    9.30    7.58
  10  -4  16    8.88    8.16
  10  -4  16   21.16   12.27
  -4 -10  16    0.68    7.37
   5  10 -16   -3.53    6.82
   5  10 -16   -0.56    7.66
 -10   5 -16    0.73    4.80
 -10   5 -16    0.46    4.17
  10  -5  16    1.16    9.58
  10  -5  16   -3.89    6.82
  -5 -10  16    2.13    6.34
   6  10 -16  -22.21   10.11
   7  10 -16   -2.27    7.68
   7  10 -16   10.32    9.47
  -7 -10  16   -7.77    6.61
   8  10 -16   11.14   10.05
   8  10 -16   -0.79    7.79
  -8 -10  16    0.82    6.93
   9  10 -16  -16.35    7.93
   9  10 -16    3.82   10.69
  -9 -10  16    2.58    7.58
  -9 -10  16   -6.01   10.31
  10  10 -16   -1.70    8.65
  10  10 -16  -17.37   12.70
 -10 -10  16    0.91    8.58
 -10 -10  16    0.54   11.58
  11  10 -16   13.34    9.34
  11  10 -16   21.55   14.04
 -11 -10  16   -1.18   12.70
 -11 -10  16   -7.67    9.07
  11   9 -16    1.60    8.49
  11   9 -16  -17.89   12.76
 -11  -9  16    6.57   11.96
 -11  -9  16   -5.15    7.61
  11   8 -16  -10.17    8.25
  11   8 -16  -10.98   11.72
 -11  -8  16   -4.62    7.01
 -11  -8  16   -2.62   12.01
  11   7 -16   -3.21    7.72
  11   7 -16   -3.80   11.43
 -11  -7  16   -0.70    7.37
 -11  -7  16   24.50   11.98
  11   6 -16    2.79   10.10
  11   6 -16   13.73    7.09
 -11  -6  16   -4.57    6.49
 -11  -6  16    2.41   10.45
  11   5 -16  -14.78   10.02
  11   5 -16    2.15    6.65
 -11  -5  16    1.89   10.27
 -11  -5  16   -0.62    6.21
  11   4 -16   -0.64    8.33
  11   4 -16   -2.59    6.78
 -11  -4  16    1.23    6.21
  -3  11 -16   -6.39    6.40
  -2  11 -16    2.75    6.24
  -1  11 -16    2.88    6.45
  11   1 -16  -11.32    9.45
 -11  -1  16    4.40    9.43
   0  11 -16    4.77    6.25
 -11   0 -16    0.60    4.25
  11   0  16    5.67    6.35
 -11   0  16    1.04    8.74
 -11   1 -16   -0.58    5.98
  11  -1  16   30.57    8.80
  11  -1  16   10.00    8.11
 -11   2 -16   -0.56    4.84
  11  -2  16   -6.70    6.45
  11  -2  16   13.55    9.11
 -11   3 -16   -1.11    4.99
   3  11 -16   -2.09    7.43
 -11   3 -16   -0.82    6.45
  11  -3  16   -5.31    7.76
  11  -3  16    9.48   10.72
 -11   4 -16    6.03    5.33
   4  11 -16   -7.27    8.30
 -11   4 -16   -5.66    5.61
  11  -4  16   18.03   12.18
  -4 -11  16   -7.83    7.08
  11  -4  16  -15.00    7.59
 -11   5 -16    4.13    5.47
 -11   5 -16    0.53    5.02
   5  11 -16    3.08    8.65
  11  -5  16   -1.65    7.50
  -5 -11  16    0.81    7.17
   6  11 -16   13.96    9.59
  11  -6  16   -2.13    6.68
  -6 -11  16   -0.84    7.58
   7  11 -16   22.98   12.51
   8  11 -16   -2.32   10.65
  -8 -11  16   -0.92    8.46
   9  11 -16   13.39   12.19
  -9 -11  16   -0.97    9.40
  10  11 -16    3.65   12.85
 -10 -11  16   -4.06    9.67
  11  11 -16   -9.42   16.28
 -11 -11  16   -7.50   10.25
 -11 -11  16  -18.05   14.28
  12  11 -16   -5.66   17.51
 -12 -11  16   -9.78   15.65
  12  10 -16   -0.93    9.78
  12  10 -16   23.33   14.81
 -12 -10  16  -28.85   13.94
 -12 -10  16    9.12    8.82
  12   9 -16    6.45   13.61
  12   9 -16    4.21    8.74
 -12  -9  16  -12.06   13.06
 -12  -9  16   15.48    8.54
  12   8 -16    5.29   14.78
  12   8 -16   22.13   10.24
 -12  -8  16   -4.10   10.25
 -12  -8  16   29.40   14.49
  12   7 -16   -9.60   12.08
  12   7 -16   -7.00    8.52
 -12  -7  16   16.11   11.80
 -12  -7  16    6.74    7.23
  12   6 -16   -2.91   10.71
  12   6 -16    0.63    7.21
 -12  -6  16  -13.40   11.48
 -12  -6  16   -4.88    7.18
  12   5 -16    5.36    6.83
  12   5 -16   -9.81   10.70
 -12  -5  16   11.00   11.08
 -12  -5  16    0.66    7.01
  12   4 -16   -2.73    6.50
  12   4 -16   -5.97   10.07
 -12  -4  16   -3.25    6.80
 -12  -4  16   -4.46   11.37
  12   3 -16   -1.30    9.94
  12   3 -16    4.28    7.38
 -12  -3  16    2.63    7.71
 -12  -3  16   41.52   11.27
  12   2 -16    5.53    7.13
  12   1  16    0.93    7.92
 -12   0 -16    4.56    9.48
  12   0  16   53.01   11.87
  12   0  16   12.20   13.03
  12  -1  16   11.82   10.17
  12  -2  16    9.01   11.58
 -12   3 -16    0.92    7.08
  12  -3  16    1.97   11.78
 -12   4 -16   -4.55    6.83
  12  -4  16   -7.59   11.66
 -12   5 -16   -3.73    6.17
  12  -5  16    7.89   11.89
 -12   6 -16    2.87    7.71
 -12   6 -16   12.07    7.20
  12  -6  16    8.93   12.81
  12  -6  16   23.28    8.25
  13  11 -16   -1.22   19.52
 -13 -11  16  -30.48   18.78
  13  10 -16   17.40   10.00
  13  10 -16   -5.49   17.46
 -13 -10  16   12.85    9.55
 -13 -10  16  -24.73   15.91
  13   9 -16  -15.57   16.27
  13   9 -16    1.76    9.88
 -13  -9  16   -0.96    9.87
 -13  -9  16  -31.34   15.64
  13   8 -16  -16.79   14.74
  13   8 -16    5.60    8.59
 -13  -8  16   -4.88   13.57
 -13  -8  16   -3.49    8.24
  13   7 -16    5.86   12.70
  13   7 -16   -0.74    8.30
 -13  -7  16    5.18   13.07
 -13  -7  16    7.96    8.09
  13   6 -16    1.58   12.85
  13   6 -16   -5.95    7.86
 -13  -6  16   12.60    8.06
 -13  -6  16  -24.26   13.77
  13   5 -16    5.82   10.04
  13   5 -16   -4.39    7.44
 -13  -5  16    6.31    7.00
 -13  -5  16   12.14   11.96
  13   4 -16   -7.61    9.78
  13   4 -16   -2.31    7.26
 -13  -4  16   -6.80   10.69
 -13  -4  16    1.38    6.98
  13   3 -16    5.13    6.74
  13   3 -16    2.71    9.08
 -13  -3  16    2.59   10.63
 -13  -3  16   -0.69    7.38
  13   2 -16    0.57    6.97
  13   2 -16   14.37    9.86
 -13  -2  16   -1.05   10.54
  13   1 -16  -10.81    8.69
  13   1 -16   -1.23    7.47
  13   1  16   10.26    8.94
 -13  -1  16    0.54    9.93
 -13   0 -16   -2.85    5.24
  13   0 -16   -4.81    8.42
  13   0  16   -2.81    9.97
  13   0  16   -5.86    8.59
 -13   1 -16   -4.21    5.30
  13  -1 -16   13.80    9.68
  13  -1  16  -21.61    8.67
  13  -1  16  -18.06   11.33
 -13   2 -16   -3.48    5.45
  13  -2  16   -5.31   12.33
  13  -2  16    5.97    7.92
 -13   3 -16    1.03    7.37
 -13   3 -16    0.70    6.36
  13  -3  16   -9.57    7.33
  13  -3  16   -5.81   12.29
 -13   4 -16   -3.13    6.93
 -13   4 -16   -9.03    6.23
  13  -4  16    4.90    7.87
  13  -4  16    6.87   13.02
 -13   5 -16    7.38    6.71
 -13   5 -16   -2.09    7.31
  13  -5  16   -2.79    7.73
  13  -5  16    7.13   13.23
 -13   6 -16   -3.21    6.85
 -13   6 -16   -2.71    6.57
  13  -6  16   -9.84   13.70
  13  -6  16   32.98    9.29
  14  11 -16    7.93   21.66
 -14 -11  16   25.65   20.43
  14  10 -16  -43.56   19.31
 -14 -10  16    0.76   18.46
 -14 -10  16   -4.51   10.44
  14   9 -16    0.92   10.86
  14   9 -16  -34.15   18.55
 -14  -9  16   -5.10   10.45
 -14  -9  16  -18.29   17.16
  14   8 -16    4.88   14.73
  14   8 -16   -0.84    9.08
 -14  -8  16   11.10   14.54
 -14  -8  16   -0.93    9.21
  14   7 -16    8.69   11.77
  14   7 -16   -0.77    8.69
 -14  -7  16   11.85    8.50
 -14  -7  16  -39.24   14.82
  14   6 -16    6.24    7.96
  14   6 -16   -8.14   12.93
 -14  -6  16    0.79    7.85
 -14  -6  16    2.91   12.86
  14   5 -16   -1.50   10.97
  14   5 -16   -0.66    8.15
 -14  -5  16   15.21   12.68
 -14  -5  16   -5.95    7.25
  14   4 -16    2.42    8.02
  14   4 -16   -0.71   12.00
 -14  -4  16   -5.78    8.73
 -14  -4  16  -20.92   13.66
  14   3 -16   -0.59    7.30
  14   3 -16  -14.72    9.71
 -14  -3  16    3.62    8.06
 -14  -3  16   23.94   11.51
  14   2 -16    4.17    7.47
  14   2 -16   -4.96   10.58
 -14  -2  16    6.71    8.31
 -14  -2  16   24.82   11.27
 -14  -1 -16   -5.58    6.04
  14   1  16    7.14    9.86
 -14  -1  16   15.93   10.83
 -14   0 -16   -7.85    5.74
  14   0  16   -3.71   10.81
  14   0  16    2.74    9.77
 -14   1 -16    0.78    5.68
  14  -1  16   13.24    9.04
  14  -1  16   -6.17   12.35
 -14   2 -16    1.55    6.36
 -14   2 -16    1.13    7.90
  14  -2  16   -0.83    8.05
  14  -2  16  -30.62   13.68
 -14   3 -16   -3.42    8.58
 -14   3 -16   11.67    7.17
  14  -3  16  -28.82   14.61
  14  -3  16   16.40    9.62
 -14   4 -16    1.17    8.83
 -14   4 -16    5.46    8.16
  14  -4  16  -24.63   16.36
 -14   5 -16   -3.52    8.44
 -14   5 -16   14.32    7.87
  14  -5  16   -4.36   14.80
  14  -5  16   29.65    9.79
 -14   6 -16    5.30    6.91
 -14   6 -16   -1.20    7.62
  14  -6  16  -23.47   14.06
  14  -6  16    2.34    8.88
  14  -7  16    0.92   13.58
  15  11 -16   11.32   22.03
 -15 -11  16   12.69   22.28
  15  10 -16  -10.49   18.83
 -15 -10  16   30.89   11.05
 -15 -10  16  -16.47   18.12
  15   9 -16   10.39   17.98
  15   9 -16    1.91    9.71
 -15  -9  16    4.31    9.66
 -15  -9  16   -4.53   18.13
  15   8 -16    1.74   10.23
  15   8 -16   -5.06   16.67
 -15  -8  16   -2.78   16.33
 -15  -8  16   -6.86    9.94
  15   7 -16    2.79   13.47
  15   7 -16    2.41    8.55
 -15  -7  16  -13.68   14.98
 -15  -7  16    1.79    8.70
 -15  -6  16    0.83    8.78
 -15  -6  16   12.81   13.64
 -15  -1 -16   -3.50    7.48
  15   1  16   25.59   11.26
 -15   0 -16    2.60    6.14
  15   0  16    9.03    9.73
  15   0  16   -9.32   12.22
 -15   1 -16   -6.04    6.26
  15  -1  16    2.92   10.04
  15  -1  16  -10.59   13.61
 -15   2 -16   -4.99    9.38
 -15   2 -16    2.59    7.31
  15  -2  16    7.35    9.73
  15  -2  16   28.13   14.61
 -15   3 -16    6.96    7.97
 -15   3 -16   -2.52    8.47
  15  -3  16   10.96    9.91
  15  -3  16    0.88   14.68
 -15   4 -16    0.87    7.77
 -15   4 -16    1.30    9.02
  15  -4  16    0.91    9.95
  15  -4  16   22.34   15.80
 -15   5 -16    6.56    8.86
 -15   5 -16   -6.12    8.36
  15  -5  16    7.67   15.95
  15  -5  16   18.22   10.26
 -15   6 -16    6.75    8.07
 -15   6 -16    1.34    8.86
  15  -6  16    5.18    9.84
  15  -6  16    7.94   15.97
  15  -7  16  -27.25   15.71
  15  -7  16    0.87   10.79
 -16  -1 -16    0.96    7.77
  16   1  16  -16.67   12.68
 -16   0 -16   -4.79    7.04
  16   0  16   -7.72   11.12
  16   0  16   18.17   13.26
 -16   1 -16    5.75    7.41
  16  -1  16  -42.42   16.12
  16  -1  16    4.30   11.82
 -16   2 -16    1.37   10.66
 -16   2 -16   -0.96    7.17
  16  -2  16    1.02   10.22
  16  -2  16   -2.72   15.49
 -16   3 -16    6.79    7.96
 -16   3 -16    1.40    9.12
  16  -3  16    6.08   10.75
  16  -3  16   -2.89   15.77
 -16   4 -16    4.87    9.46
 -16   4 -16   -1.45   10.87
  16  -4  16   21.37   17.39
  16  -4  16   11.11   11.77
 -16   5 -16   35.16   23.53
 -16   5 -16   14.61   22.30
  16  -5  16  116.57   33.99
 -16   6 -16   -1.50   10.93
 -16   6 -16   -1.87    9.26
  16  -6  16  -33.42   13.02
 -16   7 -16   -6.11    8.86
 -16   7 -16   -1.86    9.00
  16  -7  16  -24.66   10.89
  16  -7  16    4.42   16.52
 -17  -1 -16  -11.69   10.15
  17   1  16  -66.49   17.30
 -17   0 -16   -7.43   12.02
  17   0  16  -32.80   16.68
  17   0  16  -54.97   19.90
 -17   1 -16   -7.46    9.48
 -17   1 -16   -1.48   12.26
  17  -1  16  -15.47   14.12
  17  -1  16  -24.53   18.66
 -17   2 -16   -3.02   10.29
 -17   2 -16   -1.07    8.06
  17  -2  16   -4.52   11.97
  17  -2  16   -3.00   17.67
 -17   3 -16   10.79   10.49
 -17   3 -16   -6.31   10.37
  17  -3  16   -8.42   17.71
  17  -3  16  -12.34   12.19
 -17   4 -16  -17.74   10.16
 -17   4 -16   -4.34   10.10
  17  -4  16   14.52   12.71
  17  -4  16  -17.74   18.95
 -17   5 -16   -3.31   11.33
 -17   5 -16  -18.42   11.11
  17  -5  16    1.15   19.78
  17  -5  16  -14.90   11.50
 -17   6 -16   -1.68   10.50
 -17   6 -16  -11.41    9.61
  17  -6  16    5.26   11.88
  17  -6  16   36.91   18.67
 -17   7 -16  -10.28    9.50
 -17   7 -16   -3.41    9.60
  17  -7  16    1.04   11.82
  17  -7  16    3.64   18.23
  17  -8  16  -26.26   22.79
 -18  -1 -16   -9.41    8.81
  18   1  16   -0.93   15.54
 -18   0 -16    2.36    8.48
 -18   0 -16   -7.99   11.51
  18   0  16    5.36   12.78
  18   0  16   -8.66   16.74
 -18   1 -16   -1.63   11.87
 -18   1 -16   -1.18    8.57
  18  -1  16   10.37   18.08
  18  -1  16    2.63   14.26
 -18   2 -16   -3.33   10.87
 -18   2 -16  -10.72    8.79
  18  -2  16    5.21   13.76
  18  -2  16   21.89   18.29
 -18   3 -16    1.74   11.44
 -18   3 -16    3.60    9.89
  18  -3  16  -34.83   19.56
  18  -3  16    1.24   13.54
 -18   4 -16   -3.57   11.81
 -18   4 -16   14.48   10.99
  18  -4  16   13.27   20.13
  18  -4  16   -6.18   13.20
 -18   5 -16   -3.68   13.61
 -18   5 -16    1.20   12.11
  18  -5  16   30.64   14.56
  18  -5  16   17.52   19.58
 -18   6 -16   -1.87   10.89
 -18   6 -16   11.90   11.48
  18  -6  16   23.11   13.55
  18  -6  16  -14.30   19.37
 -18   7 -16   -1.13   11.00
 -18   7 -16    1.93   10.64
  18  -7  16  -26.11   13.29
   0   1 -17   33.48   15.83
   0  -1  17   34.21   16.92
   1   1 -17   -3.83    6.07
   1   1 -17    1.23    4.17
  -1   1 -17    3.53    3.69
  -1  -1  17    2.77    5.73
   2   1 -17    1.31    4.56
  -1   2 -17   -0.32    3.49
   2   1 -17    0.54    5.93
  -1   2 -17   -1.91    5.87
   1  -2  17   -0.30    5.36
  -2  -1  17    6.99    5.73
   0   2 -17    5.07    3.93
   0   2 -17   -5.20    6.64
   0  -2  17    5.74    5.70
  -2   1 -17   -1.31    3.54
   1   2 -17   -5.26    6.04
   1   2 -17   -2.51    3.96
  -1  -2  17    1.85    5.72
  -2   2 -17    3.48    6.16
  -2   2 -17   -3.57    3.15
   2   2 -17   -1.95    5.84
   2   2 -17   -0.76    4.15
   2  -2  17    3.06    5.34
  -2  -2  17    7.33    5.55
  -2   3 -17   14.71   10.55
  -2   3 -17   21.09    8.73
   3   2 -17   21.44   10.65
   3   2 -17   24.91    8.87
  -3  -2  17   16.94   10.26
   2  -3  17   12.06    9.78
  -1   3 -17   10.47    3.73
   3   1 -17    7.91    5.24
  -1   3 -17    2.96    5.99
   3   1 -17    1.09    6.39
  -3  -1  17   -2.50    5.97
   1  -3  17    2.70    5.80
   0   3 -17    9.24    5.17
   0   3 -17    7.34    7.14
   0  -3  17    9.52    6.93
   1   3 -17    7.15    3.92
   1   3 -17   -1.78    5.72
  -3   1 -17   -0.60    3.84
   3  -1  17    5.06    3.50
  -1  -3  17    3.21    5.59
   2   3 -17   18.91   10.20
  -3   2 -17   11.09    8.78
   2   3 -17   24.35    8.27
   3  -2  17   11.35    9.87
  -2  -3  17   17.41   10.09
  -3   3 -17   -0.51    3.04
  -3   3 -17   -2.13    5.96
   3   3 -17   -1.09    3.89
   3   3 -17    5.71    6.51
   3  -3  17   -2.35    4.92
  -3  -3  17   -2.89    5.66
  -3   4 -17   10.73    6.03
   4   3 -17   11.46    6.34
   4   3 -17    5.45    8.56
  -3   4 -17   20.45    8.42
   3  -4  17    2.82    7.57
  -4  -3  17   10.14    8.65
   4   2 -17   32.64   12.31
   4   2 -17   27.30   14.33
  -2   4 -17   41.11   14.51
  -2   4 -17   32.26   12.24
  -4  -2  17   11.79   14.35
   2  -4  17   20.36   13.81
  -1   4 -17   20.34    5.75
   4   1 -17    6.76    6.96
   4   1 -17   14.44    8.28
  -1   4 -17    8.47    7.86
   1  -4  17    3.31    7.38
  -4  -1  17    4.43    7.84
   0   4 -17    1.51    3.46
   0   4 -17   -4.62    5.72
  -4   0  17    5.76    6.16
   0  -4  17   -0.27    5.63
  -4   1 -17    1.94    6.73
   1   4 -17   11.83    8.57
   1   4 -17   19.37    6.35
   4  -1  17   12.90    7.39
  -1  -4  17   19.26    8.27
   2   4 -17   32.72   11.79
  -4   2 -17   21.08   13.42
   2   4 -17   21.94   14.53
  -2  -4  17   28.67   14.42
  -4   3 -17   16.72    6.90
  -4   3 -17    5.78    9.04
   3   4 -17   18.61    9.36
   3   4 -17   23.88    6.81
  -3  -4  17    8.82    8.90
   4  -3  17    8.87    8.31
  -4   4 -17   -1.91    2.85
   4   4 -17   -3.99    6.59
  -4   4 -17   -2.61    5.04
   4   4 -17   -0.74    4.06
   4  -4  17    6.64    5.09
  -4  -4  17   -0.33    6.50
  -4   5 -17    5.51    3.44
  -4   5 -17    7.04    5.66
   5   4 -17  -25.55    9.85
   4  -5  17    3.46    2.96
   4  -5  17   -1.28    4.98
   5   3 -17   27.38   14.31
  -3   5 -17   28.83   14.62
  -3   5 -17   22.48   11.92
  -5  -3  17   19.96   14.42
   3  -5  17   27.53   10.45
   3  -5  17   16.85   13.70
  -2   5 -17    9.76    6.15
  -2   5 -17    1.75    4.01
   5   2 -17    5.87    6.83
   2  -5  17    1.69    5.76
   2  -5  17    7.61    3.54
  -5  -2  17    6.56    7.04
  -1   5 -17    5.91    7.20
  -1   5 -17    6.74    5.16
   5   1 -17   17.09    8.14
   1  -5  17   15.17    4.74
  -5  -1  17   -0.77    7.99
   1  -5  17    4.08    7.23
   0   5 -17    8.26    5.99
   5   0 -17   -3.64    6.22
   0   5 -17    0.32    3.71
   0  -5  17    6.71    5.70
   0  -5  17   -3.73    3.60
  -5   0  17   -0.84    6.28
   1   5 -17    8.64    7.81
  -5   1 -17    0.25    5.90
   1   5 -17   14.43    5.79
   5  -1  17   15.91    6.70
  -1  -5  17   15.22    5.44
  -1  -5  17    9.33    7.52
   2   5 -17    0.35    4.06
  -5   2 -17   -1.42    3.48
   2   5 -17   13.99    6.88
   5  -2  17    4.12    4.99
  -2  -5  17    6.55    3.88
  -2  -5  17   -4.76    6.25
   3   5 -17   33.92   15.66
   3   5 -17   32.34   12.82
  -3  -5  17   37.53   15.39
  -3  -5  17   22.11   12.33
   4   5 -17  -21.71    8.51
   4   5 -17   -5.02    5.11
  -4  -5  17  -13.46    5.43
   6   5 -17  -12.48    8.80
   6   5 -17   -9.43    5.47
  -6  -5  17   -1.11    8.52
  -4   6 -17    3.10    3.94
  -4   6 -17    3.48    5.89
   6   4 -17   -2.06    5.36
   6   4 -17    1.64    7.53
  -6  -4  17   -3.70    7.66
   6   3 -17   -2.13    5.02
  -3   6 -17   -2.96    6.25
   6   3 -17   13.49    8.33
  -3   6 -17    1.62    3.72
   3  -6  17    0.46    5.69
   3  -6  17   -2.64    3.05
  -6  -3  17    5.27    7.56
   6   2 -17   11.09   12.23
  -2   6 -17   35.82   12.76
  -2   6 -17   24.13   10.04
   6   2 -17   25.91   10.08
   2  -6  17   10.59    8.70
  -6  -2  17   11.89   12.37
   2  -6  17   26.21   11.92
   6   1 -17    1.61    5.61
  -1   6 -17   -7.33    6.51
  -1   6 -17    6.01    3.98
   6   1 -17   -0.59    7.02
   1  -6  17    1.66    3.30
  -6  -1  17   -5.21    7.11
   1  -6  17   -4.89    5.69
   0   6 -17    2.82    3.94
   0   6 -17    0.42    6.22
   6   0 -17   -1.28    6.89
  -6   0  17   -2.60    6.78
   0  -6  17   -4.24    3.35
   0  -6  17    8.10    5.88
   6   0  17   -1.26    3.74
   1   6 -17    0.44    6.21
   1   6 -17   -1.10    4.14
   6  -1  17    1.59    4.38
  -1  -6  17   11.85    6.26
  -1  -6  17   -3.76    3.83
   2   6 -17   24.44   12.38
   2   6 -17   28.19    9.78
   6  -2  17   21.41   13.36
  -2  -6  17   21.14    8.85
  -2  -6  17    6.50   11.94
   3   6 -17    1.19    7.51
  -3  -6  17   35.23    7.89
   4   6 -17    7.60    7.93
   4   6 -17  -23.25    6.77
  -4  -6  17   -6.29    5.93
  -4  -6  17  -20.92    8.17
   5   6 -17   -3.20    8.71
   5   6 -17   -8.71    5.43
  -5  -6  17  -14.86    8.04
  -5  -6  17   -0.47    5.18
   6   6 -17    1.13    8.51
  -6  -6  17  -10.28    8.27
   7   5 -17   21.77    5.08
   7   5 -17   -6.27    7.80
  -7  -5  17   -7.42    8.25
  -7  -5  17    1.04    4.53
   7   4 -17   -0.44    5.25
   7   4 -17    2.29    8.13
  -7  -4  17   -3.13    7.70
  -3   7 -17   50.38   18.03
   7   3 -17   24.39   16.95
  -3   7 -17   29.60   14.66
   7   3 -17   39.91   13.72
  -7  -3  17   32.67   17.50
   3  -7  17   23.50   12.82
   3  -7  17   20.00   16.98
   7   2 -17  -12.63    6.10
   7   2 -17    2.31    7.55
  -2   7 -17   -3.57    4.38
  -2   7 -17    6.78    5.92
  -7  -2  17    2.43    7.67
   2  -7  17    1.77    3.59
  -1   7 -17   -3.17    4.62
   7   1 -17    3.04    7.79
  -1   7 -17    9.77    6.11
   7   1 -17   12.93    6.65
  -7  -1  17    0.42    7.71
   1  -7  17    0.26    6.05
   1  -7  17    5.57    4.00
   7   0 -17    2.69    7.63
   0   7 -17  -16.44    5.18
   0   7 -17   -5.66    6.31
   7   0  17    3.38    5.25
  -7   0  17   -3.61    7.31
   0  -7  17  -10.42    6.79
   0  -7  17   -8.57    4.47
   1   7 -17    3.79    6.95
   1   7 -17    0.43    4.91
  -1  -7  17    5.33    4.18
  -1  -7  17   -0.28    6.82
   7  -1  17    6.62    5.63
   2   7 -17    5.28    6.49
  -7   2 -17    0.82    3.49
   2   7 -17   -0.88    5.01
   7  -2  17    4.01    5.81
  -2  -7  17   -5.19    4.26
  -2  -7  17   -7.85    6.43
   7  -2  17   -3.35    4.96
   3   7 -17   26.17   14.77
   3   7 -17   24.94   16.90
   7  -3  17   20.78   19.70
  -3  -7  17   51.92   16.58
   7  -3  17   28.45   15.83
  -3  -7  17   40.57   13.70
   4   7 -17   -2.93    7.15
   4   7 -17    6.69    5.37
  -4  -7  17    1.63    7.12
  -4  -7  17   -0.48    4.54
   5   7 -17   -0.52    7.47
  -5  -7  17   -1.02    3.84
  -5  -7  17   -0.69    7.32
   7   7 -17   -2.73    6.13
  -7  -7  17   -1.14    5.71
   8   7 -17    2.30    6.03
   8   7 -17   -0.66   10.14
  -8  -7  17   -1.21    6.13
  -8  -7  17   -3.38    9.32
   8   6 -17   -1.02    5.63
  -8  -6  17    1.13    5.54
   8   4 -17   10.18    9.37
  -8  -4  17   10.36    9.31
   8   3 -17   -3.79    5.66
  -3   8 -17   -0.45    4.82
  -3   8 -17   11.44    5.89
   8   3 -17   10.66    8.08
  -8  -3  17   -3.80    8.06
   3  -8  17    9.86    4.10
   3  -8  17   -2.17    6.07
  -2   8 -17   15.32    7.61
   8   2 -17   15.67    9.09
  -2   8 -17   17.83    6.33
   8   2 -17    7.65    7.05
  -8  -2  17   19.67    9.45
   2  -8  17    3.01    7.33
   2  -8  17    6.23    5.54
  -1   8 -17    1.19    6.06
   8   1 -17   -2.53    8.04
  -1   8 -17   -2.81    5.07
   8   1 -17    1.76    6.42
   1  -8  17    8.12    4.21
   1  -8  17   -2.34    5.73
  -8  -1  17   -3.98    8.02
   8   0 -17   -0.69    7.44
   0   8 -17    3.86    5.09
   0   8 -17   -0.41    6.33
   0  -8  17   -0.44    4.15
  -8   0  17   14.61    8.09
   8   0  17    2.26    5.42
   0  -8  17    0.54    6.09
   1   8 -17   -4.47    4.90
   1   8 -17    8.16    6.30
  -1  -8  17   -3.08    6.12
  -1  -8  17   -3.24    4.35
   8  -1  17   -0.68    5.71
   2   8 -17    7.18    6.02
   2   8 -17    5.39    7.29
  -8   2 -17    0.88    4.36
  -2  -8  17   10.24    7.16
  -2  -8  17   -0.97    5.34
   8  -2  17    5.29    7.72
   8  -2  17    4.55    6.01
   3   8 -17    5.20    6.50
  -8   3 -17   -1.24    3.31
   3   8 -17   -2.65    5.89
  -3  -8  17    5.07    5.00
   8  -3  17    0.88    5.39
   8  -3  17    0.83    7.95
  -3  -8  17    6.76    6.66
   4   8 -17   -0.50    7.17
  -4  -8  17   -2.92    7.18
   6   8 -17    0.57    6.85
   7   8 -17   -2.44    9.13
   7   8 -17   -8.06    6.82
  -7  -8  17   -0.40    8.72
  -7  -8  17    3.75    6.00
   8   8 -17    1.30    8.29
   8   8 -17   16.47   11.09
  -8  -8  17   24.25   10.79
  -8  -8  17    0.66    7.93
   9   8 -17    2.73    7.60
   9   8 -17   -0.71   10.14
  -9  -8  17   10.54    6.86
  -9  -8  17   -4.21    9.92
   9   7 -17    9.67    7.23
   9   7 -17   13.42   10.83
  -9  -7  17   -2.73   10.52
  -9  -7  17    0.65    6.95
   9   6 -17  -17.26   11.50
   9   6 -17  -10.13    7.56
  -9  -6  17  -25.35    7.48
  -9  -6  17  -24.64   11.63
   9   5 -17    2.04    5.81
  -9  -5  17   -4.69    5.89
   9   3 -17   -0.62    8.66
  -3   9 -17   12.98    6.58
  -9  -3  17    4.02    9.81
   3  -9  17    6.50    5.15
  -2   9 -17    2.98    5.71
   9   2 -17   -0.63    8.05
   9   2 -17    7.49    5.50
  -2   9 -17   -1.06    5.15
   2  -9  17   -7.48    4.38
  -9  -2  17    4.06    8.56
  -1   9 -17    7.57    5.30
   9   1 -17    1.97    8.01
  -1   9 -17    3.09    5.84
   9   1 -17    3.60    7.02
   1  -9  17   -4.55    4.71
  -9  -1  17    8.39    8.24
   0   9 -17    4.42    6.17
   9   0 -17   -2.13    8.02
   0   9 -17    7.18    5.78
  -9   0  17    6.93    7.80
   0  -9  17   -6.20    4.90
   9   0  17   -6.10    5.94
   1   9 -17   -5.64    6.05
   1   9 -17    2.10    5.88
  -9   1 -17   -1.01    3.79
   9  -1  17    0.40    6.61
  -1  -9  17    0.53    5.02
   2   9 -17   27.81    6.05
   2   9 -17   -6.17    6.55
  -9   2 -17    1.91    3.84
   9  -2  17   -1.09    6.80
   9  -2  17   -1.69    7.55
  -2  -9  17    7.17    4.82
  -9   3 -17    0.45    4.27
   9  -3  17    8.90    9.08
   9  -3  17    9.20    6.05
   9  -4  17   18.65   12.35
   9  -4  17   11.53    8.27
   5   9 -17  -19.79    7.43
   5   9 -17  -10.84    6.65
  -5  -9  17  -12.58    6.39
   6   9 -17    3.61    9.78
  -6  -9  17    0.38    9.49
   7   9 -17   23.88   10.12
   7   9 -17    4.82    7.49
  -7  -9  17   -5.33    9.66
  -7  -9  17    4.18    6.94
   8   9 -17    6.95    9.97
   8   9 -17   -0.72    7.42
  -8  -9  17    0.89    9.40
  -8  -9  17   -0.74    7.52
   9   9 -17   -2.26   10.77
   9   9 -17   -6.01    7.62
  -9  -9  17   -0.78    7.66
  -9  -9  17   -3.85   10.64
  10   9 -17  -18.83   12.26
  10   9 -17    8.65    8.57
 -10  -9  17    7.42   11.67
 -10  -9  17  -14.03    8.67
  10   8 -17   -9.65   12.14
  10   8 -17  -30.08    8.53
 -10  -8  17   -2.24    7.43
 -10  -8  17   10.13   11.03
  10   7 -17   18.04   12.56
  10   7 -17   12.10    8.65
 -10  -7  17    6.38   11.94
 -10  -7  17   13.74    8.47
  10   6 -17   21.70   11.20
  10   6 -17   11.32    7.30
 -10  -6  17    2.39   10.66
 -10  -6  17   -3.86    6.62
  10   5 -17  -25.27   12.09
  10   5 -17    0.54    7.39
 -10  -5  17  -37.36   12.37
 -10  -5  17  -13.75    7.91
  10   4 -17    5.26    7.08
  10   4 -17   32.70    9.34
 -10  -4  17   -6.85    7.47
  -3  10 -17   17.52    8.63
  -2  10 -17    3.55    5.99
  -1  10 -17   -4.11    6.41
   1 -10  17   -5.38    4.96
   0  10 -17    3.78    5.81
   0  10 -17   -0.43    6.48
  10   0  17    5.20    6.89
 -10   0  17   -1.04    8.51
   0 -10  17   -1.81    5.25
   1  10 -17    0.45    6.33
 -10   1 -17   -1.63    4.31
  10  -1  17    8.00    7.55
  10  -1  17   12.05    6.39
 -10   2 -17   -1.04    3.79
  10  -2  17    0.59    6.38
  10  -2  17   -3.97    9.28
 -10   3 -17    6.56    5.23
   3  10 -17   -2.71    7.67
   3  10 -17   -1.50    7.03
  10  -3  17   13.38    7.13
  -3 -10  17    7.26    6.65
  10  -3  17   17.33   10.97
 -10   4 -17   -0.49    4.49
 -10   4 -17   -2.92    5.54
   4  10 -17    1.59    7.60
   4  10 -17    4.87    6.88
  -4 -10  17  -10.30    6.18
  10  -4  17   -9.64    9.88
  10  -4  17   -4.66    6.38
   5  10 -17   -6.47    8.39
   5  10 -17   -2.83    8.83
  -5 -10  17   -5.72    6.91
   6  10 -17   -0.61    8.41
   6  10 -17   10.41    7.95
  -6 -10  17   -3.00    6.75
   7  10 -17    7.28   10.42
  -7 -10  17    7.44   10.15
   8  10 -17    9.80   10.96
   8  10 -17    0.80    7.99
  -8 -10  17    0.47    9.95
  -8 -10  17    7.45    7.45
   9  10 -17   16.33   12.56
   9  10 -17   -7.52    8.38
  -9 -10  17   14.27   11.26
  -9 -10  17    1.75    7.92
  10  10 -17  -15.93   13.03
  10  10 -17   -5.23    9.19
 -10 -10  17   -9.99   11.86
 -10 -10  17   -0.92    8.61
  11  10 -17    3.86   14.14
  11  10 -17    7.29    9.41
 -11 -10  17   20.60   13.37
 -11 -10  17   -3.91    9.17
  11   9 -17   -0.83    8.29
  11   9 -17   -5.33   13.26
 -11  -9  17    9.80   12.87
 -11  -9  17    7.05    8.36
  11   8 -17  -14.69   12.89
  11   8 -17    9.04    8.77
 -11  -8  17    6.57   12.00
 -11  -8  17   -7.96    7.68
  11   7 -17    2.01    7.90
  11   7 -17   -4.77   11.99
 -11  -7  17    0.53   11.55
 -11  -7  17  -38.21    8.11
  11   6 -17    1.47   10.58
  11   6 -17    2.52    6.94
 -11  -6  17   -4.12    6.94
 -11  -6  17   -1.54   10.81
  11   5 -17   10.01   10.47
  11   5 -17    6.87    6.74
 -11  -5  17   -1.33    6.70
 -11  -5  17   13.02   10.87
  11   4 -17   -4.46    6.42
  11   4 -17   -1.36    9.75
 -11  -4  17   -5.94    6.74
 -11  -4  17    7.98   10.50
  11   3 -17   -0.55    6.86
  11   3 -17    2.02    9.42
  -3  11 -17    0.39    6.07
 -11  -3  17   -7.48   11.04
  11   2 -17   -2.34    7.38
  -2  11 -17   -0.82    6.80
  -1  11 -17   -7.25    6.93
 -11   1 -17    2.37    4.67
  11  -1  17  -10.28    7.56
 -11   2 -17   -4.01    5.00
   2  11 -17    1.53    7.36
  11  -2  17    1.94    6.91
  -2 -11  17   -6.62    6.65
 -11   3 -17   15.99    6.09
 -11   3 -17   -1.68    5.44
   3  11 -17   -3.80    7.98
  11  -3  17   17.24    7.10
  -3 -11  17    3.02    6.84
 -11   4 -17   -1.11    5.16
 -11   4 -17   11.55    5.42
   4  11 -17    1.74    7.95
  11  -4  17   -0.58    6.87
  -4 -11  17   -4.69    6.80
   5  11 -17    5.58    8.75
   5  11 -17   -9.65    8.43
  -5 -11  17   -4.07    7.15
   6  11 -17    7.47    8.06
   6  11 -17   -0.67    9.55
  -6 -11  17    1.70    6.84
   7  11 -17   12.92   11.35
   8  11 -17    9.80   10.31
   8  11 -17   36.49   12.30
  -8 -11  17    3.72   10.04
   9  11 -17   12.97    9.64
   9  11 -17  -11.09   12.18
  -9 -11  17    4.89    8.46
  -9 -11  17    0.55   11.78
  10  11 -17  -11.72   14.21
  10  11 -17   -5.78   10.05
 -10 -11  17   14.40   13.02
 -10 -11  17   -2.06    9.66
  11  11 -17  -15.91   15.84
 -11 -11  17   -7.60    9.10
 -11 -11  17    7.18   14.36
  12  11 -17   -3.46   18.85
 -12 -11  17  -20.02   16.26
 -12 -11  17   -9.16   11.33
  12  10 -17  -11.44   10.35
  12  10 -17  -24.18   16.79
 -12 -10  17    0.67   14.95
 -12 -10  17    1.03    9.35
  12   9 -17  -21.63    9.29
  12   9 -17   31.26   15.40
 -12  -9  17   19.43   13.85
 -12  -9  17    0.93    8.90
  12   8 -17    8.71    9.64
  12   8 -17   23.05   14.02
 -12  -8  17    2.97   13.34
 -12  -8  17   -3.39    8.19
  12   7 -17   -4.19   13.22
  12   7 -17  -12.73    8.28
 -12  -7  17   -9.64   13.42
 -12  -7  17   12.51    7.98
  12   6 -17    4.00   11.78
  12   6 -17   -8.65    7.86
 -12  -6  17   -0.73    7.13
 -12  -6  17    0.55   12.25
  12   5 -17   -2.98   11.70
  12   5 -17   -0.61    7.15
 -12  -5  17  -10.56    7.54
 -12  -5  17   23.88   12.17
  12   4 -17   -2.86   10.42
  12   4 -17   -4.72    6.93
 -12  -4  17  -11.09   11.09
 -12  -4  17   -1.40    7.00
  12   3 -17    0.58    6.72
  12   3 -17  -10.50    9.46
 -12  -3  17    4.28    7.58
 -12  -3  17  -11.54   10.30
  12   2 -17    3.65    8.37
  12   2 -17    6.36   10.96
 -12  -2  17    8.49   11.96
  12   1 -17    6.66    9.74
  12   1 -17    7.96    8.11
  12   1  17    2.83    8.15
 -12  -1  17    0.54   10.32
  12   0 -17   -6.00    8.49
 -12   0 -17    5.33    4.68
  12   0  17    0.52    8.44
 -12   1 -17   -1.30    5.39
  12  -1  17   14.16    9.87
  12  -1  17   17.87    7.85
 -12   2 -17   23.46    9.24
  12  -2  17   30.58   10.44
  12  -2  17    4.88   14.19
 -12   3 -17    1.88    6.39
  12  -3  17   -1.34   12.54
 -12   4 -17    0.93    6.40
  12  -4  17   20.37   12.20
  12  -5  17   42.23    9.67
  12  -5  17  -25.52   14.84
  13  11 -17   18.87   19.16
 -13 -11  17  -14.06   18.36
 -13 -11  17   10.91   10.41
  13  10 -17   21.63   17.75
  13  10 -17  -47.77   11.94
 -13 -10  17   -4.38   10.34
 -13 -10  17   25.52   17.06
  13   9 -17    4.53   10.13
  13   9 -17    1.08   17.21
 -13  -9  17   12.89    9.91
 -13  -9  17   12.92   15.77
  13   8 -17   10.70   15.05
  13   8 -17    4.99    9.10
 -13  -8  17  -26.85   14.84
 -13  -8  17   -2.71    8.66
  13   7 -17  -13.19   13.63
  13   7 -17    3.86    9.04
 -13  -7  17   -2.50    8.20
 -13  -7  17  -23.70   14.36
  13   6 -17   -3.33   13.02
  13   6 -17   -9.11    8.87
 -13  -6  17   -0.78    8.70
 -13  -6  17  -20.41   14.01
  13   5 -17    0.67   10.81
  13   5 -17   13.15   15.03
 -13  -5  17   72.16   16.50
 -13  -5  17   17.18   11.32
  13   4 -17    6.65   10.26
  13   4 -17    1.24    7.28
 -13  -4  17    5.92    7.66
 -13  -4  17  -10.59   11.63
  13   3 -17   -6.83    7.46
  13   3 -17   13.80   10.24
 -13  -3  17   -3.75    8.03
 -13  -3  17   11.59   11.49
  13   2 -17    2.53    7.63
  13   2 -17   13.18   10.28
 -13  -2  17  -22.87   11.68
  13   1 -17   -2.72    8.29
  13   1 -17    5.37    9.61
 -13  -1  17   -7.45   10.16
  13   1  17  -13.10    9.01
 -13   0 -17    0.73    5.99
  13   0 -17    6.84    9.46
  13   0  17   11.35   10.12
 -13   1 -17    1.43    5.26
  13  -1  17    2.44    8.28
  13  -1  17    6.94   11.15
 -13   2 -17    3.52    7.05
  13  -2  17   24.38    9.41
  13  -2  17   18.86   12.93
 -13   3 -17   -0.70    6.00
 -13   3 -17    4.18    7.63
  13  -3  17    0.74    7.70
  13  -3  17    5.16   12.87
 -13   4 -17    4.19    6.44
 -13   4 -17    4.26    7.54
  13  -4  17    1.46    8.24
  13  -4  17   -3.10   12.98
 -13   5 -17   -1.06    9.69
 -13   5 -17    3.49    9.45
  13  -5  17   51.00   11.85
  13  -5  17  -13.69   16.90
  14  11 -17  -47.79   27.11
 -14 -11  17  -37.97   26.58
  14  10 -17  -13.49    9.95
  14  10 -17   -6.43   18.88
 -14 -10  17   31.69   17.57
 -14 -10  17    3.47    9.89
  14   9 -17   -8.56   11.27
  14   9 -17   -2.30   20.00
 -14  -9  17  -17.89   11.24
 -14  -9  17  -27.22   17.94
  14   8 -17  -18.39   15.89
  14   8 -17    0.87   10.05
 -14  -8  17   -0.96    9.39
 -14  -8  17  -16.47   16.34
  14   7 -17   -4.05    8.68
  14   7 -17   -2.85   13.97
 -14  -7  17   -1.77    8.84
 -14  -7  17   21.43   14.56
  14   6 -17   29.37   12.54
  14   6 -17    0.74    8.32
 -14  -6  17  -25.83   14.03
 -14  -6  17    0.83    7.72
  14   5 -17   -7.76    8.53
  14   5 -17  -17.58   11.09
 -14  -5  17   -2.99   12.53
 -14  -5  17    1.58    7.54
  14   4 -17   -3.06   10.89
  14   4 -17   -2.62    7.75
 -14  -4  17   -2.92   12.18
 -14  -4  17    2.33    8.69
  14   3 -17  -10.52   11.14
  14   3 -17    6.49    8.28
 -14  -3  17  -11.55   12.46
 -14  -3  17    4.72    8.58
  14   2 -17   -2.62    8.02
  14   2 -17    1.51   10.89
 -14  -2  17  -16.93   11.13
  14   1 -17    0.70    8.80
  14   1  17   14.45   10.21
 -14  -1  17   -6.63   11.37
 -14   0 -17   -1.59    5.71
  14   0  17    0.93    9.81
  14   0  17    3.13   10.25
 -14   1 -17    2.36    6.07
  14  -1  17   10.74    9.07
  14  -1  17    7.64   12.53
 -14   2 -17   -2.30    8.05
 -14   2 -17   -1.56    6.21
  14  -2  17   -9.61   13.37
  14  -2  17   15.69    9.40
 -14   3 -17    2.34    6.88
 -14   3 -17   -6.95    7.17
  14  -3  17   -2.47    8.60
  14  -3  17   -4.87   13.74
 -14   4 -17   -7.12    8.42
 -14   4 -17   -1.57    8.16
  14  -4  17   18.77   15.25
  14  -4  17   35.98   10.09
 -14   5 -17    8.63    7.31
 -14   5 -17   -1.19    8.12
  14  -5  17    4.69    8.88
  14  -5  17   15.94   15.09
  14  -6  17   -5.49   13.73
  15  11 -17  -38.56   24.77
 -15 -11  17  -16.85   22.67
  15  10 -17   21.84   20.92
 -15 -10  17  -11.14   20.50
 -15 -10  17    9.75   10.76
  15   9 -17   -1.20   17.62
  15   9 -17  -12.88   10.07
 -15  -9  17    3.33   10.10
 -15  -9  17   21.26   17.75
  15   8 -17   -8.48   14.88
  15   8 -17   10.03   10.34
 -15  -8  17    3.06   10.09
 -15  -8  17  -15.39   16.36
  15   7 -17    3.92   20.99
  15   7 -17   38.12   16.09
 -15  -7  17    5.63   15.05
 -15  -7  17   65.97   22.42
  15   6 -17   -4.44   13.48
  15   6 -17    8.46    9.22
 -15  -6  17    0.65   14.55
 -15  -6  17   -0.88    9.08
 -15  -5  17   -4.20    8.41
 -15  -5  17   -3.77   13.49
  15   1  17  -15.91   11.49
 -15   0 -17   -2.63    6.55
  15   0  17   -1.02   10.60
  15   0  17  -10.85   12.97
 -15   1 -17   -3.49    6.83
  15  -1  17   -6.87   13.59
  15  -1  17   -6.91   10.40
 -15   2 -17   12.67   10.19
 -15   2 -17    0.87    8.14
  15  -2  17   22.22   11.03
  15  -2  17   11.73   15.02
 -15   3 -17   -1.75    7.47
 -15   3 -17    3.85    8.44
  15  -3  17  -12.82    9.65
  15  -3  17    8.92   15.60
 -15   4 -17    0.88    8.08
 -15   4 -17   -6.61    9.64
  15  -4  17    7.56   15.48
  15  -4  17    7.30    9.95
 -15   5 -17   -8.00    9.10
 -15   5 -17    0.88    8.80
  15  -5  17  -10.69   16.79
  15  -5  17    7.86    9.94
  15  -6  17   -2.01   18.02
  15  -6  17  -47.91   12.48
  16   1  17   -9.50   11.90
 -16   0 -17    4.85    7.40
  16   0  17  -13.40   11.49
  16   0  17   21.53   13.80
 -16   1 -17    3.87    8.13
  16  -1  17   33.61   15.47
  16  -1  17   -1.09   11.93
 -16   2 -17   -8.36   10.14
 -16   2 -17    0.97    7.57
  16  -2  17   13.76   15.55
  16  -2  17   13.94   11.26
 -16   3 -17   -0.97   12.65
 -16   3 -17  -11.34   15.05
  16  -3  17  -81.90   23.72
  16  -3  17  -58.06   16.25
 -16   4 -17   71.53   59.84
 -16   4 -17    2.94   66.52
  16  -4  17  193.99   63.73
 -16   5 -17  -11.80    9.85
 -16   5 -17    1.49   10.29
  16  -5  17   -8.12   11.99
 -16   6 -17    9.80    9.03
 -16   6 -17    1.52    9.85
  16  -6  17  -14.47   10.82
  16  -6  17    7.71   17.02
  17   1  17   -4.24   14.29
 -17   0 -17   -1.07    9.29
  17   0  17   -1.23   11.73
  17   0  17   35.12   16.09
 -17   1 -17    7.52    8.22
 -17   1 -17   13.49   10.42
  17  -1  17    2.41   11.78
  17  -1  17  -19.05   15.73
 -17   2 -17    6.47    9.26
 -17   2 -17   -1.53   11.31
  17  -2  17   -5.03   17.34
  17  -2  17   48.78   13.74
 -17   3 -17    9.77    8.89
 -17   3 -17    8.00   10.95
  17  -3  17  -46.82   18.04
  17  -3  17   -5.65   12.84
 -17   4 -17   -4.37   10.86
 -17   4 -17    8.16   11.51
  17  -4  17   38.18   19.04
  17  -4  17   13.53   12.80
 -17   5 -17   -3.35   11.73
 -17   5 -17   -8.76   10.86
  17  -5  17   30.22   19.23
  17  -5  17   -4.49   12.11
 -17   6 -17   -5.09    9.66
 -17   6 -17   -9.79   10.46
  17  -6  17    3.62   19.43
  17  -6  17    3.20   11.74
  18   1  17  -24.38   15.15
 -18   0 -17    1.19    9.67
  18   0  17  -16.48   16.23
  18   0  17   -6.79   13.07
 -18   1 -17   -1.65   11.61
 -18   1 -17   -8.36    9.17
  18  -1  17   -1.34   12.74
  18  -1  17   29.27   17.80
 -18   2 -17   16.81   10.00
 -18   2 -17    5.06   12.48
  18  -2  17  -35.33   18.90
  18  -2  17  -15.81   13.90
 -18   3 -17   -3.53   12.01
 -18   3 -17    9.67   10.78
  18  -3  17   22.29   20.01
  18  -3  17    6.27   13.73
 -18   4 -17   10.87   13.10
 -18   4 -17    3.64   11.44
  18  -4  17   38.64   13.99
  18  -4  17  -17.09   22.75
 -18   5 -17    2.43   10.82
 -18   5 -17   -1.86   12.81
  18  -5  17    2.53   19.22
  18  -5  17   -2.48   14.19
 -18   6 -17   -3.62   12.13
 -18   6 -17   -1.89   11.63
  18  -6  17  -14.10   13.82
   0   1 -18   -2.02    4.07
   0  -1  18    6.14    6.33
   1   1 -18   11.91    9.83
   1   1 -18   19.13    8.07
  -1   1 -18   15.37    7.93
  -1  -1  18   12.40    8.96
  -1   2 -18    0.34    4.08
   2   1 -18   -1.40    5.27
  -1   2 -18    6.33    7.02
   2   1 -18   -3.55    6.99
   1  -2  18   -0.33    5.72
  -2  -1  18    1.51    6.22
   0   2 -18   -0.36    4.24
   0   2 -18    0.52    6.70
   0  -2  18   -7.91    5.90
   1   2 -18    0.52    6.65
  -2   1 -18    0.69    3.86
   1   2 -18    4.63    4.31
  -1  -2  18    6.03    6.39
   2   2 -18    6.97    5.58
   2   2 -18    1.59    7.42
  -2   2 -18    5.76    5.19
  -2   2 -18   15.39    8.01
   2  -2  18   16.75    7.08
  -2  -2  18    4.14    7.21
   3   2 -18   15.22    7.29
   3   2 -18    1.30    4.90
  -2   3 -18    0.30    4.04
  -2   3 -18    0.47    7.08
  -3  -2  18    7.16    6.66
   2  -3  18    8.92    5.74
   3   1 -18    4.15    8.90
   3   1 -18    8.75    7.40
  -1   3 -18   18.61    6.65
  -1   3 -18   22.86    8.93
  -3  -1  18    8.83    8.39
   1  -3  18   12.37    8.20
   0   3 -18   -4.74    6.47
   0   3 -18    1.33    3.92
   0  -3  18    8.52    5.98
   1   3 -18    1.46    8.40
  -3   1 -18    3.20    6.72
   1   3 -18   17.61    6.65
  -1  -3  18   26.01    8.68
  -3   2 -18    0.90    3.60
   2   3 -18    0.37    4.15
   2   3 -18    5.01    6.70
   3  -2  18    7.52    6.17
  -2  -3  18   -5.31    6.08
   3   3 -18   30.62   13.57
  -3   3 -18   22.65   13.73
   3   3 -18   29.01   11.10
  -3   3 -18   24.61   11.80
   3  -3  18   24.53   12.76
  -3  -3  18   14.26   13.54
  -3   4 -18   30.23   12.32
   4   3 -18   35.58   12.06
  -3   4 -18   31.38   14.20
   4   3 -18   38.80   14.34
  -4  -3  18   17.17   14.31
   3  -4  18   23.06   13.51
  -2   4 -18   43.52   18.23
  -2   4 -18   53.07   20.86
   4   2 -18   59.13   17.79
   4   2 -18   40.28   20.42
   2  -4  18   22.84   19.88
  -4  -2  18   29.53   20.29
   4   1 -18   11.91    7.47
   4   1 -18    0.60    9.42
  -1   4 -18   20.17    6.36
  -1   4 -18   17.59    8.68
   1  -4  18   15.17    8.11
  -4  -1  18    0.40    8.64
   0   4 -18   29.72   11.03
   0   4 -18   20.99   13.54
   0  -4  18   18.00   13.07
   1   4 -18   10.99    6.54
   1   4 -18   20.45    9.23
  -4   1 -18    2.65    6.78
  -1  -4  18   20.78    8.63
   2   4 -18   46.18   18.32
  -4   2 -18   28.08   20.65
   2   4 -18   47.50   21.68
  -2  -4  18   53.45   21.47
   3   4 -18   19.08   12.89
  -4   3 -18   18.44   13.01
  -4   3 -18   17.76   10.87
   3   4 -18   20.86    9.88
  -3  -4  18   11.85   12.75
   4  -3  18   23.80   11.83
  -4   4 -18   25.01   16.68
  -4   4 -18   19.75   14.58
   4   4 -18   33.93   13.57
   4   4 -18   70.99   18.21
   4  -4  18   14.11   15.66
   5   4 -18    7.58    5.29
  -4   5 -18    8.09    6.49
   5   4 -18   -0.56    7.77
  -4   5 -18    1.12    4.00
  -5  -4  18   19.55    7.96
  -3   5 -18   14.53    9.43
   5   3 -18   38.67   12.85
  -3   5 -18   19.75   12.25
   3  -5  18   13.82   11.08
   3  -5  18   10.44    8.26
  -2   5 -18   20.68    9.92
   5   2 -18   19.09   10.17
  -2   5 -18   15.94    7.62
   2  -5  18   16.10    6.98
  -5  -2  18    3.91    9.95
   2  -5  18   24.90    9.31
   5   1 -18   17.24    8.50
  -1   5 -18    7.51    7.85
  -1   5 -18   16.06    5.55
   1  -5  18    8.18    5.14
  -5  -1  18    0.82    8.39
   1  -5  18   10.28    7.46
   0   5 -18    0.93    6.85
   0   5 -18    0.34    4.00
   0  -5  18   -3.29    4.18
   0  -5  18  -12.56    6.67
  -5   0  18    0.90    6.62
   1   5 -18    8.96    5.00
   1   5 -18    2.90    7.73
  -1  -5  18   -3.68    7.21
  -1  -5  18   12.48    4.82
   5  -1  18    5.60    5.72
   2   5 -18   12.21    5.95
   2   5 -18   -2.90    9.73
  -2  -5  18   12.02    5.73
  -2  -5  18   -6.43    9.37
   4   5 -18    6.18    5.01
   4   5 -18   17.93    7.56
  -4  -5  18    0.36    7.95
  -4  -5  18   -9.78    5.11
   5   5 -18    6.94    6.97
   5   5 -18   14.37   10.57
  -5  -5  18   25.88   10.17
  -5  -5  18    2.47    6.71
   6   5 -18    0.60    9.10
  -6  -5  18    7.54    8.77
   6   4 -18    8.79    9.99
  -6  -4  18    2.38    9.61
  -3   6 -18   46.14   20.52
   6   3 -18   36.02   16.05
   6   3 -18   37.96   19.49
  -3   6 -18   36.51   17.15
   3  -6  18   30.73   19.40
  -6  -3  18   33.65   19.93
   3  -6  18   42.84   15.01
  -2   6 -18   15.92    7.63
   6   2 -18    7.53    6.39
  -2   6 -18    9.30    5.35
   6   2 -18    3.60    8.36
   2  -6  18    8.76    7.07
  -6  -2  18    8.63    8.28
   2  -6  18   10.81    4.70
   6   1 -18    1.90    7.51
   6   1 -18    3.47    5.89
  -1   6 -18    9.99    4.15
  -1   6 -18   -0.44    6.63
   1  -6  18    3.16    4.01
  -6  -1  18   -8.14    7.70
   1  -6  18  -10.04    6.29
   6   0 -18    4.10    7.01
   0   6 -18    0.92    7.09
   0   6 -18    4.46    4.20
   0  -6  18  -11.40    6.69
   0  -6  18    1.88    3.95
  -6   0  18   -3.71    7.07
   1   6 -18    7.15    7.67
   1   6 -18    3.09    4.26
  -1  -6  18    0.80    3.95
  -1  -6  18  -14.69    7.39
   6  -1  18    5.44    4.94
   2   6 -18    9.94    7.49
   2   6 -18   -7.24    5.14
  -2  -6  18   -2.56    7.47
  -2  -6  18   -2.55    4.72
   3   6 -18   34.74   18.73
   3   6 -18    0.42   14.99
  -3  -6  18   43.94   18.09
  -3  -6  18   45.91   14.05
   4   6 -18   24.10    8.09
   4   6 -18    7.59   10.62
  -4  -6  18   19.04   10.34
  -4  -6  18    9.05    7.57
   5   6 -18    2.85    9.02
   5   6 -18   24.35    5.51
  -5  -6  18   -0.50    5.25
  -5  -6  18   -3.34    8.63
   7   6 -18   -9.68    6.21
  -7  -6  18   -3.40    6.37
   7   4 -18    6.74    8.74
  -7  -4  18   -4.66    8.78
  -3   7 -18    3.56    4.48
   7   3 -18    2.93    5.67
  -3   7 -18   -3.72    6.58
   7   3 -18   -3.65    8.29
  -7  -3  18   -5.13    8.81
   3  -7  18    0.69    3.46
   3  -7  18  -12.82    6.23
   7   2 -18   27.98   11.80
  -2   7 -18   27.14   14.72
   7   2 -18   24.33   14.65
  -2   7 -18   22.22   11.66
  -7  -2  18   25.10   14.69
   2  -7  18   14.29   13.65
   2  -7  18   25.47   10.26
  -1   7 -18   -4.54    4.41
  -1   7 -18    4.67    6.44
   7   1 -18   -6.55    8.54
   7   1 -18   -8.50    6.80
   1  -7  18   -7.87    6.31
   1  -7  18    1.53    3.82
  -7  -1  18    0.45    7.38
   0   7 -18    5.58    4.95
   7   0 -18    1.41    7.46
   0   7 -18   -1.32    6.76
   0  -7  18   11.98    6.72
  -7   0  18    2.88    7.54
   7   0  18   -3.45    5.02
   0  -7  18    4.05    4.25
   1   7 -18   -4.45    5.05
   1   7 -18   10.98    6.97
   7  -1  18   -0.92    5.34
  -1  -7  18   -1.82    6.80
  -1  -7  18   -0.85    4.27
   2   7 -18   23.57   12.18
   2   7 -18   35.72   14.47
  -2  -7  18   25.26   11.12
  -2  -7  18   24.09   13.99
   7  -2  18   25.67   15.98
   3   7 -18    3.36    5.19
   3   7 -18   -4.98    6.88
  -3  -7  18    3.80    4.81
  -3  -7  18    9.29    7.43
   4   7 -18    6.28    8.89
  -4  -7  18   14.65    8.48
   7   7 -18   -7.22    9.80
   7   7 -18   16.02    6.44
  -7  -7  18  -11.72    9.40
  -7  -7  18    5.37    6.24
   8   7 -18    0.60    7.25
   8   7 -18   -2.10   12.31
  -8  -7  18    1.27    7.94
  -8  -7  18  -30.51   11.57
   8   6 -18   -7.32   10.08
   8   6 -18   -5.38    6.29
  -8  -6  18   -1.34    9.26
  -8  -6  18    0.60    6.19
   8   5 -18    4.10    5.87
  -8  -5  18   -6.49    6.16
  -3   8 -18    6.79    7.21
  -3   8 -18    5.00    5.81
   3  -8  18   13.76    7.15
   3  -8  18    4.48    4.91
   8   2 -18   -0.65    7.82
  -2   8 -18   10.72    5.05
  -2   8 -18    1.23    6.30
   2  -8  18   -2.08    4.25
   2  -8  18   -5.93    6.24
  -8  -2  18    3.19    8.55
   8   1 -18   12.21    8.91
  -1   8 -18    3.40    6.75
  -1   8 -18   -6.73    5.49
   8   1 -18   37.53    7.65
   1  -8  18    3.63    6.51
  -8  -1  18   13.66    8.23
   1  -8  18   -5.20    4.60
   0   8 -18  -16.88    5.44
   0   8 -18   -3.07    6.79
   8   0 -18    0.74    8.33
   8   0  18   -4.60    6.15
   0  -8  18   -4.52    4.51
   0  -8  18   -0.58    6.55
  -8   0  18   -2.51    8.28
   1   8 -18    3.65    6.76
   1   8 -18    2.05    5.80
  -1  -8  18    7.20    6.74
  -1  -8  18    5.69    4.90
   8  -1  18   -4.85    6.56
  -8   2 -18   -0.46    3.27
   2   8 -18    5.24    6.69
   2   8 -18    6.89    5.85
   8  -2  18   -1.93    6.96
  -2  -8  18   -3.13    6.78
  -2  -8  18    1.00    4.88
   3   8 -18    1.50    7.59
  -3  -8  18    3.93    7.33
   5   8 -18    0.57    6.17
   5   8 -18   -0.56    6.79
  -5  -8  18    3.49    5.12
   6   8 -18    4.21    8.90
  -6  -8  18    3.17    8.54
   7   8 -18   -3.23   10.18
   7   8 -18    2.48    7.02
  -7  -8  18  -19.47    9.85
  -7  -8  18   -9.72    7.43
   8   8 -18   30.52   14.23
   8   8 -18   13.01   10.96
  -8  -8  18   17.16   10.61
  -8  -8  18   14.12   13.10
   9   8 -18    3.14   11.86
   9   8 -18   14.19    8.03
  -9  -8  18    3.93   10.70
  -9  -8  18    2.19    7.68
   9   7 -18  -10.41   13.42
   9   7 -18    8.88    8.72
  -9  -7  18    6.76    8.40
  -9  -7  18   31.81   12.18
   9   6 -18    9.12   10.58
   9   6 -18   -0.57    6.77
  -9  -6  18    3.84    6.58
  -9  -6  18  -13.81   10.74
   9   5 -18   -2.72    6.30
   9   5 -18   -1.39   10.56
  -9  -5  18   14.42    6.93
  -9  -5  18  -11.82   10.42
   9   4 -18   12.15   13.98
   9   4 -18   42.15   16.30
  -9  -4  18   67.83   16.62
  -3   9 -18   11.62    6.22
  -3   9 -18   13.83    7.46
   3  -9  18   -4.87    5.01
  -2   9 -18    3.75    5.40
  -2   9 -18    2.94    6.67
   2  -9  18   -4.12    6.29
   2  -9  18   -1.47    4.40
  -1   9 -18    8.23    6.60
  -1   9 -18    3.47    7.77
   1  -9  18    3.97    7.20
   1  -9  18    4.53    5.19
   0   9 -18    6.75    6.93
   0   9 -18   -2.80    5.94
   0  -9  18    6.76    4.94
   9   0  18   -2.19    6.12
   0  -9  18   -3.23    6.48
   1   9 -18  -12.18    8.53
   1   9 -18   39.76    7.44
  -1  -9  18    3.65    8.08
   9  -1  18   10.16    8.66
  -1  -9  18   19.90    6.39
  -9   2 -18    0.99    3.81
   9  -2  18   -1.13    5.63
   9  -2  18    3.02    7.83
   9  -3  18    3.11    6.84
   9  -3  18   13.37    9.74
   4   9 -18    3.16    9.02
   4   9 -18   -8.74   10.34
  -4  -9  18   25.95   10.05
  -4  -9  18   -4.90    7.85
   5   9 -18   -2.91    7.96
   5   9 -18    1.97    7.44
  -5  -9  18   -5.21    8.32
  -5  -9  18    9.01    5.96
   6   9 -18    3.11    9.15
   6   9 -18    6.80    7.76
  -6  -9  18   19.13    8.88
  -6  -9  18   -0.68    6.96
   7   9 -18    8.04   11.84
  -7  -9  18   22.29   11.26
   8   9 -18   -9.43   10.29
   8   9 -18   27.40    8.65
  -8  -9  18  -11.11    9.80
  -8  -9  18   11.33    7.39
   9   9 -18   19.72   11.98
   9   9 -18   -6.97    9.27
  -9  -9  18   15.78   11.50
  -9  -9  18    1.60    8.23
  10   9 -18   10.27   15.81
  10   9 -18   12.20   13.09
 -10  -9  18   64.62   16.31
 -10  -9  18   22.09   12.67
  10   8 -18   43.08   13.12
  10   8 -18   -2.24    9.03
 -10  -8  18    9.04   12.20
 -10  -8  18   -7.75    8.22
  10   7 -18  -18.06    8.12
  10   7 -18    2.36   11.55
 -10  -7  18  -10.34   11.19
 -10  -7  18    5.04    7.12
  10   6 -18   28.45   12.77
  10   6 -18    6.94    8.60
 -10  -6  18   18.85   12.40
 -10  -6  18    6.13    8.06
  10   5 -18   -2.91   10.46
  10   5 -18  -19.62    7.39
 -10  -5  18   -5.51   10.63
 -10  -5  18   -0.67    6.87
  10   4 -18    3.36    6.47
  10   4 -18   -6.29   10.22
 -10  -4  18   -0.67    7.09
 -10  -4  18    7.54   10.64
  10   3 -18    1.14    7.13
  10   3 -18    4.85    9.79
  -3  10 -18    5.94    6.48
 -10  -3  18   -8.55   10.74
  -2  10 -18   -6.14    6.46
  10   2 -18    3.06    7.27
   2 -10  18   -2.33    5.17
  -1  10 -18   -0.85    6.75
  10   1 -18   -3.39    7.79
  -1  10 -18   -3.12    5.77
   1 -10  18    4.70    5.12
   0  10 -18    9.26    8.18
  10   0  18   10.55    8.37
 -10   1 -18   -2.81    4.19
  10  -1  18    1.36    7.54
   2  10 -18   -0.48    5.39
   2  10 -18   15.43    7.05
 -10   2 -18    1.07    4.07
  10  -2  18   -9.60    8.90
  10  -2  18    1.82    6.55
  -2 -10  18   -3.85    5.40
   3  10 -18   -8.17    7.31
 -10   3 -18    5.65    4.64
   3  10 -18   -2.76    6.86
  10  -3  18    3.21   10.20
  -3 -10  18    4.66    5.96
  10  -3  18    6.24    6.66
   4  10 -18   -6.40    7.12
   4  10 -18  -16.36    8.11
  -4 -10  18   -9.03    6.57
   5  10 -18   -2.35    8.36
   5  10 -18   11.71    7.80
  -5 -10  18   -2.18    6.58
  -5 -10  18  -14.07    8.80
   6  10 -18   -5.96    9.93
   6  10 -18   18.94    8.57
  -6 -10  18    8.77    9.39
  -6 -10  18   -3.04    7.41
   7  10 -18    0.71   10.16
  -7 -10  18   -3.58    9.29
   8  10 -18   -1.64    9.90
   8  10 -18    3.86   12.17
  -8 -10  18   12.63    9.38
  -8 -10  18   38.21   12.16
   9  10 -18  -12.02    9.75
   9  10 -18   16.74   13.27
  -9 -10  18   -3.56    9.14
  -9 -10  18   14.22   12.60
  10  10 -18   -1.79    9.09
  10  10 -18    1.83   12.70
 -10 -10  18   -5.16   12.17
 -10 -10  18   -5.65    8.18
  11  10 -18   -3.00   14.87
  11  10 -18   -2.82    9.98
 -11 -10  18  -20.98   13.99
 -11 -10  18    5.00    9.13
  11   9 -18   -1.95   14.51
  11   9 -18    1.71    8.68
 -11  -9  18    9.61   13.03
 -11  -9  18   -6.32    8.54
  11   8 -18   -6.33   13.56
  11   8 -18   27.49    9.91
 -11  -8  18   28.25   13.95
 -11  -8  18   -5.77    8.88
  11   7 -18   -3.34   11.85
  11   7 -18   -5.65    7.89
 -11  -7  18  -15.03   11.90
 -11  -7  18   -3.07    8.13
  11   6 -18   -5.65   11.54
  11   6 -18    7.36    7.87
 -11  -6  18    0.73    7.65
 -11  -6  18   28.93   12.13
  11   5 -18    0.76   11.36
  11   5 -18    6.13    6.80
 -11  -5  18   -1.42    7.16
 -11  -5  18   -1.06   11.45
  11   4 -18    9.03    7.29
  11   4 -18    8.80   10.86
 -11  -4  18   -0.71    7.68
 -11  -4  18    8.52   11.23
  11   3 -18   -5.05   10.33
  11   3 -18   -1.21    6.62
 -11  -3  18  -10.59   10.59
  11   2 -18   -8.01    9.45
  -2  11 -18   -4.77    7.21
  11   2 -18   -6.40    7.70
 -11  -2  18    7.49   10.13
  11   1 -18   -2.28   10.31
  11   1 -18    8.45    8.23
 -11  -1  18   -8.21    9.82
  11   0 -18   -0.82    9.14
   1  11 -18   10.37    8.00
  -1 -11  18    7.13    6.65
   2  11 -18    1.56    7.27
  11  -2  18    2.63    6.79
  -2 -11  18    0.73    6.12
   3  11 -18    3.09    7.39
   3  11 -18   -1.65    7.88
 -11   3 -18   -1.14    4.30
  11  -3  18   -3.00    6.43
  -3 -11  18    4.55    6.77
   4  11 -18    2.92    8.64
   4  11 -18    3.98    7.87
  -4 -11  18   -3.94    7.39
   5  11 -18    0.62    8.56
   5  11 -18    0.82    8.24
  -5 -11  18   -5.74    6.88
   6  11 -18   -6.78    8.62
   6  11 -18   -8.73    9.66
  -6 -11  18    3.43    7.68
   7  11 -18    5.85   12.42
  -7 -11  18   38.45   12.73
   8  11 -18   -1.82    9.20
   8  11 -18  -13.40   12.37
  -8 -11  18    8.49    8.60
  -8 -11  18    2.59   10.70
   9  11 -18   -5.69   10.07
   9  11 -18   -9.11   12.81
  -9 -11  18    8.94    8.99
  -9 -11  18   -4.49   12.14
  10  11 -18    3.95   10.02
  10  11 -18   -5.95   14.59
 -10 -11  18  -17.15   13.17
 -10 -11  18    7.34    9.53
  11  11 -18    1.08   16.78
  11  11 -18    2.06   10.15
 -11 -11  18  -28.20   14.87
 -11 -11  18    7.76    9.90
  12  11 -18   -8.61   11.80
  12  11 -18    7.15   18.03
 -12 -11  18  -32.06   17.39
 -12 -11  18   -4.69   11.53
  12  10 -18   13.77   10.60
  12  10 -18   16.36   16.84
 -12 -10  18    1.06   10.28
 -12 -10  18   13.17   15.78
  12   9 -18  -14.72   15.42
  12   9 -18   -1.79    9.07
 -12  -9  18   -3.84    8.48
 -12  -9  18   -3.27   14.31
  12   8 -18    2.88   14.38
  12   8 -18  -11.58    8.90
 -12  -8  18    1.87   13.28
 -12  -8  18  -10.57    7.79
  12   7 -18  -29.07   13.71
  12   7 -18  -15.65    9.19
 -12  -7  18   -3.29    8.77
 -12  -7  18   25.75   13.56
  12   6 -18  -27.91   14.43
  12   6 -18  -20.51    9.09
 -12  -6  18   -0.58   14.29
 -12  -6  18   12.41    8.72
  12   5 -18    0.79   11.42
  12   5 -18   -3.90    7.77
 -12  -5  18  -16.57    7.97
 -12  -5  18   17.13   12.64
  12   4 -18    2.29   10.94
  12   4 -18   -0.64    7.62
 -12  -4  18    5.63   11.63
 -12  -4  18   -3.77    7.74
  12   3 -18   -9.76   10.41
  12   3 -18   -0.64    7.45
 -12  -3  18    8.93   11.34
  12   2 -18    3.02   10.34
  12   2 -18    3.34    7.74
 -12  -2  18   -0.56   11.28
  12   1 -18   -0.73    8.59
  12   1 -18   -3.16   10.03
 -12  -1  18    2.31   10.77
  12   0 -18   17.27   10.74
  12   0  18    6.78    9.77
 -12   1 -18   -4.62    5.24
  12  -1  18  -18.22   10.21
  12  -1  18  -13.66    8.27
 -12   2 -18    2.57    5.06
  12  -2  18   -8.65    8.37
  12  -2  18   22.28   11.43
 -12   3 -18   -0.96    6.77
 -12   3 -18   -6.93    5.85
  12  -3  18    3.39   11.89
  12  -3  18    2.66    7.21
  12  -4  18    7.82    7.15
  12  -4  18  -12.13   12.49
   7  12 -18   14.33   12.23
   8  12 -18    5.18   11.96
  -8 -12  18  -10.57    9.23
   9  12 -18    0.95   13.54
  -9 -12  18   25.78   13.18
  -9 -12  18  -12.21    9.55
  10  12 -18  -30.65   17.55
 -10 -12  18   10.66   14.68
 -11 -12  18  -15.27   16.67
  13  11 -18   14.32   18.81
 -13 -11  18    1.63   18.52
 -13 -11  18  -13.63    9.82
  13  10 -18    6.18   12.49
  13  10 -18   46.03   20.82
 -13 -10  18    4.50   12.12
 -13 -10  18   17.41   18.30
  13   9 -18   20.72   10.18
  13   9 -18  -29.30   17.56
 -13  -9  18  -11.36   16.09
 -13  -9  18   -3.08    9.83
  13   8 -18    8.71   10.20
  13   8 -18   -2.04   15.52
 -13  -8  18   20.83   15.13
 -13  -8  18   -3.75    8.72
  13   7 -18    3.93    8.73
  13   7 -18  -10.57   14.85
 -13  -7  18    3.22   14.62
 -13  -7  18   12.24    8.56
  13   6 -18   -0.88   14.65
  13   6 -18    8.21    9.14
 -13  -6  18   25.23   14.52
 -13  -6  18   -0.83    8.59
  13   5 -18   -0.72    8.77
  13   5 -18    1.65   11.94
 -13  -5  18  -13.28   12.60
 -13  -5  18    8.79    7.99
  13   4 -18    0.67    8.87
  13   4 -18   16.61   11.43
 -13  -4  18    7.70   13.51
 -13  -4  18   -7.18    8.65
  13   3 -18   -0.68    7.85
  13   3 -18   14.80   10.80
 -13  -3  18  -11.39    8.46
 -13  -3  18   -4.10   11.78
  13   2 -18    1.57   10.44
  13   2 -18    6.94    8.25
 -13  -2  18   -7.68   11.28
  13   1 -18   25.25   11.25
  13   1 -18   11.27    9.66
 -13  -1  18   -4.86   11.48
 -13   0 -18    2.22    5.84
  13   0 -18    0.84   10.04
  13   0  18  -13.78    9.51
 -13   1 -18    2.17    6.14
  13  -1  18   31.46    9.22
  13  -1  18   -7.66   11.77
 -13   2 -18    3.55    5.62
  13  -2  18  -15.86    8.70
  13  -2  18    4.78   12.50
 -13   3 -18    1.06    7.75
 -13   3 -18   -3.51    5.78
  13  -3  18  -21.48    9.04
  13  -3  18   -8.22   14.04
 -13   4 -18    4.19    7.34
 -13   4 -18    7.39    9.09
  13  -4  18   44.09   16.29
  13  -4  18   -3.65    9.65
  14  11 -18  -50.55   23.39
 -14 -11  18    9.19   12.25
 -14 -11  18  -24.08   21.88
  14  10 -18   48.08   20.56
  14  10 -18   -5.38   11.44
 -14 -10  18   -2.47   19.22
 -14 -10  18   -1.19   10.50
  14   9 -18   11.85   10.50
  14   9 -18  -10.74   17.86
 -14  -9  18   -8.70   10.78
 -14  -9  18   -3.83   17.82
  14   8 -18   45.74   31.61
  14   8 -18   90.85   40.34
 -14  -8  18    9.99   31.05
 -14  -8  18  156.69   40.62
  14   7 -18    4.00   14.97
  14   7 -18  -28.27    9.50
 -14  -7  18   -9.29    9.07
 -14  -7  18    6.86   16.10
  14   6 -18    7.33   14.14
  14   6 -18   -6.28    9.96
 -14  -6  18  -34.92   14.93
 -14  -6  18    4.40    9.10
  14   5 -18    2.27    8.93
  14   5 -18   29.17   13.03
 -14  -5  18   -4.24    8.24
 -14  -5  18   -2.55   13.26
  14   4 -18    1.42    8.41
  14   4 -18   -0.82   11.88
 -14  -4  18   14.88   13.16
 -14  -4  18    5.90    8.84
  14   3 -18    4.01   11.08
  14   3 -18  -13.47    8.94
 -14  -3  18   -2.56    9.02
 -14  -3  18    9.80   12.75
  14   2 -18    3.60    8.66
  14   2 -18   -4.05   10.66
 -14  -2  18  -17.28   11.03
  14   1 -18   -5.39    9.28
 -14  -1  18  -17.85   12.16
  14   1  18    7.91    9.95
  14   0 -18   -4.24   10.67
 -14   0 -18   -1.62    6.22
  14   0  18   12.64   10.70
 -14   1 -18   -0.80    6.35
  14  -1  18   25.99   12.07
  14  -1  18  -32.67   10.46
 -14   2 -18   -3.15    5.83
  14  -2  18   11.23   13.05
  14  -2  18   13.15    9.29
 -14   3 -18    0.78    6.54
 -14   3 -18    2.35    7.72
  14  -3  18    7.42    9.02
  14  -3  18    1.64   14.31
 -14   4 -18    1.20    8.12
 -14   4 -18   -3.92    7.52
  14  -4  18   -1.73   14.46
  14  -4  18   -5.72    8.93
  15  11 -18  -19.19   24.28
 -15 -11  18   25.23   22.33
  15  10 -18  -15.69   11.69
  15  10 -18  -24.08   21.39
 -15 -10  18  -17.66   12.34
 -15 -10  18   -9.82   20.38
  15   9 -18    1.04   11.27
  15   9 -18   -3.76   18.03
 -15  -9  18    1.15   10.04
 -15  -9  18   -9.09   18.56
  15   8 -18    5.79   16.73
  15   8 -18   13.40   10.36
 -15  -8  18   -3.87   17.18
 -15  -8  18  -13.79   11.05
  15   7 -18   -8.07   10.47
  15   7 -18   13.50   15.48
 -15  -7  18    0.99    9.92
 -15  -7  18  -22.44   15.84
  15   6 -18   29.57   20.78
  15   6 -18   44.38   26.20
 -15  -6  18    0.94   20.22
 -15  -6  18  110.32   29.00
  15   5 -18    2.38    9.79
  15   5 -18  -28.23   13.99
 -15  -5  18    0.67   15.14
 -15  -5  18   -9.87    9.80
 -15  -4  18   16.82   13.73
 -15  -4  18   -0.88    9.58
  15   1  18   -6.02   11.31
 -15   0 -18    3.56    7.09
  15   0  18    7.30   12.44
 -15   1 -18   -7.91    7.32
  15  -1  18   -1.00   10.77
  15  -1  18   -7.71   12.80
 -15   2 -18    6.99    6.94
 -15   2 -18   10.27    9.25
  15  -2  18   -3.39   14.50
  15  -2  18    4.86   10.66
 -15   3 -18   -3.90    8.12
 -15   3 -18    9.61    7.16
  15  -3  18    8.26    9.70
  15  -3  18   -2.71   14.44
 -15   4 -18   -4.02    8.58
 -15   4 -18    3.51    7.34
  15  -4  18   -8.21   10.13
  15  -4  18  -12.46   15.93
  15  -5  18  -38.42   19.77
 -16 -10  18   47.02   32.48
 -16   0 -18    6.86    7.91
  16   0  18  -33.76   15.75
 -16   1 -18    4.87    9.24
  16  -1  18   37.53   13.38
  16  -1  18   -1.70   16.48
 -16   2 -18    5.64   20.89
 -16   2 -18   15.56   19.21
  16  -2  18   46.39   21.35
  16  -2  18  113.04   26.79
 -16   3 -18  -13.66   11.27
 -16   3 -18   -1.44   13.20
  16  -3  18  -59.32   14.80
 -16   4 -18    1.49   10.49
 -16   4 -18   -3.92    8.65
  16  -4  18  -26.44   11.74
  16  -4  18    5.23   17.38
  16  -5  18   11.16   11.31
  16  -5  18  -29.11   19.44
 -17   0 -18   -4.34    8.25
  17   0  18    6.19   14.96
 -17   1 -18    9.73    8.21
 -17   1 -18    1.51   11.23
  17  -1  18  -25.94   15.91
  17  -1  18    1.22   12.72
 -17   2 -18    8.67    8.49
 -17   2 -18    3.10   11.02
  17  -2  18   -6.09   17.08
  17  -2  18  -11.98   13.68
 -17   3 -18    1.09    8.60
 -17   3 -18    8.10   11.15
  17  -3  18   -4.55   12.76
  17  -3  18   -1.08   17.65
 -17   4 -18   13.21   11.98
 -17   4 -18   -5.47    9.07
  17  -4  18    7.91   12.33
  17  -4  18  -13.64   20.06
 -17   5 -18   -3.34   12.12
 -17   5 -18   -7.69   10.63
  17  -5  18  -16.92   13.39
  17  -5  18    1.18   18.65
 -18   0 -18    7.22   11.54
  18   0  18  -62.52   19.44
 -18   1 -18    1.66   11.88
 -18   1 -18    7.22    9.20
  18  -1  18    5.41   13.01
  18  -1  18    4.21   17.84
 -18   2 -18   10.21   11.74
 -18   2 -18   -7.24    9.44
  18  -2  18  -31.94   15.87
  18  -2  18   31.13   19.62
 -18   3 -18    5.35   11.96
 -18   3 -18    3.64    9.12
  18  -3  18   -3.55   20.56
  18  -3  18   -9.22   14.61
 -18   4 -18   16.47   12.55
 -18   4 -18   -2.44   10.10
  18  -4  18   11.29   13.46
  18  -4  18    8.63   20.55
 -18   5 -18    6.10   12.02
 -18   5 -18   15.05   13.85
  18  -5  18   23.71   14.96
   0   1 -19    7.70    5.74
   1   1 -19   -8.29    5.35
  -1   1 -19    0.79    4.19
  -1  -1  19    1.22    6.46
  -1   2 -19   -2.19    4.55
   2   1 -19    5.93    5.28
  -1   2 -19    6.39    6.96
   2   1 -19   -3.84    7.20
   1  -2  19    3.21    6.00
  -2  -1  19  -12.19    6.59
   0   2 -19    3.41    6.87
   0   2 -19   -0.39    4.47
   0  -2  19   -9.64    5.91
   1   2 -19   -8.27    4.73
  -2   1 -19    1.83    3.95
   1   2 -19   -2.84    7.54
  -1  -2  19   -5.08    6.79
   2   2 -19    2.30    7.30
  -2   2 -19   -4.09    4.13
   2   2 -19   -4.38    4.80
  -2  -2  19    4.48    6.80
   2  -2  19   -5.87    6.82
  -2   3 -19   20.26   10.18
   3   2 -19   27.00   12.24
   3   2 -19   28.41   10.32
  -2   3 -19   28.08   12.30
   2  -3  19   14.80   11.21
  -3  -2  19    9.64   11.81
   3   1 -19    3.10    5.52
   3   1 -19  -12.21    7.33
  -1   3 -19    5.45    3.99
  -1   3 -19   -2.56    7.38
  -3  -1  19   -1.24    6.59
   1  -3  19    8.96    6.13
   0   3 -19   11.93    8.80
   0   3 -19   13.30    6.19
   0  -3  19    5.28    8.20
   1   3 -19    2.28    4.14
   1   3 -19    2.65    6.75
  -3   1 -19   -3.72    3.77
  -1  -3  19    2.74    6.36
  -3   2 -19   16.61   10.51
   2   3 -19   32.87   10.00
   2   3 -19   12.53   12.08
  -2  -3  19   18.25   11.82
  -3   3 -19    1.05    7.15
   3   3 -19  -11.43    5.51
   3   3 -19   -5.63    8.20
  -3   3 -19    1.51    4.27
  -3  -3  19  -11.24    8.05
   3  -3  19   -6.96    5.90
  -3   4 -19   29.11   11.72
   4   3 -19   17.87    9.53
  -3   4 -19   35.76    9.65
   4   3 -19   26.23   11.91
  -4  -3  19  -11.40   12.26
   3  -4  19   23.16   10.83
  -2   4 -19   12.72    7.83
  -2   4 -19   12.19   10.40
   4   2 -19   19.30   11.27
   4   2 -19   18.73    8.61
   2  -4  19    4.40    9.49
  -1   4 -19   24.58   11.49
   4   1 -19    9.12   11.71
   4   1 -19   18.77   10.04
  -1   4 -19   29.18    9.23
   1  -4  19   17.76   10.86
  -4  -1  19   13.11   11.19
   0   4 -19    1.06    4.23
   0   4 -19   -7.99    7.18
   0  -4  19   -6.40    6.73
   1   4 -19   39.25    9.38
   1   4 -19   24.68   11.80
  -4   1 -19    2.18    9.61
  -1  -4  19   12.07   11.46
  -4   2 -19   -2.68   10.43
   2   4 -19   29.56   10.24
   2   4 -19   36.85   12.90
  -2  -4  19   39.04   12.52
  -4   3 -19   11.06    8.84
  -4   3 -19   14.96   11.36
   3   4 -19   16.65   11.56
   3   4 -19   16.77    8.50
  -3  -4  19    7.39   11.29
   4  -3  19   18.97   10.07
   4   4 -19    5.20    7.82
  -4   4 -19    1.85    6.81
   4   4 -19    1.72    5.04
  -4   4 -19   -3.38    3.39
  -4  -4  19    4.66    7.77
   5   4 -19   12.25    7.33
   5   4 -19   12.65   10.53
  -5  -4  19    9.80   10.41
  -3   5 -19   24.49   11.57
   5   3 -19   31.16   11.16
   5   3 -19   15.73   14.07
  -3   5 -19   24.96   13.99
   3  -5  19    5.69   12.94
   3  -5  19   25.06   10.28
  -5  -3  19   40.46   14.41
   5   2 -19   29.98   18.33
  -2   5 -19   26.56   18.89
  -2   5 -19   41.21   15.92
   2  -5  19   35.96   17.90
   2  -5  19   50.15   14.43
  -5  -2  19   15.10   18.13
  -1   5 -19    8.08    4.85
  -1   5 -19    3.83    8.15
   5   1 -19    0.66    8.36
   1  -5  19   -0.37    4.90
   1  -5  19   12.26    7.26
  -5  -1  19   12.71    8.21
   0   5 -19   24.93   14.60
   0   5 -19   34.80   11.67
   0  -5  19   24.46   10.93
   0  -5  19   12.31   14.13
   1   5 -19   13.50    8.32
   1   5 -19    1.89    5.04
  -1  -5  19    5.04    4.79
  -1  -5  19    1.33    7.67
   2   5 -19   33.64   14.57
   2   5 -19   35.65   18.30
  -2  -5  19   27.21   13.79
  -2  -5  19   26.51   17.90
   3   5 -19   26.44   14.36
   3   5 -19   32.33   11.04
  -3  -5  19   20.13   13.91
  -3  -5  19   16.07   10.53
   4   5 -19    9.14    7.76
   4   5 -19   17.61   10.68
  -4  -5  19   10.50    7.51
  -4  -5  19   19.59   10.64
   5   5 -19   -4.90    8.59
  -5  -5  19   -2.42    8.57
   6   4 -19    5.65    9.89
  -6  -4  19   17.20   10.20
  -3   6 -19    7.99    9.65
  -3   6 -19   15.87    7.19
   6   3 -19    6.30    9.98
   3  -6  19   15.16    6.06
   3  -6  19   17.09    8.99
  -6  -3  19    2.17   10.71
   6   2 -19   41.70   11.22
  -2   6 -19   23.15   10.98
   6   2 -19   16.82   13.43
  -2   6 -19   29.97   13.85
  -6  -2  19   11.87   13.53
   2  -6  19   14.05   12.96
   2  -6  19   17.74    9.55
  -1   6 -19    1.89    4.96
   6   1 -19    0.68    8.75
  -1   6 -19    8.49    8.04
   6   1 -19    4.34    7.15
   1  -6  19    6.73    4.42
   1  -6  19    1.21    7.29
  -6  -1  19    7.30    8.00
   0   6 -19   -0.39    4.60
   0   6 -19    7.38    7.37
   0  -6  19    4.43    6.91
   0  -6  19   -8.42    4.28
   1   6 -19   10.24    8.40
   1   6 -19    1.64    5.39
  -1  -6  19    5.55    5.22
  -1  -6  19   16.21    7.74
   2   6 -19   23.96   14.09
   2   6 -19   28.14   11.04
  -2  -6  19   25.24   13.49
  -2  -6  19   16.29   10.20
   3   6 -19    7.20   10.28
   3   6 -19   11.11    7.60
  -3  -6  19   17.72    7.12
  -3  -6  19   15.92   10.23
   4   6 -19    4.05    9.23
  -4  -6  19    8.35    8.69
   7   6 -19    4.32    5.92
   7   6 -19    0.67    9.97
  -7  -6  19    4.22    6.33
  -7  -6  19   -0.89    9.80
   7   5 -19    6.22    6.28
  -7  -5  19    5.95    6.15
  -3   7 -19   25.30   12.21
  -3   7 -19   17.05    9.32
   3  -7  19   15.30    7.94
   3  -7  19   13.53   11.14
  -2   7 -19   -7.46    4.62
   7   2 -19    4.70    8.47
  -2   7 -19   11.17    7.25
   2  -7  19    7.90    4.04
   2  -7  19   -0.29    6.77
  -7  -2  19  -15.25    8.27
  -1   7 -19    6.92    5.54
   7   1 -19   14.78    9.02
   7   1 -19   -0.65    6.81
  -1   7 -19   -0.48    8.09
   1  -7  19   -2.43    7.17
   1  -7  19    8.00    4.49
  -7  -1  19    8.11    8.77
   0   7 -19   -7.65    5.54
   0   7 -19   -0.50    7.71
   7   0 -19   38.31    8.06
   0  -7  19   -1.26    6.94
   0  -7  19   -2.96    4.18
   1   7 -19   10.28    5.58
   1   7 -19   -0.52    7.73
  -1  -7  19  -10.18    7.49
   7  -1  19    8.44    5.98
  -1  -7  19    8.51    4.71
   2   7 -19   11.16    5.74
   2   7 -19    9.73    8.01
  -2  -7  19    3.76    8.07
  -2  -7  19    0.47    5.15
   3   7 -19   24.23   13.13
  -3  -7  19   22.87   12.48
   5   7 -19   -1.64    6.07
  -5  -7  19   -2.23    5.23
   6   7 -19   13.79    9.57
  -6  -7  19    1.77    6.49
  -6  -7  19  -10.06    9.46
   7   7 -19   -9.73   13.33
   7   7 -19    5.42    7.54
  -7  -7  19  -28.11   11.00
   8   7 -19   -8.88    9.04
   8   7 -19   79.50   18.43
  -8  -7  19  -13.82   12.98
   8   6 -19  -21.80   11.88
   8   6 -19   -6.85    7.27
  -8  -6  19   -0.64    7.35
  -8  -6  19  -35.22   11.41
   8   5 -19   -1.65    7.03
   8   5 -19  -31.01   12.14
  -8  -5  19   -2.37   10.14
  -8  -5  19   -7.58    6.92
   8   4 -19    0.54   13.27
   8   4 -19   49.37   16.64
  -8  -4  19   49.85   16.98
  -3   8 -19    9.11    8.82
   8   3 -19   13.94    7.33
  -3   8 -19    5.56    6.29
  -2   8 -19   -2.24    7.63
  -2   8 -19    7.67    5.61
   2  -8  19   10.16    4.53
   2  -8  19   -1.76    6.95
  -1   8 -19   -0.99    5.15
  -1   8 -19   -1.39    7.46
   1  -8  19    0.44    4.30
   1  -8  19  -23.17    6.99
   0   8 -19    7.20    5.55
   0   8 -19    2.86    7.11
   0  -8  19    2.21    6.88
   8   0  19   -2.67    5.29
   0  -8  19   -1.86    4.46
   1   8 -19    2.56    5.39
   1   8 -19    1.48    7.19
   8  -1  19    1.06    6.20
  -1  -8  19    2.29    7.86
  -1  -8  19    0.98    5.14
   2   8 -19   18.48    7.94
  -2  -8  19   -7.13    8.10
   4   8 -19   43.64   14.97
   4   8 -19   -7.43   12.74
  -4  -8  19   54.00   14.08
  -4  -8  19   -0.57   11.57
   5   8 -19    1.19    6.99
   5   8 -19    0.60    9.52
  -5  -8  19   -1.81    5.86
  -5  -8  19  -26.00    9.28
   6   8 -19   10.86    9.71
   6   8 -19   -3.10    7.38
  -6  -8  19   -1.26    9.23
  -6  -8  19   -0.64    6.61
   7   8 -19   20.82   13.84
  -7  -8  19   25.09   13.05
   8   8 -19    3.08   11.87
   8   8 -19    1.36    7.43
  -8  -8  19    8.18   10.40
  -8  -8  19    0.72    6.69
   9   8 -19    2.86    9.14
   9   8 -19   43.76   14.00
  -9  -8  19    1.56   12.11
  -9  -8  19   10.65    8.41
   9   7 -19   -7.03   12.49
   9   7 -19    4.68    7.50
  -9  -7  19  -19.95   10.97
  -9  -7  19    4.97    7.24
   9   6 -19   -9.26   11.52
   9   6 -19   -1.81    6.49
  -9  -6  19   14.28    6.90
  -9  -6  19   -1.53   10.58
   9   5 -19    2.22   10.50
   9   5 -19   -0.58    7.14
  -9  -5  19   -0.67    6.82
  -9  -5  19  -13.07   10.93
   9   4 -19  -18.75   10.34
   9   4 -19    6.85    7.13
  -9  -4  19   23.82   11.02
   9   3 -19    1.18    6.73
   9   3 -19    2.85   10.30
  -9  -3  19    4.57    9.65
   9   2 -19   29.60    9.76
  -2   9 -19   11.98    6.56
  -2   9 -19   -1.34    8.39
   9   2 -19   -7.60    7.41
   2  -9  19   -1.47    5.45
   2  -9  19    2.64    7.69
  -1   9 -19    1.67    5.99
  -1   9 -19   -1.84    7.43
   9   1 -19   -7.07    8.01
   1  -9  19   -2.54    4.93
   1  -9  19   -6.34    6.83
   0   9 -19   -3.33    9.55
   9   0 -19    8.26   11.14
   0   9 -19   34.50    8.15
   0  -9  19   22.60    7.26
   0  -9  19    4.36    9.33
   9   0  19   11.85    9.38
   9  -1  19   -4.54    7.46
  -2  -9  19   -1.15    5.45
   3   9 -19    3.25    7.95
   3   9 -19    7.58    7.24
  -3  -9  19   -7.21    5.44
  -3  -9  19    3.52    7.76
   4   9 -19    1.31    8.03
   4   9 -19   -1.15    9.04
  -4  -9  19    3.15    7.24
  -4  -9  19   31.49    9.33
   5   9 -19   12.83    9.29
   5   9 -19    7.45    7.92
  -5  -9  19   -3.97    7.40
  -5  -9  19   22.39    9.45
   6   9 -19   -4.93    7.81
   6   9 -19    2.62    9.49
  -6  -9  19    7.54    9.12
  -6  -9  19    3.49    6.71
   7   9 -19   -7.76    9.73
  -7  -9  19   13.23    9.93
   8   9 -19   25.33    9.21
   8   9 -19   11.45   11.60
  -8  -9  19    6.39   11.30
  -8  -9  19  -10.14    8.50
   9   9 -19   -4.02    9.00
   9   9 -19    9.92   12.51
  -9  -9  19   -4.13    8.30
  -9  -9  19   -5.32   11.58
  10   9 -19   -8.45    9.66
  10   9 -19  -25.45   13.86
 -10  -9  19  -11.56   12.20
 -10  -9  19    1.76    8.46
  10   8 -19    6.77    8.69
  10   8 -19   -3.54   13.11
 -10  -8  19   -3.37   12.62
 -10  -8  19  -11.33    8.24
  10   7 -19   -0.71    8.32
  10   7 -19   -0.83   12.16
 -10  -7  19   20.29   12.35
 -10  -7  19    9.85    7.82
  10   6 -19   -8.98    7.03
  10   6 -19    6.49   11.87
 -10  -6  19   28.24   11.73
 -10  -6  19   -9.40    7.28
  10   5 -19  -12.37    6.98
  10   5 -19   18.59   11.32
 -10  -5  19    3.57    7.11
 -10  -5  19   -1.62   11.30
  10   4 -19   -1.82    7.08
  10   4 -19   -0.75   10.90
 -10  -4  19   -0.72    7.28
 -10  -4  19   -4.30   11.56
  10   3 -19   -7.44   10.26
  10   3 -19    9.95    7.47
 -10  -3  19   -5.87   10.33
  -2  10 -19    4.58    7.28
  10   2 -19   -2.00    8.69
  10   2 -19   -7.50   10.00
 -10  -2  19  -14.58   10.41
   2 -10  19    8.57    5.35
   2 -10  19   -0.60    7.12
  -1  10 -19   13.54    7.16
  10   1 -19   -2.35   10.50
  10   1 -19   20.67    8.96
 -10  -1  19   -6.62   11.17
   1 -10  19    0.62    7.72
  10   0 -19    4.29   15.96
  10   0  19   36.60   16.46
   1  10 -19   -1.46    7.02
   1  10 -19    7.34    7.03
  -1 -10  19    1.87    5.67
  10  -1  19    9.63    8.37
   2  10 -19  -27.46    7.12
   2  10 -19    9.62    7.94
  -2 -10  19   -3.24    5.57
  10  -2  19   -5.61    6.45
  -2 -10  19   -6.54    7.86
  10  -2  19   -1.54    9.41
   3  10 -19   -2.11    6.88
   3  10 -19   10.15    8.22
  -3 -10  19   -2.03    5.64
  -3 -10  19   -0.72    8.05
   4  10 -19    3.63    7.66
   4  10 -19   -4.78    8.24
  -4 -10  19  -10.64    8.21
  -4 -10  19   -0.71    6.38
   5  10 -19   -8.28    8.81
   5  10 -19   -2.25    7.43
  -5 -10  19   -4.45    6.67
  -5 -10  19   -9.69    9.02
   6  10 -19    0.68    9.68
   6  10 -19    4.67    8.31
  -6 -10  19    0.78    7.07
  -6 -10  19    4.31    9.25
   7  10 -19    0.74   10.05
  -7 -10  19    3.26    9.96
   8  10 -19   -4.00   11.62
   8  10 -19  -16.86    9.85
  -8 -10  19   -1.51   10.51
  -8 -10  19  -14.71    9.39
   9  10 -19    7.05    9.47
   9  10 -19    1.75   12.85
  -9 -10  19    0.91    8.26
  -9 -10  19   23.27   12.40
  10  10 -19   20.99   13.62
  10  10 -19   -7.38    9.19
 -10 -10  19    2.42   13.11
 -10 -10  19   -8.72    8.62
  11  10 -19    0.97   10.15
  11  10 -19   11.47   15.48
 -11 -10  19   -2.06    9.64
 -11 -10  19    3.95   14.12
  11   9 -19  -16.31   15.79
  11   9 -19   -9.77    9.34
 -11  -9  19   -0.93    8.87
 -11  -9  19  -10.70   13.60
  11   8 -19    6.61   14.26
  11   8 -19    2.47    9.52
 -11  -8  19   19.98   13.13
 -11  -8  19  -12.93    9.02
  11   7 -19   39.49   20.08
  11   7 -19   17.91   14.52
 -11  -7  19   10.51   13.94
  11   6 -19   -4.27    7.97
  11   6 -19  -11.96   12.91
 -11  -6  19    3.86    7.33
 -11  -6  19   -8.09   12.34
  11   5 -19  -13.75   12.35
  11   5 -19    1.32    7.66
 -11  -5  19   16.61   12.22
 -11  -5  19    5.32    7.42
  11   4 -19    3.92   11.03
  11   4 -19   17.57    7.63
 -11  -4  19    5.36    7.92
 -11  -4  19  -14.77   11.90
  11   3 -19  -11.62   10.22
  11   3 -19   -5.25    7.58
 -11  -3  19   -5.63   10.98
  11   2 -19    3.12   10.48
  11   2 -19    4.89    8.38
 -11  -2  19    6.25   11.44
  11   1 -19   -7.68    8.56
  11   1 -19   -0.81    9.83
 -11  -1  19   -3.48    9.97
   0  11 -19   29.94   13.45
  11   0 -19   31.04   14.58
  11   0  19   22.45   14.88
   0 -11  19   11.07   11.39
   1  11 -19    4.04    7.46
  -1 -11  19    3.56    5.82
   2  11 -19    3.07    7.50
   2  11 -19    8.48    7.98
  -2 -11  19    0.74    6.60
   3  11 -19  -14.19    7.34
   3  11 -19    3.36    8.29
  -3 -11  19    1.53    6.65
   4  11 -19   -0.60    8.36
   4  11 -19  -13.81    8.57
  -4 -11  19    0.80    7.20
   5  11 -19    4.19    8.43
   5  11 -19  -13.55    9.66
  -5 -11  19  -10.68    8.83
  -5 -11  19    0.83    7.15
   6  11 -19    9.54    9.07
   6  11 -19  -13.12   10.36
  -6 -11  19   -0.46    9.52
  -6 -11  19    0.87    7.63
   7  11 -19    0.79   17.50
  -7 -11  19   31.83   16.35
   8  11 -19   11.21    9.94
   8  11 -19   -5.99   12.54
  -8 -11  19   18.01   11.81
  -8 -11  19    1.92    8.85
   9  11 -19  -12.65   10.36
   9  11 -19  -13.04   14.76
  -9 -11  19    6.09    9.55
  -9 -11  19   -9.25   12.16
  10  11 -19   -8.17   15.20
  10  11 -19    6.10   10.38
 -10 -11  19  -42.96   14.19
 -10 -11  19   12.87   10.07
  11  11 -19   35.96   17.06
  11  11 -19  -20.20   11.57
 -11 -11  19    3.41   11.19
 -11 -11  19  -28.77   16.85
  12  11 -19   11.12   11.61
  12  11 -19   -8.64   17.53
 -12 -11  19    1.20   11.34
 -12 -11  19    3.08   17.24
  12  10 -19   53.68   24.19
  12  10 -19  -12.24   17.68
 -12 -10  19   61.33   22.36
 -12 -10  19   38.26   17.18
  12   9 -19   -0.93   10.81
  12   9 -19    6.58   17.98
 -12  -9  19   17.81   16.00
 -12  -9  19   16.95   10.76
  12   8 -19    3.48   10.58
  12   8 -19    3.02   16.13
 -12  -8  19  -24.24   14.82
 -12  -8  19   -3.68    8.82
  12   7 -19   23.12   14.15
  12   7 -19  -20.51    9.09
 -12  -7  19  -10.82   13.79
 -12  -7  19   12.09    8.85
  12   6 -19  -14.34   14.03
  12   6 -19   10.57    8.85
 -12  -6  19  -15.96   13.56
 -12  -6  19   -4.93    8.27
  12   5 -19   24.49   18.06
  12   5 -19   18.14   13.72
 -12  -5  19   22.70   14.40
 -12  -5  19   67.33   19.22
  12   4 -19   -3.26   11.05
  12   4 -19   16.56    8.65
 -12  -4  19   -8.98   12.17
 -12  -4  19   -6.50    8.25
  12   3 -19   -4.16    8.31
  12   3 -19    4.83   10.90
 -12  -3  19   18.35   12.01
  -2  12 -19  -12.34    7.35
  12   2 -19   -1.46    8.92
  12   2 -19  -10.52   11.77
 -12  -2  19   -5.97   12.34
  -1  12 -19   19.27    8.93
  12   1 -19   -8.39   10.80
  12   1 -19   15.16   11.31
 -12  -1  19   20.78   11.97
  12   0 -19   -8.98   10.49
   0  12 -19    9.82    7.83
  12   0  19   -1.58    8.79
 -12   1 -19    0.67    5.54
   1  12 -19   -1.08    8.75
  12  -1  19    7.82    9.88
 -12   2 -19   -4.56    5.44
   2  12 -19    0.57    8.65
  12  -2  19   -2.93    7.08
  12  -2  19   -3.77   11.46
   3  12 -19    4.85    8.71
  12  -3  19   -6.20   11.50
   4  12 -19   -1.29    9.59
  -4 -12  19   -3.60    7.36
   5  12 -19    1.38   12.58
  -5 -12  19    1.87   10.00
   6  12 -19    0.74   10.66
  -6 -12  19   -0.98    8.45
   7  12 -19    9.75   11.60
  -7 -12  19    5.83   11.33
  -7 -12  19   -1.02    9.22
   8  12 -19   -7.44   13.75
  -8 -12  19  -22.33   12.61
   9  12 -19   34.52   16.73
  -9 -12  19   24.82   15.40
  -9 -12  19    1.13   12.17
  10  12 -19   31.08   21.08
 -10 -12  19   10.73   15.58
 -10 -12  19   26.43   19.73
  11  12 -19   25.59   17.52
 -11 -12  19   -2.24   16.99
 -11 -12  19    1.26   10.42
  12  12 -19   17.51   22.31
 -12 -12  19   19.67   20.32
  13  12 -19   50.46   25.39
 -13 -12  19    1.83   24.40
  13  11 -19   -4.26   22.25
  13  11 -19   -1.16   11.51
 -13 -11  19   22.79   19.99
 -13 -11  19    8.94   11.13
  13  10 -19   34.87   19.37
  13  10 -19   -7.49   12.25
 -13 -10  19   -1.16   11.43
 -13 -10  19   11.82   17.72
  13   9 -19   60.03   13.55
 -13  -9  19  -13.79   12.29
 -13  -9  19  -15.59   18.30
  13   8 -19    0.92    9.81
  13   8 -19   -6.39   16.66
 -13  -8  19  -17.68   16.15
 -13  -8  19   12.78    9.37
  13   7 -19  -17.19   13.88
  13   7 -19   -4.16    9.91
 -13  -7  19   21.23    9.60
 -13  -7  19    3.40   15.21
  13   6 -19   -0.80    9.88
  13   6 -19    4.68   13.69
 -13  -6  19   -0.88    8.38
 -13  -6  19  -25.07   15.49
  13   5 -19    4.44    8.86
  13   5 -19    3.53   12.43
 -13  -5  19    3.43    8.46
 -13  -5  19  -10.91   12.91
  13   4 -19   -0.73    8.50
  13   4 -19    9.32   11.98
 -13  -4  19  -10.05   12.45
 -13  -4  19   -2.58    8.73
  13   3 -19    1.67   11.62
  13   3 -19   -1.46    8.30
 -13  -3  19   -3.52    9.10
 -13  -3  19   -3.73   12.73
  13   2 -19    6.70   12.21
  13   2 -19    6.09    9.97
 -13  -2  19   20.63   13.07
  13   1 -19    8.26   10.43
 -13  -1  19   -6.43   11.29
  13   0 -19    5.51   12.71
  13   0  19   17.43   12.32
 -13   1 -19    2.93    5.74
  13  -1  19    8.40   11.40
 -13   2 -19    2.15    7.00
  13  -2  19   26.21   13.85
  13  -2  19    9.61   10.15
  13  -3  19  -14.38   14.10
  13  -3  19   13.92    8.40
  14  11 -19   37.04   24.04
 -14 -11  19    1.35    9.87
 -14 -11  19    1.85   22.10
  14  10 -19   30.51   20.92
  14  10 -19  -14.57   12.54
 -14 -10  19   -1.72   19.50
 -14 -10  19  -13.58   11.11
  14   9 -19   42.34   19.51
  14   9 -19   -3.10   11.52
 -14  -9  19  -17.02   11.40
 -14  -9  19   18.50   17.96
  14   8 -19  -18.65   18.00
  14   8 -19   -0.96   10.79
 -14  -8  19   -4.58   17.77
 -14  -8  19   15.70   10.29
  14   7 -19  244.56   75.08
  14   7 -19  -18.19   60.59
 -14  -7  19  329.86   76.96
 -14  -7  19   82.50   59.91
  14   6 -19  -39.51   11.69
  14   6 -19   -4.86   15.10
 -14  -6  19  -26.52   16.66
 -14  -6  19   17.81   10.71
  14   5 -19   -1.63    9.42
  14   5 -19   -1.83   12.35
 -14  -5  19    6.77   14.16
 -14  -5  19    3.63    8.80
  14   4 -19   -8.77   13.10
  14   4 -19   -1.54    9.45
 -14  -4  19  -26.34   14.14
 -14  -4  19    7.27    9.60
  14   3 -19    6.20    9.48
  14   3 -19   -7.71   13.08
 -14  -3  19   -5.21   12.87
 -14  -3  19    2.78    9.86
  14   2 -19   12.98   12.49
  14   2 -19    0.79   10.59
 -14  -2  19   24.76   13.28
  14   1 -19    4.24   10.59
 -14  -1  19    8.09   12.02
  14   0 -19  -14.96   12.62
  14   0  19  -12.76   11.90
 -14   1 -19   -1.61    6.07
  14  -1  19    2.13   12.16
  14  -1  19   -2.74    8.68
 -14   2 -19    6.32    6.09
  14  -2  19   15.90    9.09
  14  -2  19  -22.73   13.54
 -14   3 -19    6.26    6.11
 -14   3 -19   -1.19    8.34
  14  -3  19    8.60    9.34
  14  -3  19    0.83   14.49
  15  10 -19   -3.51   11.13
  15  10 -19   10.31   22.31
 -15 -10  19   -1.87   20.31
  15   9 -19   -4.35   11.96
  15   9 -19  -43.20   19.82
 -15  -9  19   -2.41   10.56
 -15  -9  19   26.07   19.38
  15   8 -19   32.86   18.73
  15   8 -19    5.06   12.28
 -15  -8  19   12.25   11.51
 -15  -8  19   -0.82   18.98
  15   7 -19   -7.64   10.38
  15   7 -19   24.22   17.02
 -15  -7  19  -10.85   16.82
 -15  -7  19   -5.22   10.44
  15   6 -19  -14.17   15.24
  15   6 -19    9.69   10.69
 -15  -6  19   -5.97   10.11
 -15  -6  19   41.97   16.18
  15   5 -19    1.72   10.70
  15   5 -19   -6.61   13.64
 -15  -5  19   -7.08   16.34
 -15  -5  19    1.92   10.60
  15   4 -19    0.81   10.62
  15   4 -19   -6.32   13.48
 -15  -4  19  -13.72   14.98
 -15  -4  19   -3.82   10.78
 -15  -3  19   -0.97    9.89
 -15  -3  19    0.68   13.17
  15   0  19   10.32   13.48
 -15   1 -19    5.31    6.89
  15  -1  19  -23.35   12.93
  15  -1  19    8.04    9.75
 -15   2 -19   -0.88    7.90
 -15   2 -19    5.18    9.56
  15  -2  19   17.60   10.77
  15  -2  19   29.97   16.26
 -15   3 -19    1.31    8.61
 -15   3 -19    0.87    6.82
  15  -3  19   -1.91   10.40
  15  -3  19   -9.12   15.44
 -16  -9  19   36.38   27.87
 -16  -8  19   -1.18   11.46
  16   0  19   33.25   22.57
 -16   1 -19   -3.92    7.59
  16  -1  19   11.98   15.25
  16  -1  19   -8.87   10.17
 -16   2 -19   -3.90    7.64
 -16   2 -19    7.11    9.75
  16  -2  19    0.94   16.04
  16  -2  19   17.35   10.82
 -16   3 -19    6.82    8.26
 -16   3 -19    4.34   10.38
  16  -3  19   12.80   11.95
  16  -3  19   10.96   16.89
  16  -4  19  -23.25   21.67
  17   0  19   24.98   20.31
 -17   1 -19    4.35    8.24
 -17   1 -19   16.77   11.44
  17  -1  19   -1.23   11.65
  17  -1  19  -12.15   15.66
 -17   2 -19   -1.56   10.38
 -17   2 -19   21.70    8.67
  17  -2  19   -9.21   17.23
  17  -2  19  -19.28   11.19
 -17   3 -19    3.26   11.97
 -17   3 -19   -5.43    9.48
  17  -3  19   26.12   12.96
  17  -3  19   24.96   18.60
 -17   4 -19    2.18    9.49
  17  -4  19   19.21   12.38
  17  -4  19   10.33   19.95
 -18   1 -19   -1.67    9.69
 -18   1 -19    8.46    9.96
  18  -1  19   16.31   13.49
 -18   2 -19    6.05    9.71
  18  -2  19   20.09   13.30
  18  -2  19   -7.84   18.47
 -18   3 -19   20.61    9.64
  18  -3  19    1.19   19.03
  18  -3  19  -34.35   14.73
 -18   4 -19    7.30   12.24
  18  -4  19   27.66   15.30
   0   1 -20   -4.95    5.49
  -1   1 -20   -2.08    4.41
   1   1 -20    6.80    5.37
  -1  -1  20   -3.08    6.76
  -1   2 -20    0.39    4.62
   2   1 -20   -0.52    5.63
  -1   2 -20   -1.27    8.17
   1  -2  20   11.21    6.84
  -2  -1  20    2.63    7.25
   0   2 -20   -4.96    5.08
   0   2 -20   -2.49    8.84
   0  -2  20   -9.24    6.87
   1   2 -20   -8.05    8.45
  -2   1 -20   -0.77    4.15
   1   2 -20   -7.47    5.05
  -1  -2  20   -1.17    6.94
   2   2 -20    8.74    9.31
   2   2 -20    1.40    6.83
  -2   2 -20   17.76    6.54
  -2  -2  20   20.88    8.93
   2  -2  20   -0.40    8.55
  -2   3 -20    1.68    7.36
   3   2 -20   -2.98    5.89
  -2   3 -20    2.76    4.19
   3   2 -20    0.64    7.96
  -3  -2  20   -1.25    7.33
   2  -3  20   -1.37    6.16
   3   1 -20   -4.15    9.57
   3   1 -20   20.28    7.16
  -1   3 -20    8.37    8.80
  -1   3 -20   18.24    5.94
  -3  -1  20   17.72    8.36
   1  -3  20    0.35    7.74
   0   3 -20   -8.48    4.79
   0   3 -20    1.70    7.41
   0  -3  20   -3.92    7.04
   1   3 -20   -2.31    7.97
  -3   1 -20   -1.42    4.41
   1   3 -20    1.63    4.83
  -1  -3  20   -2.58    7.36
   2   3 -20    1.78    7.42
  -3   2 -20    0.68    4.25
   2   3 -20    3.44    4.74
  -2  -3  20    1.54    7.18
  -3   3 -20   24.69   11.77
   3   3 -20   15.25   13.85
  -3   3 -20   24.25   13.98
   3   3 -20   26.82   11.24
   3  -3  20   22.39   12.60
  -3  -3  20   24.89   13.62
  -3   4 -20    3.56    7.79
  -3   4 -20   -2.27    4.12
   4   3 -20    0.96    5.68
   4   3 -20   -3.15    8.54
   3  -4  20    4.92    6.41
  -4  -3  20   21.03    8.36
   4   2 -20   29.01    9.83
  -2   4 -20   23.32    9.13
   4   2 -20   30.60   12.40
  -2   4 -20   23.63   11.33
   2  -4  20   13.95   10.62
  -4  -2  20    6.47   11.40
  -1   4 -20   -0.53    7.14
   4   1 -20    2.93    6.19
   4   1 -20    0.70    7.87
  -1   4 -20    2.17    4.30
   1  -4  20   -0.99    6.56
  -4  -1  20   -6.80    7.22
   0   4 -20   28.66   15.87
   0   4 -20   29.20   13.19
   0  -4  20   25.99   15.39
   1   4 -20   -5.18    4.50
   1   4 -20    6.71    8.03
  -4   1 -20   -0.33    3.80
  -1  -4  20   -3.26    7.08
   2   4 -20   11.60   10.89
  -4   2 -20    3.79    8.35
   2   4 -20   20.91    8.20
  -2  -4  20   18.62   10.68
   3   4 -20   -2.41    8.20
   3   4 -20   -7.04    5.35
  -4   3 -20    0.92    3.74
  -3  -4  20    4.38    8.19
   4   4 -20    2.78    5.45
   4   4 -20   14.41    8.97
  -4  -4  20  -12.93    8.57
   5   4 -20    1.95   10.52
  -3   5 -20   32.58   12.44
   5   3 -20   17.65   12.95
  -3   5 -20   23.53   10.08
   5   3 -20    0.51    9.81
   3  -5  20   21.67    8.86
  -5  -3  20   11.03   12.78
   3  -5  20   20.64   11.45
   5   2 -20   25.16    9.14
   5   2 -20    4.69   11.31
  -2   5 -20   16.35   10.87
  -2   5 -20   11.85    8.32
   2  -5  20    4.65   10.14
  -5  -2  20    0.90   10.92
   2  -5  20   23.98    7.48
   5   1 -20   12.87   14.46
  -1   5 -20   30.46   11.83
  -1   5 -20   33.53   14.87
   1  -5  20   25.15   14.06
  -5  -1  20   -0.47   14.16
   1  -5  20   34.21   10.87
   0   5 -20   -5.92    7.98
   0   5 -20   -6.98    4.73
   0  -5  20    0.34    7.39
   0  -5  20   -3.83    4.45
   1   5 -20   27.53   12.27
   1   5 -20   31.34   15.42
  -1  -5  20   20.67   14.96
   2   5 -20   33.74   13.81
   2   5 -20   27.95   11.09
  -2  -5  20   23.17   13.38
   3   5 -20   37.51   14.12
   3   5 -20   20.84   10.87
  -3  -5  20   18.01   13.66
   4   5 -20    8.19   10.59
  -4  -5  20   20.94   10.94
   6   5 -20   58.28   12.86
  -6  -5  20    0.45   11.82
  -3   6 -20   19.10    8.81
  -3   6 -20   25.32   11.27
   3  -6  20    6.39   10.38
   3  -6  20   16.10    7.46
  -2   6 -20   16.50    5.50
  -2   6 -20   14.55    8.52
   6   2 -20    0.69    9.52
   2  -6  20    8.91    4.67
  -6  -2  20   -1.88    9.04
   2  -6  20   -6.50    8.09
   6   1 -20    7.33    8.98
  -1   6 -20    6.82    5.07
  -1   6 -20    3.68    8.69
  -6  -1  20    2.43    8.92
   1  -6  20    9.62    4.61
   1  -6  20   -1.64    7.70
   0   6 -20    1.25    4.83
   0   6 -20    1.64    8.12
   0  -6  20   -3.43    7.54
   0  -6  20    4.71    4.47
   1   6 -20    2.17    5.17
   1   6 -20    5.70    8.31
  -1  -6  20    2.50    7.72
  -1  -6  20    0.91    4.76
   2   6 -20    8.13    5.89
   2   6 -20    7.40    8.80
  -2  -6  20    2.42    5.47
  -2  -6  20    9.69    8.86
   3   6 -20    8.29   11.91
  -3  -6  20   26.50   11.97
   5   6 -20    6.20    7.06
  -5  -6  20   -3.43    6.30
   6   6 -20    0.54    6.63
   6   6 -20    9.15   10.09
  -6  -6  20    3.03    6.11
  -6  -6  20    7.24   10.25
   7   6 -20    1.72    7.90
   7   6 -20  -36.16   13.57
  -7  -6  20  -26.36   12.10
   7   5 -20    0.72    9.81
   7   5 -20    3.88    6.40
  -7  -5  20    1.91    6.58
  -7  -5  20    3.83    9.81
   7   4 -20   12.03   11.21
   7   4 -20    3.83    8.68
  -7  -4  20   39.88   11.21
  -3   7 -20    0.42    4.59
  -3   7 -20   -0.47    7.37
   7   3 -20    0.57    6.60
  -2   7 -20    1.99   11.02
  -2   7 -20   29.19    8.16
   2  -7  20    5.95    9.92
   2  -7  20   14.57    6.92
  -1   7 -20    0.46    5.66
  -1   7 -20    4.15    8.04
   1  -7  20    1.68    4.47
   1  -7  20   15.70    7.61
   0   7 -20   -3.77    8.21
   0   7 -20    1.90    5.27
   0  -7  20    8.91    4.53
   0  -7  20   -4.44    7.33
   1   7 -20   -1.12    7.83
   1   7 -20    3.44    5.51
  -1  -7  20  -12.06    7.69
  -1  -7  20   -0.47    4.89
   2   7 -20   17.96   10.89
  -2  -7  20    9.23   10.23
   4   7 -20   -8.85    7.09
  -4  -7  20   -0.56    5.75
   5   7 -20  -12.12    7.93
   5   7 -20    4.62    9.65
  -5  -7  20   -5.90    5.42
  -5  -7  20  -14.39   10.23
   6   7 -20  -14.60   11.87
   6   7 -20   -9.07    8.41
  -6  -7  20    2.50    7.44
  -6  -7  20  -26.80   11.78
   7   7 -20   20.57   17.13
  -7  -7  20   27.13   15.98
   8   7 -20    1.56   12.04
   8   7 -20  -10.73    8.18
  -8  -7  20  -17.23   11.41
  -8  -7  20   -7.73    8.11
   8   6 -20    0.78   11.66
   8   6 -20  -19.43    6.68
  -8  -6  20   12.22   10.66
  -8  -6  20   -2.05    7.14
   8   5 -20   -5.30    7.44
   8   5 -20   29.33   11.68
  -8  -5  20    4.74    7.48
  -8  -5  20    4.61   10.95
   8   4 -20   -0.58    7.83
   8   4 -20   15.50   11.36
  -8  -4  20   11.81   11.13
   8   3 -20    0.60    8.81
   8   3 -20  -11.04   11.94
  -8  -3  20  -10.76   12.63
   8   2 -20   23.09    9.73
   8   2 -20    2.60    7.56
  -2   8 -20   -4.47    5.94
  -2   8 -20   -2.55    9.01
   2  -8  20    6.94    4.92
  -8  -2  20   19.20    9.12
   2  -8  20    2.53    7.70
   8   1 -20   -2.34    8.72
  -1   8 -20    8.41    8.61
   8   1 -20   12.54    8.48
  -1   8 -20   -2.07    6.01
   1  -8  20    9.15    5.38
   1  -8  20   23.65    8.27
   0   8 -20    4.34    8.13
   0   8 -20   -8.78    6.22
   0  -8  20   -2.90    4.58
   0  -8  20    1.70    7.51
   1   8 -20   -1.68    8.56
  -1  -8  20  -15.11    8.47
   3   8 -20    0.58   10.76
   3   8 -20   42.53   12.88
   4   8 -20    3.19   10.97
   4   8 -20   17.93    8.64
  -4  -8  20   11.95   10.22
  -4  -8  20    8.97    7.52
   5   8 -20   11.20    7.72
   5   8 -20   -0.67   10.05
  -5  -8  20   -1.89    6.39
  -5  -8  20    9.67    9.80
   6   8 -20   -2.60    7.05
   6   8 -20    0.71   10.03
  -6  -8  20  -15.99    6.91
  -6  -8  20   13.37    9.94
   7   8 -20    6.08   11.32
  -7  -8  20   -5.70   10.95
   8   8 -20    9.99    8.25
   8   8 -20   16.23   12.39
  -8  -8  20   -9.73    7.46
  -8  -8  20  -16.34   11.51
   9   8 -20  -16.51    8.63
   9   8 -20    2.60   12.24
  -9  -8  20   -5.49   11.22
  -9  -8  20    0.80    8.00
   9   7 -20   17.30   13.68
   9   7 -20   18.40   10.17
  -9  -7  20    5.99    9.38
  -9  -7  20   13.02   13.32
   9   6 -20   -5.72   11.30
   9   6 -20    5.80    7.64
  -9  -6  20    8.65   11.37
  -9  -6  20   10.14    7.61
   9   5 -20    2.50    7.25
   9   5 -20   -4.72   10.75
  -9  -5  20   -5.04    7.26
  -9  -5  20   12.48   11.19
   9   4 -20  -14.78    7.63
   9   4 -20    3.08   10.45
  -9  -4  20  -24.40   11.51
   9   3 -20   29.89   11.98
   9   3 -20   17.90    9.15
  -9  -3  20    4.86   11.33
   9   2 -20  -15.48    9.51
  -2   9 -20   -4.37    7.67
  -2   9 -20   -4.44    6.43
   9   2 -20   17.84    8.32
   2  -9  20   12.45    8.15
   2  -9  20    0.49    4.96
  -9  -2  20  -11.46   10.26
   9   1 -20   12.91   12.00
  -1   9 -20    9.97   10.68
   9   1 -20   12.96   11.09
  -9  -1  20   21.18   12.16
   1  -9  20    8.55   10.67
   9   0  20    8.62    8.24
   1   9 -20   -3.67    8.15
  -1  -9  20   -0.56    6.87
   2   9 -20   -6.96    7.51
   2   9 -20   -8.29    7.95
  -2  -9  20    5.01    8.08
  -2  -9  20   11.22    5.94
   3   9 -20   -1.74    8.42
   3   9 -20  -13.75    7.75
  -3  -9  20    0.76    8.42
  -3  -9  20   -4.34    5.73
   4   9 -20    3.06    9.19
   4   9 -20   11.52    7.97
  -4  -9  20    3.98    9.46
  -4  -9  20   22.81    7.35
   5   9 -20  -10.40    9.19
   5   9 -20   -7.73    7.64
  -5  -9  20   -8.42    9.60
  -5  -9  20    1.37    6.85
   6   9 -20   -0.73    7.81
   6   9 -20   12.48    9.81
  -6  -9  20  -19.72   10.38
  -6  -9  20    2.17    7.25
   7   9 -20   13.42   12.58
  -7  -9  20   12.95   11.91
   8   9 -20   -0.80    9.12
   8   9 -20   32.08   12.65
  -8  -9  20    2.43    8.11
  -8  -9  20  -20.17   10.60
   9   9 -20    5.47   13.08
   9   9 -20   10.06    9.07
  -9  -9  20    0.86    8.35
  -9  -9  20   -9.51   12.59
  10   9 -20    9.70   10.51
  10   9 -20    6.90   15.49
 -10  -9  20   15.18   14.00
 -10  -9  20    9.14    9.46
  10   8 -20   33.35   14.09
  10   8 -20   -4.75    9.59
 -10  -8  20   13.59    9.36
 -10  -8  20    4.74   13.46
  10   7 -20    2.99    8.65
  10   7 -20   -9.09   13.47
 -10  -7  20  -33.80   13.55
 -10  -7  20   -4.80    8.02
  10   6 -20   -0.68    8.95
  10   6 -20   15.50   13.64
 -10  -6  20    9.25    8.70
 -10  -6  20   18.96   13.20
  10   5 -20    4.94   12.19
  10   5 -20   12.63    8.09
 -10  -5  20  -11.48    7.67
 -10  -5  20   16.64   12.29
  10   4 -20  -15.06    7.28
  10   4 -20   -7.24   11.16
 -10  -4  20    0.78    7.70
 -10  -4  20   11.45   11.44
  10   3 -20    5.40    8.14
  10   3 -20    0.80   10.47
 -10  -3  20   -6.82   10.71
  10   2 -20    0.72    8.78
  10   2 -20    5.63   10.02
  -2  10 -20    6.31    7.70
 -10  -2  20  -12.04   11.02
  10   1 -20   -4.18    9.72
  10   1 -20    2.40    9.02
 -10  -1  20   -2.34    9.87
   0  10 -20   39.27   17.05
   0  10 -20   13.94   15.57
   0 -10  20   10.94   13.74
   0 -10  20   51.33   16.31
   1  10 -20   -3.42    7.02
   1  10 -20   -6.97    8.05
  -1 -10  20   -8.87    5.78
  -1 -10  20  -14.23    8.20
   2  10 -20    7.73    7.71
   2  10 -20   18.48    8.73
  -2 -10  20   -0.72    8.15
  -2 -10  20   -2.65    6.21
   3  10 -20   -0.72    7.24
   3  10 -20    2.94    8.52
  -3 -10  20  -14.37    8.09
  -3 -10  20    2.08    6.58
   4  10 -20   -4.49    7.57
   4  10 -20   20.55    9.51
  -4 -10  20    2.17    6.45
  -4 -10  20   -3.59    8.31
   5  10 -20   17.04    8.94
   5  10 -20   17.27    9.75
  -5 -10  20   -4.55    7.65
  -5 -10  20   -3.81    9.71
   6  10 -20   23.57   11.72
   6  10 -20    1.61    9.55
  -6 -10  20    6.38    9.00
  -6 -10  20   13.11   11.16
   7  10 -20    0.77   11.36
  -7 -10  20    0.49   11.21
   8  10 -20   -4.36    9.19
   8  10 -20   13.42   12.32
  -8 -10  20  -17.03   11.52
  -8 -10  20    0.89    8.60
   9  10 -20  -18.26   13.55
   9  10 -20    9.13    9.86
  -9 -10  20    8.46    8.34
  -9 -10  20    9.82   12.55
  10  10 -20   -4.79   10.81
  10  10 -20   32.48   16.83
 -10 -10  20   13.03   10.53
 -10 -10  20   11.33   13.80
  11  10 -20    5.71   17.02
  11  10 -20  -17.11   10.53
 -11 -10  20  -24.78   14.82
 -11 -10  20    1.07    9.84
  11   9 -20    1.06   15.56
  11   9 -20    8.37   10.12
 -11  -9  20    6.61   14.63
 -11  -9  20    3.90    9.33
  11   8 -20    1.98   14.48
  11   8 -20   -0.84    9.56
 -11  -8  20   -8.15    9.60
 -11  -8  20   -5.12   13.70
  11   7 -20   -7.13    9.51
  11   7 -20  -19.21   14.68
 -11  -7  20  -26.98   14.05
 -11  -7  20    8.55    8.80
  11   6 -20   29.90   18.52
  11   6 -20   46.38   14.93
 -11  -6  20   66.01   19.42
 -11  -6  20   -1.64   13.67
  11   5 -20  -28.48   13.55
  11   5 -20   -1.42    8.26
 -11  -5  20   -1.63    8.26
 -11  -5  20  -15.22   12.67
  11   4 -20   -0.84   11.14
  11   4 -20    2.11    8.49
 -11  -4  20    5.77    8.56
 -11  -4  20   23.53   12.37
  11   3 -20   17.44   11.59
  11   3 -20    1.43    8.33
 -11  -3  20  -16.74   11.41
  11   2 -20   15.25    9.61
  11   2 -20   16.70   10.88
 -11  -2  20  -18.08   11.49
  11   1 -20   13.82   14.97
  -1  11 -20   25.51   13.34
  11   1 -20   28.39   13.47
 -11  -1  20    3.08   15.62
   1 -11  20   27.84   12.91
   1 -11  20   15.44   10.49
   0  11 -20   13.23    7.54
  11   0 -20   -8.62   10.54
   0 -11  20   -1.38    5.71
   0 -11  20   -5.19    7.93
  11   0  20    0.97    8.19
   1  11 -20   30.46   13.18
   1  11 -20   25.46   13.64
  -1 -11  20   13.62   11.59
  -1 -11  20   21.90   13.17
  11  -1  20   29.74   16.07
   2  11 -20    1.67    8.20
   2  11 -20    2.35    7.72
  -2 -11  20   -2.23    6.42
  -2 -11  20   -1.50    8.17
   3  11 -20    2.42    7.88
   3  11 -20    2.46    9.12
  -3 -11  20   -1.57    8.26
  -3 -11  20   -0.78    6.92
   4  11 -20   -0.83    8.32
   4  11 -20   -7.20    9.07
  -4 -11  20  -11.57    8.71
  -4 -11  20    0.81    7.32
   5  11 -20    8.60    8.49
   5  11 -20  -13.96   10.50
  -5 -11  20    0.85    7.77
  -5 -11  20   -4.39    9.42
   6  11 -20    3.00   13.13
   6  11 -20    8.02   11.21
  -6 -11  20    0.89    9.78
  -6 -11  20   13.14   11.65
   7  11 -20    4.86   11.73
   7  11 -20  -10.17    9.62
  -7 -11  20  -14.96    8.45
  -7 -11  20   12.16   10.97
   8  11 -20   -9.69   12.81
  -8 -11  20    2.75   11.55
   9  11 -20    2.90   14.45
   9  11 -20   11.05   10.40
  -9 -11  20    3.13    9.58
  -9 -11  20    5.97   12.94
  10  11 -20    4.20   10.85
  10  11 -20   22.33   15.88
 -10 -11  20   -2.65   14.37
 -10 -11  20   -2.21    9.85
  11  11 -20    3.30   11.21
  11  11 -20    4.67   17.57
 -11 -11  20    1.17   10.83
 -11 -11  20  -20.30   15.65
  12  11 -20   -5.39   20.35
  12  11 -20   -8.08   12.58
 -12 -11  20  -21.54   18.31
 -12 -11  20   -8.70   12.11
  12  10 -20  -43.46   18.85
  12  10 -20   -7.41   11.21
 -12 -10  20    2.26   17.12
 -12 -10  20   -1.13   10.10
  12   9 -20  -67.38   23.13
  12   9 -20   -9.80   13.96
 -12  -9  20  -18.69   13.94
 -12  -9  20  -68.05   20.35
  12   8 -20    6.42   11.03
  12   8 -20   70.54   17.55
 -12  -8  20    0.97   10.56
 -12  -8  20  -13.14   16.88
  12   7 -20   11.74   10.63
  12   7 -20   -2.03   15.00
 -12  -7  20   18.80   15.35
 -12  -7  20   10.96    9.46
  12   6 -20   13.73    9.28
  12   6 -20  -19.02   15.18
 -12  -6  20   14.49   14.75
 -12  -6  20    5.26    8.95
  12   5 -20   10.53    8.75
  12   5 -20    1.81   12.30
 -12  -5  20  -23.46    8.91
 -12  -5  20    0.65   13.32
  12   4 -20    2.99    9.03
  12   4 -20    8.74   12.36
 -12  -4  20  -24.74   13.09
 -12  -4  20   -6.13    9.23
  12   3 -20    1.72   11.74
  12   3 -20  -15.85    8.90
 -12  -3  20   -0.63   12.23
  12   2 -20    2.60   13.27
  12   2 -20   22.35   11.34
 -12  -2  20   24.01   13.51
  12   1 -20    0.87   10.12
  -1  12 -20   11.15    8.09
 -12  -1  20   -2.59   11.55
   0  12 -20   17.95   14.91
  12   0 -20   36.07   16.26
  12   0  20   30.38   16.84
   1  12 -20    0.55    8.08
  12  -1  20   -1.70    9.59
   2  12 -20   -7.56    9.20
  -2 -12  20    5.04    7.33
   3  12 -20   -0.62    9.07
  -3 -12  20    1.75    8.09
   4  12 -20   -0.66    9.76
  -4 -12  20   -2.72    8.32
   5  12 -20  -15.64   11.14
  -5 -12  20   -0.94    9.77
  -5 -12  20   12.33    8.18
   6  12 -20   -4.83   11.71
   6  12 -20    0.98    9.84
  -6 -12  20    6.95    8.32
  -6 -12  20   -5.01   10.51
   7  12 -20   -0.87   12.60
   7  12 -20    1.02   10.82
  -7 -12  20   -6.25    9.68
  -7 -12  20    0.54   11.62
   8  12 -20   21.80   15.45
  -8 -12  20    4.66   13.37
   9  12 -20    5.18   18.28
   9  12 -20   -6.62   14.15
  -9 -12  20  -25.38   14.14
  -9 -12  20  -24.83   17.82
  10  12 -20   23.91   16.58
 -10 -12  20   -7.31   11.79
 -10 -12  20    3.49   15.29
  11  12 -20    7.57   19.10
 -11 -12  20   -1.29   10.74
 -11 -12  20   -5.44   17.87
  12  12 -20  -66.89   23.21
 -12 -12  20   60.73   20.01
  13  11 -20   -6.05   11.82
  13  11 -20   26.52   22.32
 -13 -11  20    6.13   20.69
 -13 -11  20    5.28   11.75
  13  10 -20  -25.71   13.08
  13  10 -20  -13.41   19.73
 -13 -10  20  -15.70   12.92
 -13 -10  20    3.29   18.99
  13   9 -20    3.10   11.11
  13   9 -20   26.90   18.18
 -13  -9  20   -3.12   17.91
 -13  -9  20   -1.11   10.42
  13   8 -20  147.50   89.36
  13   8 -20  198.54   73.46
 -13  -8  20  359.78   89.00
 -13  -8  20    9.28   71.22
  13   7 -20   16.85   10.42
  13   7 -20   -9.63   16.40
 -13  -7  20    7.87   16.09
 -13  -7  20    5.85   10.01
  13   6 -20   -6.84   10.37
  13   6 -20  -20.86   15.80
 -13  -6  20    9.37   10.09
 -13  -6  20   -4.19   15.28
  13   5 -20   -1.88   13.81
  13   5 -20   32.69   10.26
 -13  -5  20   13.81   10.24
 -13  -5  20   -9.56   14.53
  13   4 -20    5.44   12.33
  13   4 -20  -13.47    9.58
 -13  -4  20   -4.67   13.20
 -13  -4  20    2.78    9.54
  13   3 -20   11.55   12.21
  13   3 -20   -2.39    9.28
 -13  -3  20   -0.95    9.92
 -13  -3  20  -20.47   13.94
  13   2 -20   -8.34   10.26
  13   2 -20  -14.34   12.84
 -13  -2  20  -12.56   12.42
  13   1 -20    7.23   12.07
 -13  -1  20   -8.85   12.01
  13   0 -20  -12.02   12.49
  13   0  20  -16.99   11.83
  13  -1  20   14.34   12.15
  13  -2  20    8.09    8.50
  13  -2  20    3.49   11.92
  14  10 -20   22.30   13.40
  14  10 -20   47.52   23.02
 -14 -10  20    7.19   20.44
 -14 -10  20  -18.01   13.89
  14   9 -20    6.53   11.66
  14   9 -20  -35.08   17.94
 -14  -9  20   14.40   18.60
 -14  -9  20    2.36   11.35
  14   8 -20  -11.23   11.22
  14   8 -20   12.25   17.50
 -14  -8  20    3.31   10.56
 -14  -8  20   10.45   18.27
  14   7 -20   19.65   11.27
  14   7 -20   30.26   17.02
 -14  -7  20    1.04   10.44
 -14  -7  20  -21.36   17.62
  14   6 -20   35.23   78.90
  14   6 -20  251.18   95.77
 -14  -6  20  478.93  101.05
 -14  -6  20   72.98   77.71
  14   5 -20  -16.61   15.05
  14   5 -20   -3.53   10.99
 -14  -5  20   -0.98   10.13
 -14  -5  20  -20.82   15.71
  14   4 -20    8.46   13.54
  14   4 -20  -14.24   10.18
 -14  -4  20    4.91    9.85
 -14  -4  20   -1.40   14.99
  14   3 -20  -12.84   13.86
  14   3 -20  -11.87   10.55
 -14  -3  20    7.03   10.67
 -14  -3  20   -2.07   13.65
  14   2 -20    1.74   10.15
  14   2 -20    4.62   11.97
 -14  -2  20  -14.49   11.99
  14   1 -20   -0.93   11.08
  14   0 -20    4.10   12.37
  14   0  20    0.64   10.35
 -14   1 -20    3.25    5.19
  14  -1  20   -0.72   12.23
 -14   2 -20   -0.79    6.44
  14  -2  20   11.56    8.89
  14  -2  20    6.12   13.55
  15   9 -20   -3.43   13.23
  15   9 -20   -1.43   21.28
 -15  -9  20  -21.46   13.41
 -15  -9  20  -10.99   20.42
  15   8 -20   11.56   18.67
  15   8 -20  -27.91   12.45
 -15  -8  20   14.10   11.27
 -15  -8  20   16.28   18.98
  15   7 -20  -10.21   11.42
  15   7 -20    5.82   17.20
 -15  -7  20    1.64   17.71
 -15  -7  20    5.54   11.11
  15   6 -20    1.08   16.07
  15   6 -20   14.24   11.35
 -15  -6  20    9.40   16.37
 -15  -6  20   -9.57   10.68
  15   5 -20    0.93   10.53
  15   5 -20   17.17   14.11
 -15  -5  20   11.38   10.60
 -15  -5  20   -4.50   16.39
  15   4 -20   -9.67   14.30
  15   4 -20   -5.27   10.57
 -15  -4  20    1.04   10.60
 -15  -4  20   -6.55   15.76
  15   3 -20    0.89   11.04
  15   3 -20    1.89   12.99
 -15  -3  20   12.21   14.03
 -15  -3  20    4.21   11.25
  15   2 -20   -1.89   12.26
 -15  -2  20    8.64   13.22
  15   0  20   18.56   16.06
 -15   1 -20   -0.89    7.08
  15  -1  20   -2.35   13.95
 -15   2 -20   -4.39    7.17
 -15   2 -20    3.91   10.17
  15  -2  20   33.37   11.97
  15  -2  20  -57.92   17.06
  16   8 -20   13.49   12.65
 -16  -8  20   -1.84   20.23
 -16  -8  20    9.98   12.49
 -16  -7  20   -1.18   12.27
  16   0  20   17.14   16.30
 -16   1 -20    3.94    7.35
  16  -1  20   -6.03   14.32
 -16   2 -20    4.28   10.02
 -16   2 -20   -4.87    7.92
  16  -2  20   -5.44   10.00
  16  -2  20    3.77   15.88
  16  -3  20   -7.03   17.47
  17   0  20   18.83   18.37
 -17   1 -20    9.81    8.09
 -17   1 -20   -1.53   11.55
  17  -1  20   12.23   16.63
 -17   2 -20   -1.57   12.23
 -17   2 -20   11.93   10.27
  17  -2  20   28.82   19.38
  17  -2  20   16.91   13.89
  17  -3  20  -15.30   21.63
  17  -3  20  -21.34   13.31
 -18   2 -20    9.67   10.23
 -18   3 -20  -13.29   10.83
   0   1 -21    3.78    5.57
  -1   1 -21   -3.49    4.61
   1   1 -21    1.53    5.74
   2   1 -21   12.38    6.45
  -1   2 -21    7.35    5.09
   1  -2  21   -4.19    7.60
  -2  -1  21    3.77    7.46
   0   2 -21   -1.35    8.17
   0   2 -21   -6.55    5.22
   0  -2  21   -0.42    7.21
  -2   1 -21    7.65    4.62
   1   2 -21    6.05    8.42
   1   2 -21   -1.40    5.21
  -1  -2  21   -5.45    6.82
   2   2 -21    4.73    8.57
   2   2 -21    4.47    5.66
  -2   2 -21   -1.15    4.73
  -2  -2  21   -4.31    7.23
  -2   3 -21   22.71    8.86
   3   2 -21    1.06    6.32
  -2   3 -21    3.68    5.10
   3   2 -21   13.06    9.34
   2  -3  21   -7.78    7.05
  -3  -2  21   11.56    8.26
   3   1 -21   -8.67    6.49
  -1   3 -21    1.94    4.72
  -1   3 -21   -1.22    8.75
  -3  -1  21   12.85    7.84
   1  -3  21    0.38    7.77
   0   3 -21   11.03    9.81
   0   3 -21   16.44    6.83
   0  -3  21    1.54    8.82
   1   3 -21    9.99    7.74
  -3   1 -21    9.65    4.61
   1   3 -21    1.30    5.10
  -1  -3  21   -7.55    7.68
   2   3 -21   15.18    5.87
  -3   2 -21    2.14    5.35
   2   3 -21    5.13    8.63
  -2  -3  21    7.84    8.39
  -3   3 -21  -11.38    8.08
   3   3 -21   -6.33    5.50
   3   3 -21   -3.30    8.39
  -3   3 -21   -2.77    4.68
  -3  -3  21   -1.72    8.23
   3  -3  21   -2.24    7.18
  -3   4 -21   12.18   11.46
  -3   4 -21   17.76    8.89
   4   3 -21    6.81   11.89
  -4  -3  21    6.31   11.48
   3  -4  21   17.01   10.06
  -2   4 -21    1.84    5.20
   4   2 -21   17.58    9.31
   4   2 -21   31.46    6.78
  -2   4 -21   -8.98    8.74
  -4  -2  21   11.07    8.80
   2  -4  21   -2.74    7.77
   4   1 -21   24.76    9.55
  -1   4 -21   19.44   11.21
  -1   4 -21   14.32    8.49
  -4  -1  21   12.16   10.48
   1  -4  21   16.73   10.29
   0   4 -21   -1.22    4.79
   0   4 -21   -2.94    7.89
   0  -4  21   -7.08    7.28
   1   4 -21   12.79    8.43
   1   4 -21   30.86   11.43
  -4   1 -21    4.78    8.29
  -1  -4  21   22.64   11.03
  -4   2 -21   -0.33    4.52
   2   4 -21    1.35    5.35
   2   4 -21   -0.63    8.95
  -2  -4  21   18.40    8.68
   3   4 -21    7.78   11.56
  -3  -4  21    9.85   11.33
   5   4 -21    0.53    5.92
  -3   5 -21    5.85    5.27
  -3   5 -21    8.85    8.38
   3  -5  21    1.59    7.22
   3  -5  21    7.32    4.72
  -2   5 -21   14.55    9.61
  -2   5 -21    4.61    7.21
   2  -5  21   15.08    9.01
   2  -5  21   10.36    6.50
   5   1 -21    0.77    8.78
  -1   5 -21    3.36    8.30
  -1   5 -21    2.78    4.90
   1  -5  21   -1.41    7.38
   1  -5  21   15.45    4.94
   0   5 -21   17.42    9.07
   0   5 -21   17.95   11.99
   0  -5  21   16.28   11.40
   1   5 -21    2.60    5.27
   1   5 -21   -0.60    8.86
  -1  -5  21  -21.73    8.81
   2   5 -21   16.87   11.41
   2   5 -21   15.85    8.31
  -2  -5  21   20.32   11.22
   3   5 -21   15.59    9.82
  -3  -5  21   -0.43    9.34
   5   5 -21   28.13   18.06
  -5  -5  21   63.11   18.28
   6   5 -21    2.77    6.79
   6   5 -21    3.67   10.74
  -6  -5  21  -17.20   10.82
  -6  -5  21   -6.45    7.19
   6   4 -21   15.26   15.44
  -6  -4  21  -10.38   15.93
  -3   6 -21    8.15    5.87
  -3   6 -21    9.24    8.95
  -2   6 -21    0.54    8.68
  -2   6 -21   18.76    5.86
   2  -6  21    6.38    5.04
   2  -6  21   -2.65    8.20
  -1   6 -21    1.69    8.81
  -1   6 -21    6.82    5.39
   1  -6  21    6.43    4.83
   1  -6  21    6.65    8.16
   0   6 -21   -1.77    5.12
   0   6 -21    0.59    9.24
   0  -6  21    2.21    8.25
   0  -6  21   -3.67    4.93
   1   6 -21    4.15    5.49
   1   6 -21  -11.58    9.33
  -1  -6  21   -2.92    5.03
  -1  -6  21    2.70    8.39
   2   6 -21   19.62   10.08
  -2  -6  21    1.21    9.76
   4   6 -21   17.81   16.87
   4   6 -21   79.38   20.21
  -4  -6  21    9.82   16.13
  -4  -6  21   71.72   19.64
   5   6 -21   -0.55    7.44
   5   6 -21    6.43   11.11
  -5  -6  21    2.44    6.85
   6   6 -21   -5.23   11.12
   6   6 -21   -1.74    7.15
  -6  -6  21   -4.85   10.85
  -6  -6  21   -9.05    7.19
   7   6 -21  -34.49   12.69
  -7  -6  21  -23.52   12.74
   7   5 -21  -18.36   10.77
  -7  -5  21   17.60   11.07
   7   4 -21    5.30   10.17
   7   4 -21  -10.60    7.25
  -7  -4  21  -11.44   10.88
   7   3 -21  -28.28    9.04
   7   3 -21  -12.92   11.75
  -7  -3  21   15.59   11.73
  -2   7 -21    9.96    9.16
   7   2 -21   -9.26    9.48
  -2   7 -21   17.91    5.65
   7   2 -21    0.66    7.95
   2  -7  21   -5.06    8.04
  -7  -2  21   -2.11    9.45
   2  -7  21   -0.41    4.46
  -1   7 -21   -3.84    6.07
   7   1 -21   24.23    9.87
  -1   7 -21    3.33    8.72
   7   1 -21    7.46    8.70
   1  -7  21   -7.95    5.38
   1  -7  21    9.88    8.21
   0   7 -21   -2.88    8.60
   0   7 -21   -0.50    5.72
   0  -7  21   -1.47    7.86
   0  -7  21    2.35    4.79
   1   7 -21    7.17    9.37
  -1  -7  21   -2.29    8.56
   3   7 -21   57.93   25.47
  -3  -7  21   91.45   25.32
   4   7 -21   14.59    8.51
   4   7 -21   -0.67   10.76
  -4  -7  21    6.51    6.37
  -4  -7  21   15.12   11.46
   5   7 -21    6.32   11.65
  -5  -7  21    0.63    7.35
   6   7 -21    4.47    8.55
   6   7 -21   -6.63   11.88
  -6  -7  21  -13.39   11.72
  -6  -7  21   -3.31    7.16
   7   7 -21  -29.51   14.42
  -7  -7  21  -10.66   13.88
   8   7 -21   12.08    8.05
   8   7 -21   10.25   12.05
  -8  -7  21    1.49    7.55
  -8  -7  21  -17.86   11.16
   8   6 -21   -5.18    7.62
   8   6 -21    0.82   12.02
  -8  -6  21   -0.73    8.16
  -8  -6  21   12.44   10.97
   8   5 -21    2.53    7.43
   8   5 -21  -21.63   11.15
  -8  -5  21    0.73    7.47
  -8  -5  21  -10.37   11.29
   8   4 -21  -10.62    7.61
   8   4 -21   -0.79   10.95
  -8  -4  21   -5.48   11.21
   8   3 -21    0.79   10.93
   8   3 -21   -7.83    7.78
  -8  -3  21    9.29   10.30
   8   2 -21   12.61   11.53
  -2   8 -21   10.92   14.41
  -2   8 -21   25.34   11.08
   8   2 -21   18.40   14.48
   2  -8  21   31.32   13.72
  -8  -2  21    7.18   13.94
   2  -8  21   13.90    9.17
  -1   8 -21   28.59    8.08
   8   1 -21   -0.83   11.86
   8   1 -21   15.78   10.48
  -1   8 -21   12.45   11.21
  -8  -1  21   14.14   11.12
   1  -8  21   19.48   10.41
   1  -8  21   -8.10    7.08
   2   8 -21    9.32   15.31
   2   8 -21   51.30   17.44
  -2  -8  21   58.78   17.26
   3   8 -21   -4.83    6.65
   3   8 -21   -7.16    9.80
  -3  -8  21   -0.59    5.95
  -3  -8  21    3.26    9.25
   4   8 -21    2.72    9.57
   4   8 -21   -5.02    8.15
  -4  -8  21   -3.14    6.13
  -4  -8  21    6.40    9.67
   5   8 -21   11.77    7.72
   5   8 -21   27.92   10.50
  -5  -8  21  -13.47    9.86
  -5  -8  21   -5.30    6.25
   6   8 -21    7.56   11.01
   6   8 -21    3.41    7.83
  -6  -8  21    0.48   10.31
  -6  -8  21   -5.60    7.19
   7   8 -21   -9.61   11.10
  -7  -8  21   10.11   10.71
   8   8 -21    0.85   12.97
   8   8 -21    0.75    9.51
  -8  -8  21    7.87    8.86
  -8  -8  21   26.43   12.49
   9   8 -21    8.71    9.56
   9   8 -21  -35.52   14.37
  -9  -8  21  -13.94   13.16
  -9  -8  21  -15.90    9.39
   9   7 -21    6.01    8.23
   9   7 -21    9.04   12.67
  -9  -7  21   -6.34    7.69
  -9  -7  21   -5.21   11.93
   9   6 -21   17.36   14.07
   9   6 -21    6.87    8.76
  -9  -6  21    2.33    8.89
  -9  -6  21   19.50   12.85
   9   5 -21  -11.74   11.85
   9   5 -21   -0.67    8.00
  -9  -5  21  -12.71   12.57
  -9  -5  21   10.79    7.95
   9   4 -21  -18.60    8.19
   9   4 -21    6.60   11.11
  -9  -4  21   -1.73   11.51
   9   3 -21    8.99    8.25
   9   3 -21   13.98   10.75
  -9  -3  21  -13.78   10.57
  -2   9 -21   -5.52    9.48
   9   2 -21    6.67    8.48
   9   2 -21  -29.04   10.81
  -9  -2  21    7.53   10.44
   2  -9  21    9.93    8.11
   2  -9  21    9.50    4.29
   9   1 -21  -15.57    9.94
   9   1 -21   26.68   11.11
  -9  -1  21    7.12   10.39
   0   9 -21   -4.30    6.72
   0  -9  21   -2.21    5.30
   1   9 -21   10.89    9.18
   1   9 -21    7.00    7.26
  -1  -9  21   -1.74    6.08
  -1  -9  21   11.98    9.26
   2   9 -21    0.59    8.74
   2   9 -21    2.63    7.71
  -2  -9  21   -5.43    9.00
  -2  -9  21   -3.67    6.00
   3   9 -21    3.72    9.02
   3   9 -21   -8.18    8.04
  -3  -9  21   -3.86    6.08
  -3  -9  21    8.49    9.05
   4   9 -21   20.86    9.91
   4   9 -21   -9.17    8.22
  -4  -9  21   -0.68    6.94
  -4  -9  21   -5.08    9.71
   5   9 -21    0.73    8.43
   5   9 -21    6.53   10.77
  -5  -9  21    6.42    6.94
  -5  -9  21   -6.26   10.05
   6   9 -21    3.82    9.25
   6   9 -21    0.77   12.04
  -6  -9  21    4.52    8.08
  -6  -9  21   14.24   10.92
   7   9 -21    3.31   11.72
  -7  -9  21    1.01   10.71
   8   9 -21   29.33   13.60
   8   9 -21   -1.67    9.54
  -8  -9  21   -0.84    8.18
  -8  -9  21   -5.46   12.62
   9   9 -21  -37.32   13.93
   9   9 -21   -0.88    9.79
  -9  -9  21   12.40   12.35
  -9  -9  21   12.54    8.56
  10   9 -21    8.24   15.13
  10   9 -21   -3.70   10.94
 -10  -9  21    1.28   13.78
 -10  -9  21   16.24    9.31
  10   8 -21  -17.50   15.09
  10   8 -21    5.02   10.50
 -10  -8  21   10.74   10.09
 -10  -8  21   -4.38   14.46
  10   7 -21   21.99   14.18
  10   7 -21   -0.80    9.36
 -10  -7  21  -12.40   12.83
 -10  -7  21   -1.69    8.45
  10   6 -21  -13.89    9.46
  10   6 -21   -6.40   13.37
 -10  -6  21   -1.65    8.65
 -10  -6  21  -21.33   14.06
  10   5 -21   -4.29    8.33
  10   5 -21  -33.61   13.05
 -10  -5  21    0.82    8.00
 -10  -5  21   11.62   12.06
  10   4 -21   11.31    9.05
  10   4 -21   49.10   12.83
 -10  -4  21  -24.32   12.05
  10   3 -21    1.46    9.33
  10   3 -21   21.39   12.73
 -10  -3  21   19.92   12.39
  10   2 -21    2.58   11.14
  10   2 -21   12.54    9.49
 -10  -2  21    2.43   10.61
  -1  10 -21   58.56   15.21
  -1  10 -21    8.58   13.42
  10   1 -21   -3.45   14.47
   1 -10  21   70.74   14.27
   1 -10  21   -4.74   11.79
 -10  -1  21   36.75   16.67
   0  10 -21   11.61    7.91
   0  10 -21   -8.29    9.31
   0 -10  21   -3.71    6.79
   0 -10  21   22.21    8.72
   1  10 -21    4.92   10.18
   1  10 -21    5.71   11.68
  -1 -10  21    0.65    8.56
  -1 -10  21    3.33   11.04
   2  10 -21    4.35    7.23
   2  10 -21    2.98    8.99
  -2 -10  21    8.12    6.29
  -2 -10  21   -1.92    8.68
   3  10 -21    5.99    7.89
   3  10 -21   -0.63    9.30
  -3 -10  21    4.00    9.13
  -3 -10  21   -2.13    7.23
   4  10 -21   -0.77    8.02
   4  10 -21   -3.30   10.02
  -4 -10  21   19.22    9.89
  -4 -10  21    7.45    7.55
   5  10 -21   -0.80    8.73
   5  10 -21    7.03   10.04
  -5 -10  21   14.88    8.12
  -5 -10  21    7.24    9.92
   6  10 -21    4.17    9.16
   6  10 -21   -3.77   10.54
  -6 -10  21    5.30   10.70
  -6 -10  21   -1.65    8.19
   7  10 -21   17.06   11.67
   7  10 -21   24.30   10.17
  -7 -10  21  -19.11   11.75
  -7 -10  21   -1.74    8.34
   8  10 -21  -34.25   14.59
  -8 -10  21  -36.22   12.72
   9  10 -21   -0.95    9.46
   9  10 -21   12.07   14.62
  -9 -10  21   -6.83   10.18
  -9 -10  21    1.81   12.51
  10  10 -21   21.96   10.74
  10  10 -21  -12.04   15.82
 -10 -10  21  -17.79   14.35
 -10 -10  21    3.11    9.58
  11  10 -21  -19.05   19.45
  11  10 -21    1.05   12.59
 -11 -10  21  -36.02   18.38
 -11 -10  21  -18.74   12.63
  11   9 -21   -3.90   11.81
  11   9 -21  -15.53   17.36
 -11  -9  21    1.02    9.90
 -11  -9  21   -4.17   15.42
  11   8 -21  -21.61   16.70
  11   8 -21   15.92   10.57
 -11  -8  21   14.90   14.63
 -11  -8  21   -0.95   10.13
  11   7 -21   25.31    9.91
  11   7 -21  -11.16   15.33
 -11  -7  21  -12.67    9.32
 -11  -7  21   -7.95   14.28
  11   6 -21    5.77   13.56
  11   6 -21    8.56    9.06
 -11  -6  21   -2.63   14.20
 -11  -6  21   -6.14    9.05
  11   5 -21   15.22    9.40
  11   5 -21  -20.33   14.12
 -11  -5  21    3.89   14.17
 -11  -5  21    6.12    8.63
  11   4 -21    0.90   12.82
  11   4 -21   -6.78    9.68
 -11  -4  21  -15.08    8.81
 -11  -4  21   -9.59   13.07
  11   3 -21   -6.20   11.68
  11   3 -21   20.15    9.59
 -11  -3  21  -13.98   12.80
  11   2 -21   -7.45   11.53
  11   2 -21   11.61   12.60
 -11  -2  21   19.78   13.26
  -1  11 -21   -3.25    8.65
  11   1 -21   -8.13   10.79
   1 -11  21    4.58    8.07
 -11  -1  21  -12.43   10.99
   1 -11  21    1.34    5.53
   0  11 -21   34.03   16.36
   0  11 -21   29.70   17.79
   0 -11  21   48.92   17.05
   0 -11  21    1.39   14.15
  11   0  21   38.47   19.18
   1  11 -21   10.14    8.27
   1  11 -21   -2.91    8.83
  -1 -11  21   -2.18    6.82
  -1 -11  21    9.37    8.72
   2  11 -21   10.46    9.97
   2  11 -21   23.74   11.02
  -2 -11  21    8.97   10.13
  -2 -11  21    6.83    8.28
   3  11 -21   -0.64   10.48
   3  11 -21   -0.83    9.66
  -3 -11  21   29.43   10.29
  -3 -11  21   16.65    8.40
   4  11 -21   -0.68   10.31
   4  11 -21   -4.29    9.21
  -4 -11  21   -4.15    7.89
  -4 -11  21  -22.44    9.84
   5  11 -21   -7.25   10.16
   5  11 -21  -15.97    8.78
  -5 -11  21    1.74    7.63
  -5 -11  21    1.83    9.81
   6  11 -21    4.60   10.01
   6  11 -21   21.82   11.56
  -6 -11  21   15.20   10.94
  -6 -11  21  -13.72    8.13
   7  11 -21    7.62   11.80
   7  11 -21    5.73    9.84
  -7 -11  21   -4.22   11.28
  -7 -11  21   -3.85    8.74
   8  11 -21   10.13   14.01
  -8 -11  21   16.22   13.45
   9  11 -21   -5.05   15.08
   9  11 -21  -11.44   11.15
  -9 -11  21  -20.14   13.92
  -9 -11  21  -10.74    9.91
  10  11 -21    2.21   17.80
  10  11 -21    1.09   12.22
 -10 -11  21  -22.80   10.90
 -10 -11  21  -26.16   17.41
  11  11 -21   17.88   18.74
  11  11 -21    5.72   12.23
 -11 -11  21   -7.27   11.93
 -11 -11  21    9.06   16.34
  12  11 -21  -27.66   14.23
  12  11 -21   -9.80   20.67
 -12 -11  21  -19.09   19.79
 -12 -11  21   -3.86   13.35
  12  10 -21   -2.58   18.64
  12  10 -21  -13.30   11.81
 -12 -10  21    1.18   10.75
 -12 -10  21   18.11   16.87
  12   9 -21  -39.37   21.98
  12   9 -21  -58.81   15.81
 -12  -9  21   -9.80   13.27
 -12  -9  21  -61.15   20.19
  12   8 -21  -13.60   12.99
  12   8 -21  -56.32   20.28
 -12  -8  21  -44.66   18.54
 -12  -8  21  -21.41   12.95
  12   7 -21  -18.24   15.74
  12   7 -21   -0.89   10.53
 -12  -7  21   -0.71   15.70
 -12  -7  21    0.97   10.14
  12   6 -21    0.87    9.99
  12   6 -21   23.20   14.54
 -12  -6  21    0.94    9.57
 -12  -6  21  -11.87   14.90
  12   5 -21   -8.69   12.70
  12   5 -21   23.54    9.57
 -12  -5  21  -16.48   13.18
 -12  -5  21   -4.66    9.36
  12   4 -21   -2.81   12.84
  12   4 -21    4.87    9.65
 -12  -4  21   -0.94    9.60
 -12  -4  21    2.02   13.30
  12   3 -21   -5.75    9.96
  12   3 -21  -11.93   12.30
 -12  -3  21   -1.34   13.27
  12   2 -21   16.52   11.10
  12   2 -21   -2.78   12.91
 -12  -2  21    9.36   13.37
  12   1 -21   16.07   13.20
  -1  12 -21    8.55    9.53
 -12  -1  21    4.12   15.30
   1 -12  21    5.47    9.61
   0  12 -21    5.55    8.83
   0 -12  21  -20.72    8.59
  12   0  21   10.21    9.30
   1  12 -21   17.98   10.06
  -1 -12  21    8.16    8.26
  -1 -12  21    6.65    9.88
   2  12 -21    0.64    9.57
  -2 -12  21   -2.54    7.66
  -2 -12  21    8.97    9.22
   3  12 -21    5.40   10.02
  -3 -12  21   -3.85    9.05
  -3 -12  21  -10.62    8.19
   4  12 -21    6.46   10.17
   4  12 -21    0.95    9.32
  -4 -12  21   -1.35    9.63
  -4 -12  21   -9.25    8.52
   5  12 -21   -8.80    9.83
   5  12 -21   21.48   11.43
  -5 -12  21   -0.97    9.02
  -5 -12  21   -2.40   10.13
   6  12 -21   -1.01   10.52
   6  12 -21  -12.38   12.38
  -6 -12  21   -9.14    9.54
  -6 -12  21  -11.30   10.79
   7  12 -21   -8.40   11.04
   7  12 -21  -12.50   13.18
  -7 -12  21   12.81    9.26
  -7 -12  21    2.78   11.85
   8  12 -21   47.74   16.89
  -8 -12  21  -21.69   15.18
   9  12 -21   -1.07   18.83
   9  12 -21   -1.14   14.37
  -9 -12  21  -19.05   16.93
  -9 -12  21  -21.36   13.52
  10  12 -21  -14.28   13.41
  10  12 -21  -18.93   18.64
 -10 -12  21  -10.95   16.16
 -10 -12  21   -1.26   11.63
  11  12 -21   -3.74   14.89
  11  12 -21  -26.14   19.50
 -11 -12  21  -18.44   18.47
  13  10 -21   -1.17   12.17
  13  10 -21  -29.31   21.53
 -13 -10  21   17.24   19.88
 -13 -10  21    6.30   11.90
  13   9 -21  -21.80   12.60
  13   9 -21  -11.48   18.93
 -13  -9  21   -3.29   19.27
 -13  -9  21   -5.81   11.38
  13   8 -21    3.08   11.69
  13   8 -21   -2.44   17.28
 -13  -8  21  -14.99   16.99
 -13  -8  21   -1.09    9.94
 -13  -7  21 1000.00  231.90
 -13  -7  21   50.79  189.69
  13   6 -21    5.32   15.46
  13   6 -21  -10.13   11.69
 -13  -6  21    1.00   10.23
 -13  -6  21  -27.46   16.18
  13   5 -21  -12.07   13.69
  13   5 -21  -13.80   10.89
 -13  -5  21   -7.95    9.73
 -13  -5  21   31.86   15.23
  13   4 -21   12.05   10.91
  13   4 -21    0.97   13.44
 -13  -4  21   -3.00   11.31
 -13  -4  21   14.14   14.49
  13   3 -21   23.43   11.08
  13   3 -21  -21.87   14.26
 -13  -3  21  -28.03   15.24
  13   2 -21   -4.55   11.39
  13   2 -21   12.45   12.66
 -13  -2  21  -11.19   12.81
  13   1 -21  -13.81   13.30
  13   0  21   -8.27   10.23
  13  -1  21    3.94   11.32
  14   9 -21   17.25   14.70
  14   9 -21   45.26   23.80
 -14  -9  21   27.38   14.54
 -14  -9  21   -6.26   21.39
  14   8 -21  -27.16   12.10
  14   8 -21  -18.09   19.23
 -14  -8  21    1.69   19.38
 -14  -8  21    1.17   11.58
  14   7 -21   -7.02   11.20
  14   7 -21   10.67   16.82
 -14  -7  21  -19.59   17.84
 -14  -7  21   -5.55   10.97
  14   6 -21    2.21   16.26
  14   6 -21    9.74   11.64
 -14  -6  21    7.87   16.31
 -14  -6  21    2.14   10.67
  14   5 -21   35.67   13.35
  14   5 -21  -54.35   18.94
 -14  -5  21  -39.52   19.72
 -14  -5  21  -11.57   12.43
  14   4 -21   -0.91   11.72
  14   4 -21  -28.16   15.76
 -14  -4  21   -2.12   12.09
 -14  -4  21  -23.68   16.68
  14   3 -21   16.69   13.46
  14   3 -21   -5.56   11.18
 -14  -3  21   -3.66   13.92
 -14  -3  21   -3.26   11.83
  14   2 -21   -3.81   12.25
  14   2 -21    0.98   12.16
 -14  -2  21   16.83   13.52
  14   1 -21    1.02   12.66
  14   0  21  -18.79   13.67
  14  -1  21   14.43   13.53
  15   8 -21    4.07   19.53
  15   8 -21  -13.74   13.04
 -15  -8  21    7.46   12.14
 -15  -8  21   12.63   20.04
  15   7 -21   -5.28   12.09
  15   7 -21   53.21   18.80
 -15  -7  21   -5.20   19.08
 -15  -7  21    2.36   11.92
  15   6 -21   -1.03   12.08
  15   6 -21   22.97   16.59
 -15  -6  21    4.98   17.34
 -15  -6  21   -7.98   11.36
  15   5 -21    6.49   15.64
  15   5 -21   27.24   12.02
 -15  -5  21  -47.74   17.72
 -15  -5  21   -6.68   11.05
  15   4 -21   24.95   13.48
  15   4 -21  -11.34   17.33
 -15  -4  21   27.06   17.91
 -15  -4  21   26.94   13.70
  15   3 -21    4.04   12.94
  15   3 -21  -10.69   12.34
 -15  -3  21   -1.14   12.28
 -15  -3  21   -3.04   13.79
  15   2 -21    1.98   12.56
 -15  -2  21    6.88   14.64
  15   1 -21    1.05   12.84
  15   0  21  -26.90   17.74
  15  -1  21   -6.32   13.42
  16   7 -21    7.73   19.25
  16   7 -21   -1.15   13.56
 -16  -7  21    3.76   12.95
 -16  -7  21   32.10   20.51
 -16  -6  21   22.55   21.18
 -16  -6  21   15.71   14.51
  16  -1  21   25.96   20.16
 -17   1 -21   -6.11   11.35
  17  -1  21   -8.51   16.41
  17  -2  21  -39.32   25.93
   0   1 -22   -6.42    6.16
   1   1 -22    1.07    5.99
  -1   1 -22    1.37    5.15
  -1   2 -22    3.44    5.02
   2   1 -22   15.81    6.37
   1  -2  22  -12.68    7.93
   0   2 -22   -3.21    5.64
   0  -2  22   17.47    8.11
  -2   1 -22   -2.10    4.76
   1   2 -22    7.85    5.53
   1   2 -22   -2.91    9.29
  -1  -2  22   -7.21    7.55
  -2   2 -22   11.62    5.77
   2   2 -22    5.77    6.66
   2   2 -22   -9.52   10.53
  -2  -2  22   13.33    8.94
  -2   3 -22    5.06    4.69
   3   2 -22    1.49    9.21
  -2   3 -22    2.01    8.45
  -3  -2  22   -7.59    8.80
   2  -3  22   -2.79    7.07
  -1   3 -22   -4.64    9.30
  -1   3 -22   15.66    6.01
   1  -3  22    5.66    8.00
   0   3 -22    0.67    8.76
   0   3 -22   -6.11    5.14
   0  -3  22    5.80    7.81
   1   3 -22    6.07    9.74
  -3   1 -22    2.70    5.59
   1   3 -22   12.01    6.23
  -1  -3  22   11.11    8.90
   2   3 -22   12.42    9.09
  -3   2 -22    0.37    4.69
   2   3 -22    0.49    5.58
  -2  -3  22   -0.89    8.10
  -3   3 -22    1.47    4.61
   3   3 -22   -5.68    9.21
  -3  -3  22   -4.15    8.80
   3  -3  22    2.84    7.91
  -3   4 -22   -1.81    7.92
  -3   4 -22    4.47    4.67
   3  -4  22  -19.50    6.80
  -2   4 -22   15.71    7.56
  -2   4 -22   10.93   10.75
   2  -4  22    6.28    9.19
  -1   4 -22   -2.06    4.93
  -1   4 -22   -1.86    8.69
   1  -4  22    4.60    7.81
   0   4 -22   20.99    9.81
   0   4 -22    6.93    6.31
   0  -4  22    1.60    8.91
   1   4 -22    5.01    5.40
   1   4 -22   11.13    8.72
  -1  -4  22   -5.85    8.04
   2   4 -22   12.16   11.65
  -2  -4  22   21.00   11.18
   4   4 -22   14.92    9.01
   5   4 -22   -5.07    6.80
   5   4 -22  -10.52   10.06
  -5  -4  22   -0.50   10.27
  -3   5 -22   -9.05   11.08
   5   3 -22   47.83   11.50
   5   3 -22    3.50    8.56
  -3   5 -22    1.95    7.91
   5   2 -22    5.63    7.50
  -2   5 -22    2.33    8.81
  -2   5 -22    2.84    4.94
   2  -5  22    1.80    7.39
   2  -5  22   -4.29    4.88
  -1   5 -22   -0.85    5.88
   5   1 -22    1.40    7.99
  -1   5 -22   -9.05    9.33
   1  -5  22    5.31    8.47
   0   5 -22    1.88    8.70
   0   5 -22   -1.33    5.19
   0  -5  22    4.78    8.09
   1   5 -22   11.06   11.84
   1   5 -22   30.48    8.61
  -1  -5  22   15.85   11.12
   4   5 -22    0.72   10.88
   4   5 -22    3.19    6.50
  -4  -5  22   -7.16    9.65
   5   5 -22    4.49    7.59
   5   5 -22   19.55   11.79
  -5  -5  22    1.00   10.67
   6   5 -22    8.90    7.34
   6   5 -22    0.78   10.97
  -6  -5  22   10.50   10.80
  -6  -5  22   -4.83    7.80
   6   4 -22   24.20   13.14
   6   4 -22    6.56    9.05
  -6  -4  22   13.20   12.84
   6   3 -22   14.16   12.35
  -6  -3  22   11.07   11.64
  -2   6 -22    0.43    5.03
  -2   6 -22   -6.94    8.55
   6   2 -22   10.42    9.93
   2  -6  22   -2.87    7.63
   2  -6  22   -2.56    4.75
  -6  -2  22   -7.49    9.84
  -1   6 -22    5.44    5.26
  -1   6 -22    4.24    9.18
  -6  -1  22    0.55    8.75
   1  -6  22  -10.62    8.76
   1  -6  22    3.67    4.86
   0   6 -22    1.26   10.06
   0   6 -22   19.35    5.93
   0  -6  22   -9.07    8.97
   0  -6  22    3.44    5.34
   3   6 -22    0.53    8.92
   3   6 -22   14.09   11.96
  -3  -6  22   52.14   12.00
  -3  -6  22   -0.58    8.37
   4   6 -22   20.51   13.89
   4   6 -22    0.56    9.58
  -4  -6  22   52.14   13.81
  -4  -6  22    4.94    9.01
   5   6 -22   16.80   11.65
   5   6 -22   -2.34    7.46
  -5  -6  22    0.65    6.91
  -5  -6  22   11.80   11.70
   6   6 -22    8.78   11.18
   6   6 -22   -3.70    7.24
  -6  -6  22   -0.69    7.18
  -6  -6  22  -12.91   11.41
   7   6 -22    9.19   12.95
  -7  -6  22   15.78   12.13
   7   5 -22   20.45   12.52
  -7  -5  22    0.55   12.14
   7   4 -22  -10.57   11.13
  -7  -4  22   -1.66   10.65
   7   3 -22    7.93    8.04
   7   3 -22   -5.71   10.49
  -7  -3  22   11.06   10.24
  -2   7 -22   20.41   10.03
   7   2 -22  -19.81   10.90
   7   2 -22    1.66   13.32
  -2   7 -22   -3.54   13.42
   2  -7  22   11.94   12.59
   2  -7  22   37.60    8.63
  -7  -2  22   18.46   12.92
  -1   7 -22   40.04   15.21
   7   1 -22  -12.69   12.95
  -1   7 -22   27.47   10.79
   1  -7  22    0.47    9.15
  -7  -1  22   -5.77   13.08
   1  -7  22   65.94   14.12
   2   7 -22   48.17   16.51
   2   7 -22    5.45   13.39
  -2  -7  22   90.06   16.36
  -2  -7  22    5.64   12.54
   3   7 -22  -10.00   10.34
   3   7 -22   -5.66    6.94
  -3  -7  22   -8.94    5.97
  -3  -7  22   -8.47   10.15
   4   7 -22    1.18    8.06
   4   7 -22    8.17   10.83
  -4  -7  22  -10.24   11.24
  -4  -7  22    3.15    6.19
   5   7 -22   82.69   15.03
   5   7 -22  -33.37   16.00
  -5  -7  22    9.97    9.32
   6   7 -22   -9.76   11.36
   6   7 -22   -5.83    7.71
  -6  -7  22  -33.90   12.48
  -6  -7  22   -2.11    7.17
   7   7 -22   -6.84   12.10
  -7  -7  22    3.26   11.42
   8   7 -22   15.33   13.14
   8   7 -22   -7.54    8.75
  -8  -7  22    1.58    8.42
  -8  -7  22   30.61   12.85
   8   6 -22   -9.69    8.26
   8   6 -22   38.62   13.13
  -8  -6  22  -17.10    8.85
  -8  -6  22   19.55   11.91
   8   5 -22   -4.74    8.54
   8   5 -22    6.02   12.05
  -8  -5  22    2.33   11.51
  -8  -5  22   -6.22    8.12
   8   4 -22   -7.40    8.06
   8   4 -22   -8.48   10.45
  -8  -4  22   17.48   11.46
   8   3 -22   -2.81    8.76
   8   3 -22   -2.54   11.34
  -8  -3  22   15.10   10.83
   8   2 -22   -6.01    9.21
  -2   8 -22    9.90    9.80
   8   2 -22   -9.44   11.83
  -2   8 -22   22.20    6.13
  -8  -2  22    5.28   10.49
   2  -8  22    7.48    5.20
   2  -8  22    1.46    9.11
   8   1 -22    5.05    9.76
  -8  -1  22   -1.21    9.55
   0   8 -22    1.71    6.82
   1   8 -22   -4.52    9.48
   1   8 -22   14.77    6.57
  -1  -8  22    6.92    9.17
  -1  -8  22  -10.11    5.98
   2   8 -22   -3.06    7.26
   2   8 -22   -3.34   10.31
  -2  -8  22    8.32    6.36
  -2  -8  22    8.85    9.84
   3   8 -22    1.91    7.25
   3   8 -22    7.63   10.88
  -3  -8  22    5.69   10.05
  -3  -8  22    2.51    6.32
   4   8 -22   13.22    8.43
   4   8 -22    1.45   10.46
  -4  -8  22   -4.63    6.53
  -4  -8  22    6.39   10.68
   5   8 -22    2.07    8.48
   5   8 -22   21.24   12.14
  -5  -8  22    5.58    7.24
  -5  -8  22   11.01   11.04
   6   8 -22   -8.00   11.21
   6   8 -22   -1.44    8.51
  -6  -8  22   -1.48    7.02
  -6  -8  22  -21.31   11.17
   7   8 -22   -6.77   12.36
  -7  -8  22    3.13    7.85
  -7  -8  22   -5.38   11.23
   8   8 -22   20.68   19.09
   8   8 -22   32.56   15.33
  -8  -8  22    1.66   13.86
  -8  -8  22   51.14   18.83
   9   8 -22   -4.19    9.28
   9   8 -22  -16.26   14.34
  -9  -8  22   -9.24   12.83
  -9  -8  22    6.18    8.38
   9   7 -22  -11.19   11.00
   9   7 -22  -45.86   16.67
  -9  -7  22  -34.40   15.52
  -9  -7  22   -3.37    9.85
   9   6 -22    2.21    8.42
   9   6 -22  -12.00   13.30
  -9  -6  22  -12.96   12.60
  -9  -6  22   -1.66    8.64
   9   5 -22   28.15    9.50
   9   5 -22   11.70   12.86
  -9  -5  22    6.16   12.66
  -9  -5  22   -0.83    9.32
   9   4 -22    3.54   12.61
   9   4 -22    1.43    8.71
  -9  -4  22    4.29   12.02
   9   3 -22   13.43    9.05
   9   3 -22   -0.88   11.12
  -9  -3  22  -11.61   11.61
   9   2 -22   11.16    9.60
   9   2 -22  -11.56   11.48
  -9  -2  22  -11.67   11.30
   9   1 -22  -11.39   10.43
  -1   9 -22   -1.23    6.97
   1  -9  22    5.97    5.42
  -9  -1  22   19.56   10.63
   0   9 -22    2.56    7.04
   0   9 -22  -10.06    9.63
   0  -9  22   -5.15    5.90
   0  -9  22   -1.17    8.75
   1   9 -22    1.33    7.42
   1   9 -22   -5.18    9.66
  -1  -9  22   17.30    9.43
  -1  -9  22    0.60    6.76
   2   9 -22   14.45    8.43
   2   9 -22   -8.05   10.66
  -2  -9  22   14.98   10.16
  -2  -9  22   18.50    7.38
   3   9 -22   11.17   11.37
   3   9 -22   14.95    8.78
  -3  -9  22    7.79   10.22
  -3  -9  22    7.40    7.52
   4   9 -22   11.81    9.31
   4   9 -22   19.03   11.58
  -4  -9  22   19.91   11.00
  -4  -9  22  -10.64    8.05
   5   9 -22   -6.91    8.44
   5   9 -22   -8.49   11.48
  -5  -9  22   -1.90   10.82
  -5  -9  22    8.97    7.62
   6   9 -22   -7.37   11.70
   6   9 -22   15.20    8.78
  -6  -9  22   19.70   11.42
  -6  -9  22  -11.04    7.91
   7   9 -22   -0.87   13.27
   7   9 -22    6.69   10.36
  -7  -9  22  -22.08   13.43
  -7  -9  22   -0.83    9.10
   8   9 -22   10.26   14.14
  -8  -9  22   23.09   13.07
   9   9 -22   -1.85   10.97
   9   9 -22   41.07   15.15
  -9  -9  22    1.88    9.74
  -9  -9  22   -4.35   13.29
  10   9 -22   28.04   15.93
  10   9 -22  -14.62   11.73
 -10  -9  22   -6.06   14.61
 -10  -9  22   -4.01   10.33
  10   8 -22   20.20   15.69
  10   8 -22    0.89    9.72
 -10  -8  22  -27.91   14.74
 -10  -8  22   -0.94    9.25
  10   7 -22   13.57    9.14
  10   7 -22  -13.16   15.19
 -10  -7  22  -10.48   13.80
 -10  -7  22    0.90    8.98
  10   6 -22  -15.67    9.23
  10   6 -22    3.88   13.82
 -10  -6  22   -7.07    8.83
 -10  -6  22   -0.66   13.77
  10   5 -22    7.54   16.32
  10   5 -22    5.39   12.89
 -10  -5  22   48.23   17.13
 -10  -5  22    9.67   12.03
  10   4 -22   -0.92   12.32
  10   4 -22    7.64    9.22
 -10  -4  22   -7.09   12.46
  10   3 -22   12.67    9.17
  10   3 -22    9.12   11.34
 -10  -3  22  -37.27   12.55
  10   2 -22  -17.53   12.49
  10   2 -22  -14.38    9.97
 -10  -2  22   20.62   11.92
  -1  10 -22   -6.12    7.44
  -1  10 -22   -6.37    9.24
  10   1 -22   -3.70   10.65
 -10  -1  22   -7.94   10.82
   1 -10  22   -0.60    6.22
   1 -10  22    1.89    8.84
   0  10 -22   -7.75    9.95
   0  10 -22   20.36    8.10
   0 -10  22    8.16    9.10
   0 -10  22    1.27    6.53
   1  10 -22   15.37    9.30
   1  10 -22   -6.54    7.75
  -1 -10  22   -0.66    6.10
  -1 -10  22  -13.20    8.94
   2  10 -22   -7.66    9.50
   2  10 -22   -1.50    8.00
  -2 -10  22   -8.69    9.16
  -2 -10  22   -3.49    6.38
   3  10 -22   -2.00   10.02
   3  10 -22   19.43    8.66
  -3 -10  22    7.34    7.29
  -3 -10  22   -2.16    9.48
   4  10 -22    4.92   10.26
   4  10 -22   -7.25    8.50
  -4 -10  22    2.32    6.72
  -4 -10  22    0.45    9.84
   5  10 -22  -17.16   14.90
   5  10 -22   32.56   13.51
  -5 -10  22   63.94   15.06
  -5 -10  22   12.18   12.49
   6  10 -22    7.54   12.16
   6  10 -22    0.87    9.03
  -6 -10  22    2.03   10.66
  -6 -10  22   -6.85    8.53
   7  10 -22    5.40   12.93
   7  10 -22    0.90    9.60
  -7 -10  22    1.09   11.48
  -7 -10  22   -0.90    8.55
   8  10 -22    4.86   13.59
  -8 -10  22    1.17   12.90
   9  10 -22  -14.90   10.13
   9  10 -22  -24.22   15.73
  -9 -10  22  -15.26   13.45
  -9 -10  22   17.28    9.59
  10  10 -22   40.78   32.25
  10  10 -22   85.64   39.61
 -10 -10  22   76.14   36.67
 -10 -10  22   75.74   31.42
  11  10 -22    3.31   11.71
  11  10 -22  -44.60   19.66
 -11 -10  22    1.15   10.99
 -11 -10  22  -14.33   16.86
  11   9 -22  122.52   29.78
  11   9 -22   81.22   37.30
 -11  -9  22  -14.99   27.07
  11   8 -22   47.58   17.45
  11   8 -22  -14.09   11.00
 -11  -8  22  -15.78   16.27
 -11  -8  22   -5.05    9.96
  11   7 -22   -3.61   10.09
  11   7 -22   15.03   14.90
 -11  -7  22    1.40   15.45
 -11  -7  22    1.92    9.94
  11   6 -22   -5.10   15.41
  11   6 -22   24.21    9.86
 -11  -6  22  -33.47   15.17
 -11  -6  22    9.38    9.66
  11   5 -22   -2.46    9.68
  11   5 -22   14.78   12.87
 -11  -5  22   -2.81    9.34
 -11  -5  22  -13.79   14.73
  11   4 -22    8.96    9.84
  11   4 -22   20.22   12.94
 -11  -4  22  -16.98   13.04
 -11  -4  22   -7.62    9.70
  11   3 -22    0.84   10.31
  11   3 -22  -25.57   12.69
 -11  -3  22   -2.70   13.13
  11   2 -22    3.58   11.07
  11   2 -22    4.79   12.64
 -11  -2  22  -10.81   13.35
  11   1 -22   10.72   12.36
  -1  11 -22    9.74    8.55
  -1  11 -22   20.26   10.34
   1 -11  22    0.75    9.56
   1 -11  22   -5.42    6.46
 -11  -1  22    9.72   12.73
   0  11 -22  -13.08    9.69
   0  11 -22    3.10    7.83
   0 -11  22   -2.31    8.68
   0 -11  22    7.07    6.83
   1  11 -22   35.75   11.26
   1  11 -22   -2.41   10.08
  -1 -11  22   -2.22    8.23
  -1 -11  22   19.10   10.44
   2  11 -22    5.81    8.68
   2  11 -22   -2.58    9.91
  -2 -11  22    8.54    7.03
  -2 -11  22   -1.24    9.08
   3  11 -22   15.57   10.12
   3  11 -22    4.29    8.72
  -3 -11  22  -15.09    9.48
  -3 -11  22   -9.76    7.45
   4  11 -22   12.17   10.26
   4  11 -22   -7.10    9.19
  -4 -11  22   -7.68    7.65
  -4 -11  22   18.16    9.97
   5  11 -22   20.11    9.08
   5  11 -22   16.81   11.39
  -5 -11  22   -9.76   10.22
  -5 -11  22   -9.87    7.83
   6  11 -22   -4.11   11.93
   6  11 -22   -1.90    9.46
  -6 -11  22   -1.89    8.92
  -6 -11  22   -9.89   11.08
   7  11 -22    8.88   10.33
   7  11 -22   -0.89   12.89
  -7 -11  22   -3.91   11.87
  -7 -11  22  -10.94    8.81
   8  11 -22  -11.58   14.38
  -8 -11  22   16.32   13.56
   9  11 -22   23.27   31.43
   9  11 -22    9.75   25.00
  -9 -11  22   14.47   23.65
  -9 -11  22   73.65   28.46
  10  11 -22    2.27   11.92
  10  11 -22  -35.16   18.68
 -10 -11  22    8.27   11.37
 -10 -11  22   47.40   16.76
  11  11 -22   -5.98   12.85
  11  11 -22   10.63   20.67
 -11 -11  22    1.26   11.66
 -11 -11  22   11.04   17.00
  12  10 -22   -8.15   12.47
  12  10 -22   12.11   20.69
 -12 -10  22   11.07   11.48
 -12 -10  22  -28.06   18.42
  12   9 -22    6.54   12.11
  12   9 -22   35.07   19.39
 -12  -9  22  -15.12   17.81
 -12  -9  22   11.45   10.94
  12   8 -22  -73.68   21.82
 -12  -8  22  -29.15   18.32
  12   7 -22  -85.21   23.33
  12   7 -22  -13.40   13.55
 -12  -7  22  -41.23   15.01
  12   6 -22  -18.36   15.54
  12   6 -22    0.93   10.68
 -12  -6  22   -2.97   14.55
 -12  -6  22  -15.02   10.72
  12   5 -22    4.38   10.57
  12   5 -22   13.40   13.56
 -12  -5  22    8.00   10.19
 -12  -5  22   -2.91   15.26
  12   4 -22    3.01   13.26
  12   4 -22    0.88   10.82
 -12  -4  22    8.57   14.54
 -12  -4  22    5.07   10.38
  12   3 -22  -33.42   14.14
  12   3 -22   -1.78   11.01
 -12  -3  22  -14.89   14.98
  12   2 -22  -26.44   12.64
  12   2 -22   -4.95   13.57
 -12  -2  22  -12.74   14.13
  -1  12 -22    4.11    9.11
  12   1 -22    4.09   15.10
   1 -12  22    0.38    8.83
   0  12 -22   15.81   10.63
   0 -12  22   11.38   10.10
   0 -12  22    2.37    7.93
   1  12 -22   -2.53    9.81
  -1 -12  22   -9.89    6.81
  -1 -12  22    9.35    9.22
   2  12 -22   -4.64   10.27
  -2 -12  22    5.08    9.40
  -2 -12  22    6.90    7.56
   3  12 -22   -4.89   10.85
   3  12 -22   -0.94   10.42
  -3 -12  22   -8.13    8.83
  -3 -12  22    2.67   10.32
   4  12 -22   -6.82   10.42
   4  12 -22   22.98   11.14
  -4 -12  22    6.10   10.30
  -4 -12  22   -0.95    9.04
   5  12 -22   -2.38   11.72
   5  12 -22    1.01   11.06
  -5 -12  22  -30.47   11.09
  -5 -12  22    5.95    9.08
   6  12 -22   -9.40   10.80
   6  12 -22   32.50   13.02
  -6 -12  22  -10.43   10.19
  -6 -12  22   29.96   12.39
   7  12 -22   -1.09   13.91
   7  12 -22   -0.93   16.29
  -7 -12  22   -8.78   12.41
  -7 -12  22  -35.71   16.57
   8  12 -22    1.02   23.23
  -8 -12  22  -62.06   21.68
   9  12 -22  -12.28   16.95
   9  12 -22  -29.50   12.54
  -9 -12  22   -6.21   14.79
  -9 -12  22   11.01   10.90
  10  12 -22  -14.82   13.45
  10  12 -22    2.46   19.49
 -10 -12  22   24.95   16.85
 -10 -12  22    1.30   12.16
 -13 -10  22  -30.72   25.39
  13   9 -22  -31.97   19.75
  13   9 -22  -20.78   13.10
 -13  -9  22    9.81   12.06
 -13  -9  22   30.35   19.06
  13   8 -22   17.52   13.52
  13   8 -22   16.73   18.86
 -13  -8  22   12.70   11.73
 -13  -8  22   -4.98   19.55
  13   7 -22    7.18   17.33
  13   7 -22  -19.30   12.38
 -13  -7  22  -13.26   11.50
 -13  -7  22   -0.81   17.02
  13   6 -22   21.47   22.06
 -13  -6  22    1.07   13.23
  13   5 -22  -27.99   17.96
  13   5 -22   -1.87   12.49
 -13  -5  22  -13.88   12.34
  13   4 -22    1.04   15.59
  13   4 -22   13.09   11.81
 -13  -4  22    9.70   12.14
 -13  -4  22    3.75   16.12
  13   3 -22  -28.51   13.95
  13   3 -22   23.63   11.70
 -13  -3  22   -5.94   13.60
  13   2 -22    5.96   12.66
  13   2 -22   -4.09   12.80
 -13  -2  22  -24.50   13.04
  13   1 -22    2.14   15.76
  -1  13 -22   21.93   12.67
   0  13 -22   -7.62   10.08
   0 -13  22    6.15    9.33
   1  13 -22   13.95   12.13
  -1 -13  22   10.66   11.17
   2  13 -22   -4.20   10.98
  -2 -13  22   -1.78   10.27
   3  13 -22    5.93   10.95
  -3 -13  22   -7.03   10.51
   4  13 -22   25.24   13.54
  -4 -13  22   12.87   12.77
   5  13 -22  -21.13   14.23
  -5 -13  22  -24.22   12.06
   6  13 -22  -13.66   14.22
  -6 -13  22  -20.36   14.59
  -6 -13  22  -17.34   12.93
   7  13 -22    3.95   14.28
  -7 -13  22  -12.15   11.39
  -7 -13  22   -0.61   13.37
   8  13 -22   -5.40   16.48
  -8 -13  22  -16.64   12.69
  -8 -13  22    3.99   15.23
   9  13 -22    1.19   17.52
  -9 -13  22  -39.22   16.82
  14   9 -22    1.48   22.22
 -14  -9  22  -27.18   20.74
  14   8 -22  -13.92   13.35
  14   8 -22   25.90   21.43
 -14  -8  22   -1.24   12.91
 -14  -8  22   47.20   20.51
  14   7 -22   25.17   18.10
  14   7 -22   -5.38   12.45
 -14  -7  22   -4.72   11.32
 -14  -7  22   -6.05   18.00
  14   6 -22   -3.15   12.75
  14   6 -22   -1.18   16.68
 -14  -6  22   15.86   17.75
 -14  -6  22    3.43   11.47
  14   5 -22  -29.08   16.83
  14   5 -22  -13.89   12.55
 -14  -5  22  -17.74   17.51
 -14  -5  22   15.85   11.73
  14   4 -22    5.95   12.29
  14   4 -22  -10.72   15.87
 -14  -4  22   14.87   12.19
 -14  -4  22   26.74   16.38
  14   3 -22    1.05   15.16
  14   3 -22   -1.00   11.76
 -14  -3  22    1.17   12.42
 -14  -3  22   12.39   14.48
  14   2 -22   -1.04   13.63
 -14  -2  22   24.10   15.65
  14   1 -22  -32.35   16.91
  15   7 -22   -5.29   18.88
  15   7 -22   -4.55   12.71
 -15  -7  22   14.72   19.18
 -15  -7  22   -2.53   12.82
  15   6 -22    6.66   13.91
  15   6 -22  -58.92   20.37
 -15  -6  22   13.17   20.28
 -15  -6  22  -28.15   13.63
  15   5 -22   -1.16   16.95
  15   5 -22    1.10   13.03
 -15  -5  22   -7.59   18.32
 -15  -5  22    4.81   11.94
  15   4 -22  -18.86   11.66
  15   4 -22  -17.67   14.54
 -15  -4  22   20.61   12.57
 -15  -4  22   12.32   16.15
  15   3 -22   31.91   13.26
  15   3 -22  -16.24   14.42
 -15  -3  22  -41.79   15.41
 -15  -3  22   -6.18   12.45
  15   2 -22   -8.71   15.23
 -15  -2  22  -37.30   19.07
  15   1 -22    5.77   14.17
  16   6 -22   -2.33   14.04
  16   6 -22  -12.70   18.42
 -16  -6  22  -26.69   20.12
 -16  -5  22   23.73   18.30
 -16  -5  22   -1.27   13.87
  -1   2 -23    2.69    5.95
   0   2 -23   -0.48    5.83
   0  -2  23    4.82    7.83
   1   2 -23   18.57    6.91
  -1  -2  23   -1.94    8.49
   2   2 -23   -7.88   10.04
  -2   2 -23    0.42    5.20
  -2   3 -23    6.52    9.29
  -2   3 -23   -1.23    5.48
   2  -3  23   -1.72    8.20
  -1   3 -23    2.61    5.13
  -1   3 -23   -1.44    9.34
   1  -3  23    2.60    7.72
   0   3 -23    0.72    9.94
   0   3 -23    3.69    5.61
   0  -3  23    6.65    8.24
   1   3 -23   -1.46    9.60
   1   3 -23   -0.49    4.82
  -1  -3  23  -16.47    9.02
  -3   2 -23  -13.28    5.19
   3   3 -23    2.20    6.14
  -3   3 -23    5.81    5.13
   4   3 -23   -3.51    6.85
  -3   4 -23    0.79    5.10
   4   3 -23  -18.08   10.18
  -4  -3  23   -2.57    9.18
   4   2 -23   58.84   13.01
  -2   4 -23    9.59    9.43
   4   2 -23  -14.52   10.01
  -2   4 -23    3.29   12.78
   2  -4  23    8.75   10.95
  -1   4 -23   -2.68    9.77
  -1   4 -23    1.31    5.64
   1  -4  23   10.28    8.56
   0   4 -23   -9.64    9.40
   0   4 -23    9.21    5.57
   0  -4  23   -5.13    8.47
   1   4 -23    8.49   10.34
  -1  -4  23   15.64    9.94
   3   4 -23   -0.75    7.56
   3   4 -23  -15.06    6.65
   4   4 -23    9.10    8.40
   4   4 -23    7.79   12.20
  -4  -4  23   14.32   11.56
   5   4 -23    1.20    7.00
   5   4 -23   -5.65   11.55
  -5  -4  23   -6.96    9.92
   5   3 -23    3.74    7.80
   5   3 -23   11.37   11.18
  -5  -3  23    5.38    9.94
   5   2 -23    1.67   10.24
  -2   5 -23   -4.31    5.25
  -2   5 -23  -11.36    9.57
   5   2 -23    2.65    8.04
   2  -5  23   -5.39    7.86
   2  -5  23    1.85    5.17
  -5  -2  23    0.55    9.81
   5   1 -23    0.74    7.79
  -1   5 -23    3.16    5.25
  -1   5 -23    1.96    9.30
   1  -5  23   -8.51    7.96
   0   5 -23   -1.35    9.64
   0  -5  23   -2.56    8.88
   2   5 -23    8.76    6.68
   3   5 -23    5.40    7.24
   3   5 -23    1.50   11.40
  -3  -5  23    9.79   10.64
   4   5 -23    5.45   11.02
   4   5 -23    6.82    7.21
  -4  -5  23    2.05   10.37
   5   5 -23   39.67   17.27
   5   5 -23   19.80   12.50
  -5  -5  23   17.69   16.13
   6   5 -23  -16.86   11.81
   6   5 -23   -8.25    7.78
  -6  -5  23   11.25   11.40
   6   4 -23   12.14    8.02
   6   4 -23  -19.28   12.00
  -6  -4  23   12.90   11.03
   6   3 -23   -1.99    7.79
   6   3 -23   13.45   11.35
  -6  -3  23   -5.63   10.06
  -2   6 -23   -3.69    6.50
   6   2 -23    1.72   11.13
  -2   6 -23   -5.62   10.89
   2  -6  23   -7.77    5.76
   2  -6  23  -12.71    9.65
  -6  -2  23  -12.50   11.21
  -1   6 -23   -1.95   14.36
  -1   6 -23   28.92   10.91
   1  -6  23   54.12   10.41
   1  -6  23   22.75   13.74
  -6  -1  23    4.14   13.23
   1   6 -23    3.13    8.77
  -1  -6  23    1.12    8.03
   2   6 -23   -5.44    7.40
   2   6 -23   -1.45   11.34
  -2  -6  23   -6.51    6.64
  -2  -6  23  -40.62   11.84
   3   6 -23    2.27    6.66
   3   6 -23   -5.28   10.95
  -3  -6  23    8.28   10.51
  -3  -6  23   -1.25    6.11
   4   6 -23    5.35    7.13
   4   6 -23    0.78   11.23
  -4  -6  23   -5.09   10.73
  -4  -6  23   11.87    6.88
   5   6 -23  -16.31   11.71
   5   6 -23   13.12    8.24
  -5  -6  23   28.73   11.88
  -5  -6  23    2.09    7.28
   6   6 -23   -9.36   12.08
   6   6 -23    0.66    8.06
  -6  -6  23   40.73   12.45
  -6  -6  23   -8.11    7.44
   7   6 -23  -44.46   13.01
  -7  -6  23   -4.70   12.18
   7   5 -23   -0.88   12.24
  -7  -5  23   -4.14   11.40
   7   4 -23    8.72   11.78
  -7  -4  23    7.65   11.44
   7   3 -23   10.45   11.27
  -7  -3  23    0.59   10.68
  -2   7 -23   -8.20   10.21
  -2   7 -23   28.32    6.73
   7   2 -23  -17.36    9.66
   7   2 -23  -13.35   12.04
  -7  -2  23    5.34   10.98
   2  -7  23   23.63    6.11
   2  -7  23    8.46   10.06
   7   1 -23    3.36   10.73
  -7  -1  23   23.37   11.05
   0   7 -23    1.68    6.79
   1   7 -23   10.57    6.44
   1   7 -23  -19.84   10.80
  -1  -7  23  -10.65    9.81
  -1  -7  23    1.13    5.65
   2   7 -23   15.58    7.62
   2   7 -23   -2.20   10.97
  -2  -7  23    3.23   10.58
  -2  -7  23    3.00    6.40
   3   7 -23    7.20    7.34
   3   7 -23    0.76   10.61
  -3  -7  23  -10.09   10.17
  -3  -7  23    5.71    6.21
   4   7 -23    8.14    7.59
   4   7 -23   -3.16   11.16
  -4  -7  23   -4.02    6.46
  -4  -7  23    0.50   11.09
   5   7 -23   -4.95   11.66
   5   7 -23    9.82    8.04
  -5  -7  23  -14.64   12.02
  -5  -7  23    2.12    6.81
   6   7 -23   -2.59   12.28
   6   7 -23    0.69    8.31
  -6  -7  23    5.99    7.37
  -6  -7  23    8.79   12.02
   7   7 -23    0.91   14.00
   7   7 -23   29.74    9.64
  -7  -7  23   -1.59    8.92
  -7  -7  23    8.68   13.00
   8   7 -23  -23.00   15.85
   8   7 -23    2.41   10.87
  -8  -7  23  -47.74   15.52
   8   6 -23    0.93   13.48
   8   6 -23   11.83    9.12
  -8  -6  23    2.48   12.75
  -8  -6  23    0.83    8.90
   8   5 -23    0.92   12.67
   8   5 -23  -10.91    8.40
  -8  -5  23    0.83    8.46
  -8  -5  23   -4.36   11.96
   8   4 -23   -0.91   11.60
   8   4 -23    7.23    8.45
  -8  -4  23   -3.72   11.30
   8   3 -23   -0.90   11.52
   8   3 -23    7.54    9.16
  -8  -3  23   -0.62   11.41
   8   2 -23  -15.65   12.40
   8   2 -23    6.43    8.94
  -8  -2  23  -15.55   11.47
  -1   8 -23   -5.75    6.20
   8   1 -23  -23.27    9.70
   1  -8  23    0.52    5.36
  -8  -1  23   -0.64    9.95
   0   8 -23    7.34   10.03
   0   8 -23    1.80    7.07
   0  -8  23   -3.91    5.13
   0  -8  23    4.67    9.75
   1   8 -23    9.34    7.43
   1   8 -23   -3.45   10.32
  -1  -8  23    2.19    9.84
  -1  -8  23   -2.37    5.96
   2   8 -23    0.71   10.10
   2   8 -23    1.29    7.41
  -2  -8  23    2.51    6.19
  -2  -8  23    3.18   10.16
   3   8 -23    4.70    7.90
   3   8 -23   29.54   11.20
  -3  -8  23    1.99    6.59
  -3  -8  23  -17.42   10.38
   4   8 -23   -8.46   11.03
   4   8 -23  -14.65    7.96
  -4  -8  23    8.38    7.14
  -4  -8  23   -6.86   11.28
   5   8 -23    0.73    8.29
   5   8 -23  -23.34   11.48
  -5  -8  23    0.74    7.55
  -5  -8  23    9.75   11.24
   6   8 -23    3.81    9.16
   6   8 -23  -16.92   12.66
  -6  -8  23   -4.68    7.61
  -6  -8  23  -37.90   13.15
   7   8 -23    7.99   10.90
   7   8 -23   -0.93   14.59
  -7  -8  23  -21.25   14.47
  -7  -8  23   -3.31    9.46
   8   8 -23    2.96   14.42
  -8  -8  23   10.42   13.43
   9   8 -23    3.56   10.94
   9   8 -23   27.27   15.32
  -9  -8  23    0.94    9.75
  -9  -8  23    5.25   14.32
   9   7 -23  -16.18    9.87
   9   7 -23   -6.08   14.74
  -9  -7  23    7.17    8.41
  -9  -7  23  -20.81   14.19
   9   6 -23   -8.65   10.13
   9   6 -23   -0.98   14.80
  -9  -6  23  -27.57   14.66
  -9  -6  23  -12.37    9.97
   9   5 -23   11.53   13.39
   9   5 -23   -3.87    9.70
  -9  -5  23   -3.28   13.65
  -9  -5  23    8.84    8.69
   9   4 -23   17.07   12.91
   9   4 -23    4.63    9.75
  -9  -4  23    5.21   13.27
   9   3 -23    6.57   12.10
   9   3 -23  -12.04    9.04
  -9  -3  23   -2.60   11.95
   9   2 -23    4.77   11.91
   9   2 -23    3.42    9.72
  -9  -2  23  -11.06   11.19
  -1   9 -23    1.31   10.10
  -1   9 -23    6.43    7.21
   9   1 -23  -10.29   11.43
   1  -9  23   -0.56    5.51
  -9  -1  23    1.34   10.04
   1  -9  23   -7.33    9.52
   0   9 -23    5.36    7.57
   0   9 -23    2.02   10.66
   0  -9  23    2.39    6.04
   0  -9  23    1.26    9.50
   1   9 -23   -7.62   10.64
   1   9 -23  -14.60    8.40
  -1  -9  23   18.21    9.75
  -1  -9  23   -6.32    6.89
   2   9 -23    3.60    8.01
   2   9 -23    1.43   10.48
  -2  -9  23    4.68    6.51
  -2  -9  23    2.24    9.95
   3   9 -23    0.72    8.29
   3   9 -23   14.15   11.49
  -3  -9  23  -21.80   10.16
  -3  -9  23   13.42    7.13
   4   9 -23   17.11   12.07
   4   9 -23    0.75    8.91
  -4  -9  23    7.26   11.06
  -4  -9  23    5.22    7.85
   5   9 -23  -17.97   12.34
   5   9 -23    2.33    9.10
  -5  -9  23  -16.50    8.71
  -5  -9  23   -5.59   11.51
   6   9 -23    2.59   13.03
   6   9 -23   -8.92   10.07
  -6  -9  23  -27.38   12.77
  -6  -9  23   -3.32    8.67
   7   9 -23   14.69   13.28
   7   9 -23   -9.34    9.60
  -7  -9  23   -8.02   12.13
  -7  -9  23   13.17    8.68
   8   9 -23   21.59   14.87
  -8  -9  23  -10.40   12.95
   9   9 -23   11.69   12.86
   9   9 -23   24.19   16.62
  -9  -9  23   30.28   15.85
  -9  -9  23   -4.95   11.73
  10   9 -23  -22.65   14.53
  10   9 -23  -32.74   19.05
 -10  -9  23   24.26   13.30
 -10  -9  23  -60.56   19.22
  10   8 -23   -6.60   10.52
  10   8 -23    2.24   16.76
 -10  -8  23    5.00    9.83
 -10  -8  23    3.52   14.90
  10   7 -23  -16.31   10.70
  10   7 -23   32.20   15.46
 -10  -7  23    6.69    9.38
 -10  -7  23    2.77   14.78
  10   6 -23    6.72   10.82
  10   6 -23   12.38   16.12
 -10  -6  23    2.83   10.92
 -10  -6  23   22.29   15.79
  10   5 -23  -10.78   10.46
  10   5 -23   21.13   13.82
 -10  -5  23    2.77   13.72
 -10  -5  23    3.77    9.38
  10   4 -23   -1.65   10.37
  10   4 -23    3.96   12.68
 -10  -4  23  -11.64   13.12
  10   3 -23   -4.88   12.69
  10   3 -23   15.38   10.43
 -10  -3  23    3.41   13.48
  10   2 -23   -4.94   12.88
  10   2 -23  -15.48   11.28
 -10  -2  23  -23.89   11.64
  -1  10 -23   -4.59   10.36
  -1  10 -23    2.80    7.82
  10   1 -23  -28.75   12.10
   1 -10  23   -4.96    6.52
   1 -10  23   -4.87    9.62
   0  10 -23    0.67   10.84
   0  10 -23   16.04    7.92
   0 -10  23   -0.65    6.57
   0 -10  23    2.50    9.71
   1  10 -23   -4.86   10.70
   1  10 -23    0.76    7.98
  -1 -10  23    3.44    6.63
  -1 -10  23  -12.00    9.60
   2  10 -23    9.34   11.05
   2  10 -23    9.39    8.47
  -2 -10  23   -3.10    9.85
  -2 -10  23  -15.24    6.77
   3  10 -23   14.59   10.37
   3  10 -23    9.75   12.43
  -3 -10  23   -0.76    8.70
  -3 -10  23   22.54   11.63
   4  10 -23  -14.96   11.31
   4  10 -23   10.92    9.19
  -4 -10  23    0.80    7.90
  -4 -10  23   -6.74   10.88
   5  10 -23    4.16   11.83
   5  10 -23  -13.08    9.74
  -5 -10  23  -14.71   11.35
  -5 -10  23   -2.54    7.98
   6  10 -23   19.95   11.91
   6  10 -23   53.12   15.06
  -6 -10  23    0.89   10.08
  -6 -10  23   -1.08   13.16
   7  10 -23    2.84   13.72
   7  10 -23    4.73   10.67
  -7 -10  23  -11.33    8.50
  -7 -10  23    6.91   12.47
   8  10 -23  -11.22   15.17
  -8 -10  23   21.69   13.65
   9  10 -23   18.76   13.18
   9  10 -23   -5.50   17.91
  -9 -10  23  -36.80   17.23
  -9 -10  23  -22.34   12.24
  10  10 -23  -10.99   11.56
  10  10 -23   13.10   17.34
 -10 -10  23   13.85   16.19
 -10 -10  23  -21.52   10.55
  11  10 -23   10.35   20.29
  11  10 -23    1.16   12.37
 -11 -10  23   -1.21   11.86
 -11 -10  23   18.23   17.34
  11   9 -23  -40.47   20.09
  11   9 -23    6.55   13.22
 -11  -9  23  -24.81   11.39
 -11  -9  23  -24.76   17.69
  11   8 -23  434.80  176.04
  11   8 -23  191.01  155.04
 -11  -8  23  878.65  173.65
 -11  -8  23  207.11  151.46
  11   7 -23    9.65   11.29
  11   7 -23   23.85   16.39
 -11  -7  23    0.75   16.72
 -11  -7  23    9.22   11.12
  11   6 -23   -2.69   11.15
  11   6 -23    1.09   15.16
 -11  -6  23    2.01   10.23
 -11  -6  23  -46.73   15.02
  11   5 -23   38.99   15.03
  11   5 -23    7.97   11.43
 -11  -5  23    1.00   10.33
 -11  -5  23  -13.89   14.44
  11   4 -23   -7.21   13.70
  11   4 -23    3.52   10.35
 -11  -4  23  -10.08   13.96
 -11  -4  23    1.02   10.51
  11   3 -23  -29.43   13.65
  11   3 -23   -2.73   10.44
 -11  -3  23   -5.74   13.52
  11   2 -23    9.20   12.11
  11   2 -23   -5.80   11.87
 -11  -2  23   -2.15   13.13
  -1  11 -23   -8.47    7.42
  -1  11 -23   12.45    9.62
  11   1 -23    2.10   12.54
   1 -11  23   -0.69    6.71
   0  11 -23    0.64    9.99
   0  11 -23   -0.80    8.64
   0 -11  23    5.05    6.66
   0 -11  23    0.42    9.51
   1  11 -23    0.83    8.83
   1  11 -23    3.97   10.38
  -1 -11  23   -5.32    7.28
  -1 -11  23   -6.86    9.67
   2  11 -23    6.88    9.17
   2  11 -23  -16.51   11.11
  -2 -11  23   -5.59    7.40
  -2 -11  23    0.89    9.85
   3  11 -23   -1.77    9.37
   3  11 -23   10.07   10.86
  -3 -11  23   -3.36    7.69
  -3 -11  23   12.03   10.67
   4  11 -23   -2.28   11.80
   4  11 -23   12.84    9.44
  -4 -11  23  -13.59   10.42
  -4 -11  23  -13.25    8.08
   5  11 -23   -0.81   11.99
   5  11 -23   11.40   10.83
  -5 -11  23    5.64   11.51
  -5 -11  23    3.72    8.76
   6  11 -23    7.28   13.80
   6  11 -23    8.88   10.72
  -6 -11  23  -17.63   10.19
  -6 -11  23  -21.32   11.93
   7  11 -23   -1.96   14.90
   7  11 -23  -22.61   10.44
  -7 -11  23    6.20    9.70
  -7 -11  23   14.09   12.90
   8  11 -23  134.12  115.86
  -8 -11  23  105.83  103.50
   9  11 -23    9.01   12.11
   9  11 -23    5.79   17.08
  -9 -11  23    3.48   11.41
  -9 -11  23   12.39   15.83
  10  11 -23  -10.12   19.79
  10  11 -23    8.29   12.48
 -10 -11  23  -28.60   17.26
 -10 -11  23    3.70   10.87
 -11 -11  23   28.84   23.41
  12  10 -23    8.41   19.67
 -12 -10  23  -12.15   20.36
  12   9 -23   -4.63   12.54
  12   9 -23   -4.07   20.10
 -12  -9  23   -4.83   11.09
 -12  -9  23   -2.53   18.55
  12   8 -23   -2.55   17.61
  12   8 -23   -6.37   13.40
 -12  -8  23   -4.59   12.19
 -12  -8  23   -0.81   17.69
 -12  -7  23  -25.26   12.88
  12   6 -23  -52.65   15.42
  12   5 -23   -2.84   11.28
  12   5 -23  -25.37   14.94
 -12  -5  23   -0.77   15.12
 -12  -5  23   -7.51   10.98
  12   4 -23  -17.13   10.88
  12   4 -23  -11.79   14.79
 -12  -4  23    5.45   11.21
 -12  -4  23   -3.03   15.27
  12   3 -23   11.58   13.15
  12   3 -23    0.97   10.95
 -12  -3  23  -10.52   13.14
  12   2 -23    6.34   13.34
  12   2 -23    3.07   13.19
 -12  -2  23   18.80   13.68
  12   1 -23   11.05   15.31
  -1  12 -23   18.06   12.36
   0  12 -23   10.28   10.48
   0 -12  23   -4.00    6.98
   0 -12  23    5.82    9.76
   1  12 -23   16.02   12.32
  -1 -12  23    9.25    9.32
  -1 -12  23   12.89   11.51
   2  12 -23   12.55   10.60
   2  12 -23    4.70    9.41
  -2 -12  23   -4.41    7.58
  -2 -12  23  -16.96   10.24
   3  12 -23    3.90    9.34
   3  12 -23   -5.14   10.87
  -3 -12  23   -0.47   10.30
  -3 -12  23    2.78    8.26
   4  12 -23  -23.17   11.46
   4  12 -23    2.34   11.89
  -4 -12  23   -4.92   10.76
  -4 -12  23    1.95    8.77
   5  12 -23    3.34   12.85
   5  12 -23   -8.35   11.14
  -5 -12  23    8.46   11.37
  -5 -12  23    1.02    9.56
   6  12 -23    2.16   14.01
   6  12 -23  -17.96   16.08
  -6 -12  23  -30.13   13.86
   7  12 -23    1.13   12.24
   7  12 -23    0.97   15.31
  -7 -12  23  -26.09   11.58
  -7 -12  23   -0.61   14.15
   8  12 -23  -17.61   12.54
   8  12 -23   17.00   15.96
  -8 -12  23   23.06   15.52
  -8 -12  23    7.19   10.80
   9  12 -23  -12.23   19.91
  -9 -12  23    7.19   16.14
  13   9 -23   -1.23   11.19
  13   9 -23  -27.73   21.41
 -13  -9  23  -20.04   21.29
  13   8 -23    9.03   12.91
 -13  -8  23  -14.74   11.72
 -13  -8  23   11.52   19.94
  13   7 -23   15.24   19.13
  13   7 -23   -8.74   13.96
 -13  -7  23   48.04   18.86
 -13  -7  23  -17.68   11.97
  13   6 -23   -3.61   16.71
  13   6 -23   -8.55   12.71
 -13  -6  23   17.21   11.83
 -13  -6  23  -15.88   16.85
  13   5 -23    1.01   12.55
  13   5 -23  -25.33   16.30
 -13  -5  23  -27.64   16.74
 -13  -5  23    6.88   11.64
  13   4 -23    5.08   30.83
  13   4 -23   85.34   39.88
 -13  -4  23   10.43   29.75
 -13  -4  23   88.43   42.15
  13   3 -23   -4.36   16.52
  13   3 -23  -32.89   13.41
 -13  -3  23    6.29   16.22
  13   2 -23  -14.03   12.46
 -13  -2  23    6.31   13.72
  13   1 -23   -1.16   14.56
   0  13 -23   21.80   11.57
   0 -13  23    0.43   10.86
   1  13 -23  -10.34   11.58
  -1 -13  23   16.82   10.43
   2  13 -23    5.07   11.53
  -2 -13  23   -3.24   10.37
   3  13 -23   -6.88   13.23
  -3 -13  23  -33.51   12.73
   4  13 -23   94.39   46.47
  -4 -13  23  148.43   44.60
  -4 -13  23   68.91   42.67
   5  13 -23   25.29   13.12
  -5 -13  23  -18.62   12.46
  -5 -13  23  -13.52   11.28
   6  13 -23   -0.94   14.28
  -6 -13  23   -8.80   13.12
  -6 -13  23   -7.11   10.86
   7  13 -23   21.59   16.29
  -7 -13  23   17.09   15.13
  -7 -13  23    3.75   12.03
   8  13 -23    1.13   17.65
  -8 -13  23    3.49   15.71
  -8 -13  23    1.32    9.97
  14   8 -23  -20.14   24.87
 -14  -8  23  -43.79   24.36
  14   7 -23   -6.96   13.40
  14   7 -23   -6.72   19.62
 -14  -7  23   -6.32   12.50
 -14  -7  23    4.58   18.73
  14   6 -23   -7.56   17.47
  14   6 -23   -1.14   12.96
 -14  -6  23    1.23   12.17
 -14  -6  23   22.09   18.20
  14   5 -23   -5.99   17.89
  14   5 -23    3.23   13.39
 -14  -5  23   14.52   18.25
 -14  -5  23   15.85   12.74
  14   4 -23   29.84   16.41
  14   4 -23  -10.80   13.19
 -14  -4  23   27.12   13.41
 -14  -4  23   -7.51   18.14
  14   3 -23   17.42   13.31
  14   3 -23  -15.79   15.24
 -14  -3  23  -37.70   15.27
 -14  -3  23    7.58   12.97
  14   2 -23    3.40   14.44
 -14  -2  23    8.25   14.94
  14   1 -23    9.71   15.28
  15   6 -23   -1.21   14.53
  15   6 -23  -19.69   20.06
 -15  -6  23   20.43   19.78
 -15  -6  23   -3.94   13.34
  15   5 -23   29.75   16.97
  15   5 -23   -4.78   13.62
 -15  -5  23  -11.66   12.75
 -15  -5  23  -17.90   17.17
  15   4 -23   -4.58   12.97
  15   4 -23  -24.86   15.72
 -15  -4  23   20.90   16.61
 -15  -4  23  -18.32   13.94
  15   3 -23  -39.58   15.29
  15   3 -23    8.11   14.76
 -15  -3  23   10.24   15.54
 -15  -3  23   10.68   13.53
  15   2 -23   -4.77   14.78
  16   5 -23   30.51   19.58
 -16  -5  23    7.48   20.31
 -16  -4  23   14.44   17.91
 -16  -4  23    1.38   14.26
  -1   2 -24    1.40    5.50
   2   2 -24   -4.63    6.64
  -2   2 -24   -7.40    5.77
   3   2 -24   -6.01   11.22
  -2   3 -24   -3.44    5.33
   3   2 -24    2.48    7.14
   2  -3  24    6.50    8.24
  -3  -2  24   10.84    8.91
  -1   3 -24   -1.55    9.75
  -1   3 -24   -6.39    5.68
   1  -3  24   -1.39    8.16
   0   3 -24   -2.34   11.27
   0  -3  24   17.50   10.14
   2   3 -24   -6.02    6.44
  -3   2 -24   -4.87    5.17
   3   3 -24    6.99    7.76
   3   3 -24   18.92   11.42
  -3  -3  24   -0.53   10.19
   4   3 -24   16.07   11.07
   4   3 -24   -9.31    7.91
  -4  -3  24   -8.24    9.99
  -2   4 -24    2.85   13.29
   4   2 -24    1.33   10.52
  -2   4 -24   17.17    9.80
   4   2 -24   24.54   13.92
  -4  -2  24   24.63   12.67
   2  -4  24   17.04   11.40
  -1   4 -24   13.73   15.23
  -1   4 -24   27.78   11.46
   1  -4  24   19.84   13.54
   2   4 -24   40.86   15.84
   2   4 -24    4.87   12.23
  -2  -4  24   43.88   14.54
   3   4 -24   -6.49   10.65
   3   4 -24    8.58    6.96
  -3  -4  24    1.04    9.87
   4   4 -24   -1.82    7.32
   4   4 -24  -12.58   11.15
  -4  -4  24   -2.18   10.08
   5   4 -24   -8.35    8.16
   5   4 -24  -19.98   11.61
  -5  -4  24  -10.27   10.92
   5   3 -24   -5.30    8.13
   5   3 -24   -9.60   11.26
  -5  -3  24  -11.47   10.57
   5   2 -24    0.70    8.43
  -2   5 -24  -16.02    5.75
   5   2 -24    3.59   11.21
  -2   5 -24    0.68    9.90
   2  -5  24    5.34    8.54
  -5  -2  24   -8.71    9.29
  -1   5 -24    6.33   10.10
   1  -5  24   -7.78    8.91
   1   5 -24    8.88    6.85
   2   5 -24    5.47    6.80
   2   5 -24   -9.34   11.30
  -2  -5  24   13.52   10.58
   3   5 -24    3.45    7.00
   3   5 -24  -20.95   11.70
  -3  -5  24   12.04   10.80
   4   5 -24    4.84    7.83
   4   5 -24   -8.35   11.90
  -4  -5  24   -0.55   11.18
   5   5 -24    0.64    7.37
   5   5 -24   -3.47   12.17
  -5  -5  24    0.57   11.68
   6   5 -24   -3.61   11.74
   6   5 -24    1.36    8.24
  -6  -5  24    4.80   12.34
   6   4 -24  -11.72   11.19
   6   4 -24    9.56    7.91
  -6  -4  24    1.79   11.12
   6   3 -24   14.43   11.58
   6   3 -24    9.19    8.65
  -6  -3  24   -5.40   11.12
   6   2 -24   -2.77   11.86
  -2   6 -24   -7.36   10.05
   6   2 -24   -3.75    7.95
  -6  -2  24   18.74   10.43
   0   6 -24   -6.92    6.06
   0  -6  24    7.31    5.81
   1   6 -24   -6.80   11.57
   1   6 -24    7.20    6.73
  -1  -6  24    5.38    6.17
  -1  -6  24  -23.44   10.67
   2   6 -24    6.93    6.93
   2   6 -24  -23.34   11.88
  -2  -6  24   11.00   10.67
  -2  -6  24    1.26    6.48
   3   6 -24   -6.03    7.36
   3   6 -24   20.17   11.70
  -3  -6  24  -16.17   11.47
  -3  -6  24   16.01    7.31
   4   6 -24   -9.20   12.52
   4   6 -24    0.63    7.18
  -4  -6  24    1.09   10.86
  -4  -6  24  -12.68    7.16
   5   6 -24   15.65   12.70
   5   6 -24   -4.65    7.95
  -5  -6  24    0.57   11.34
  -5  -6  24    0.74    7.23
   6   6 -24   30.83   15.05
   6   6 -24   10.53   10.31
  -6  -6  24    2.36    9.72
  -6  -6  24   20.25   13.96
   7   6 -24   -5.21   10.12
   7   6 -24  -14.22   14.64
  -7  -6  24   -0.83    9.21
  -7  -6  24  -42.60   14.54
   7   5 -24   10.34   13.91
  -7  -5  24   17.00   13.79
   7   4 -24  -32.78   13.01
  -7  -4  24    0.63   11.96
   7   3 -24  -14.95   11.48
  -7  -3  24    1.88   11.43
   7   2 -24   14.31   11.78
  -7  -2  24  -27.77   11.71
  -1   7 -24   -2.28    6.55
   1  -7  24   -4.78    5.36
   0   7 -24    9.52   11.28
   0   7 -24   -1.13    7.09
   0  -7  24   -2.84    5.92
   0  -7  24  -17.70   10.75
   1   7 -24   -2.28   11.16
   1   7 -24    1.18    6.77
  -1  -7  24   -1.89   10.52
  -1  -7  24    1.21    6.32
   2   7 -24   25.67    8.38
   2   7 -24   -7.07   12.40
  -2  -7  24    6.40    7.10
  -2  -7  24   10.34   10.93
   3   7 -24    1.63   11.52
   3   7 -24    7.63    7.43
  -3  -7  24  -13.30   10.37
  -3  -7  24   10.82    6.66
   4   7 -24    3.38   12.49
   4   7 -24   -1.99    7.80
  -4  -7  24    0.71    7.54
  -4  -7  24  -20.79   11.24
   5   7 -24   -0.88   13.79
   5   7 -24    9.03    9.01
  -5  -7  24   21.16   13.14
  -5  -7  24    4.52    8.63
   6   7 -24   -2.93    9.43
   6   7 -24  -28.52   14.42
  -6  -7  24  -39.71   14.70
  -6  -7  24   15.15    8.76
   7   7 -24  -20.27   14.84
   7   7 -24    7.71    9.23
  -7  -7  24   -0.84    9.48
   8   7 -24   -3.05   15.54
  -8  -7  24   30.58   14.74
   8   6 -24   24.02   15.30
   8   6 -24   -6.33   10.09
  -8  -6  24  -13.22   14.13
   8   5 -24   13.75   14.09
   8   5 -24   14.62    9.96
  -8  -5  24    1.78    9.19
  -8  -5  24    5.96   13.43
   8   4 -24  -10.72   12.50
   8   4 -24   -4.65    9.79
  -8  -4  24  -17.77   12.54
   8   3 -24   16.95   10.20
   8   3 -24  -44.61   12.90
  -8  -3  24   23.71   12.57
   8   2 -24    2.57    9.62
   8   2 -24   -1.97   11.22
  -8  -2  24   -4.62   11.05
  -1   8 -24    0.71   11.08
  -1   8 -24   -1.21    6.65
   1  -8  24   -6.64    5.34
   1  -8  24   -4.39   10.52
   0   8 -24   34.74   12.64
   0   8 -24   14.54    8.96
   0  -8  24    4.72    7.51
   0  -8  24   -2.74   11.77
   1   8 -24   12.49    7.87
   1   8 -24    3.82   11.63
  -1  -8  24  -24.16   10.51
  -1  -8  24    4.39    6.58
   2   8 -24    3.41    8.07
   2   8 -24    3.95   11.86
  -2  -8  24    9.80   10.78
  -2  -8  24    0.66    6.69
   3   8 -24   -9.82   12.52
   3   8 -24    4.26    8.20
  -3  -8  24  -22.31   11.21
  -3  -8  24    0.70    6.68
   4   8 -24   -5.10   13.16
   4   8 -24    2.21    8.88
  -4  -8  24  -17.75    8.05
  -4  -8  24   -5.80   11.48
   5   8 -24  -20.43   14.00
   5   8 -24  -15.40    9.75
  -5  -8  24  -14.84    8.76
   6   8 -24  -17.70   14.20
   6   8 -24   -0.81   10.13
  -6  -8  24  -24.99   13.59
  -6  -8  24  -12.39    9.10
   7   8 -24   13.56   10.27
   7   8 -24    8.84   13.91
  -7  -8  24   -8.60   12.44
  -7  -8  24   -6.13    8.44
   8   8 -24   -1.04   14.68
  -8  -8  24    5.87   13.82
   9   8 -24    7.57   12.14
   9   8 -24   16.61   15.96
  -9  -8  24    5.95   10.24
  -9  -8  24   10.42   15.56
   9   7 -24   19.08   10.67
   9   7 -24    1.07   16.34
  -9  -7  24   -8.40   14.92
  -9  -7  24    7.64    9.90
   9   6 -24   -0.84    9.09
   9   6 -24  -29.41   15.02
  -9  -6  24  -13.29   14.39
  -9  -6  24   17.93   10.01
   9   5 -24   24.66   13.65
   9   5 -24    3.33   10.13
  -9  -5  24   -4.88   12.90
  -9  -5  24  -11.35    9.30
   9   4 -24   12.18   13.85
   9   4 -24    9.95   10.15
  -9  -4  24  -13.13   13.23
   9   3 -24   19.82   10.46
   9   3 -24  -11.08   13.34
  -9  -3  24   -4.83   12.99
   9   2 -24    6.40   10.90
   9   2 -24  -28.55   14.07
  -9  -2  24   -1.38   11.77
  -1   9 -24    8.76    7.91
  -1   9 -24    2.78   11.29
   1  -9  24   17.08   10.65
   1  -9  24   -2.35    6.27
   0   9 -24    4.22    7.71
   0   9 -24  -12.21   11.72
   0  -9  24   -1.88    5.93
   0  -9  24   -3.61   10.29
   1   9 -24   -3.65    8.19
   1   9 -24   15.54   11.57
  -1  -9  24    4.65   10.66
  -1  -9  24    3.99    6.96
   2   9 -24   -8.03    8.81
   2   9 -24   -8.41   11.79
  -2  -9  24  -19.22   10.81
  -2  -9  24    9.86    7.00
   3   9 -24   19.79   12.82
   3   9 -24  -11.36    9.46
  -3  -9  24   -0.74    7.25
  -3  -9  24    1.00   11.83
   4   9 -24   -9.44    9.53
   4   9 -24  -27.25   13.72
  -4  -9  24    0.79    8.43
  -4  -9  24  -34.70   12.70
   5   9 -24   -2.46    9.05
   5   9 -24   -5.19   12.11
  -5  -9  24   -5.80    8.21
  -5  -9  24  -10.86   11.35
   6   9 -24   -0.85    9.61
   6   9 -24    5.48   12.96
  -6  -9  24    5.15   12.11
  -6  -9  24    6.13    8.64
   7   9 -24   21.30   14.95
   7   9 -24   15.22   11.09
  -7  -9  24   25.51   13.76
  -7  -9  24  -13.91   10.29
   8   9 -24    9.28   15.72
  -8  -9  24   11.05   14.57
   9   9 -24   12.65   17.87
   9   9 -24   -6.95   12.04
  -9  -9  24  -19.87   10.71
  10   9 -24    2.47   18.34
  10   9 -24  -12.01   12.73
 -10  -9  24   -7.81   11.46
 -10  -9  24  -21.19   16.95
  10   8 -24  -76.84   26.60
 -10  -8  24  -18.03   16.50
  10   7 -24   14.76   17.79
  10   7 -24   10.65   12.37
 -10  -7  24    7.45   16.58
 -10  -7  24   12.23   11.56
  10   6 -24   13.50   10.58
  10   6 -24    1.10   15.25
 -10  -6  24   -9.07   10.49
 -10  -6  24   27.45   15.54
  10   5 -24   -5.38   14.70
  10   5 -24   -0.89   10.49
 -10  -5  24    4.40   14.30
 -10  -5  24    7.06   10.50
  10   4 -24    1.77   10.75
  10   4 -24   -7.41   13.22
 -10  -4  24   16.72   14.09
  10   3 -24  -17.47   11.25
  10   3 -24   15.69   13.71
 -10  -3  24   -0.72   12.74
  10   2 -24   20.51   11.69
  10   2 -24    4.22   12.71
 -10  -2  24  -28.32   12.29
  -1  10 -24  -14.57    8.69
  -1  10 -24   -4.91   11.85
   1 -10  24    0.64    6.49
   0  10 -24    7.93   11.43
   0  10 -24    4.56    8.14
   0 -10  24    1.34    9.99
   0 -10  24   -4.74    6.48
   1  10 -24   -1.58    8.67
   1  10 -24  -14.86   12.01
  -1 -10  24   -0.72    7.05
  -1 -10  24   -8.29   10.33
   2  10 -24   -6.54    9.30
   2  10 -24    4.61   11.81
  -2 -10  24    3.79    6.79
  -2 -10  24  -14.70   10.61
   3  10 -24   11.17   11.83
   3  10 -24   -9.32   10.08
  -3 -10  24   -2.40    7.52
  -3 -10  24   -0.49   10.61
   4  10 -24   15.82    9.89
   4  10 -24    8.36   12.38
  -4 -10  24   -5.05    7.67
  -4 -10  24  -15.43   10.66
   5  10 -24   -0.88   12.76
   5  10 -24   13.70    9.93
  -5 -10  24   -3.55    8.54
  -5 -10  24   15.13   11.90
   6  10 -24   11.20   13.31
   6  10 -24   -0.95   10.50
  -6 -10  24  -17.78    9.32
  -6 -10  24   -6.29   12.19
   7  10 -24    3.98   14.82
   7  10 -24    0.99   12.63
  -7 -10  24   -4.95    9.65
  -7 -10  24   26.79   13.71
   8  10 -24  -19.23   22.14
  -8 -10  24  -43.28   21.18
   9  10 -24   -6.92   17.32
   9  10 -24    5.49   12.80
  -9 -10  24   -4.47   10.64
  -9 -10  24   -9.88   15.41
  10  10 -24  -43.62   19.34
  10  10 -24   40.57   13.39
 -10 -10  24    3.57   11.63
 -10 -10  24   -5.37   17.49
  11  10 -24    1.23   11.26
  11  10 -24  -36.43   20.20
 -11 -10  24   11.71   19.38
  11   9 -24   26.51   18.89
  11   9 -24    4.63   13.76
 -11  -9  24  -27.00   18.81
 -11  -9  24    3.58   11.40
  11   8 -24   -1.07   12.82
  11   8 -24   35.33   18.61
 -11  -8  24  -10.37   18.03
 -11  -8  24   -1.14   11.97
  11   7 -24  172.71   31.57
  11   7 -24   66.23   37.46
 -11  -7  24  -14.18   29.20
  11   6 -24   -1.93   10.95
  11   6 -24   16.27   16.08
 -11  -6  24    4.30   11.11
 -11  -6  24  -21.26   15.92
  11   5 -24  -21.00   11.35
  11   5 -24    2.25   14.94
 -11  -5  24   -5.41   15.06
 -11  -5  24  -15.07   11.77
  11   4 -24    1.10   14.22
  11   4 -24   15.20   11.60
 -11  -4  24    1.09   11.05
 -11  -4  24  -19.13   15.28
  11   3 -24   20.66   13.87
  11   3 -24   -3.92   12.02
 -11  -3  24    6.84   13.44
  11   2 -24   -3.12   12.99
  11   2 -24  -20.74   12.59
 -11  -2  24    0.76   12.65
  -1  11 -24  -16.70    7.72
   0  11 -24    0.83    8.45
   0  11 -24    6.49   11.61
   0 -11  24    3.71    7.04
   0 -11  24   -2.23   10.28
   1  11 -24   15.62   11.62
   1  11 -24   10.34    9.69
  -1 -11  24   -1.83   10.55
  -1 -11  24    3.92    7.56
   2  11 -24   14.67   11.82
   2  11 -24   -7.12    9.97
  -2 -11  24    3.31    7.40
  -2 -11  24    2.36   10.57
   3  11 -24  -17.52   10.08
   3  11 -24   -8.06   11.97
  -3 -11  24    8.72    7.88
  -3 -11  24    3.93   10.64
   4  11 -24    9.55   10.46
   4  11 -24    0.85   12.77
  -4 -11  24  -19.06   11.27
  -4 -11  24   -9.19    8.14
   5  11 -24    3.96   11.00
   5  11 -24    0.90   13.36
  -5 -11  24   -5.43   11.79
  -5 -11  24   -4.85    8.63
   6  11 -24    7.21   11.16
   6  11 -24  -25.93   14.65
  -6 -11  24  -14.22    8.93
  -6 -11  24   -1.15   12.44
   7  11 -24   36.51   25.53
   7  11 -24   31.97   29.28
  -7 -11  24   90.95   27.70
  -7 -11  24   15.02   23.66
   8  11 -24    2.25   11.96
   8  11 -24    3.34   16.76
  -8 -11  24    9.35   15.43
  -8 -11  24   13.72   11.12
   9  11 -24  -30.24   18.59
  -9 -11  24   16.65   16.41
  10  11 -24    7.90   19.95
 -10 -11  24   -3.15   17.87
  12   9 -24   11.09   12.45
  12   9 -24   -5.71   19.93
 -12  -9  24  -16.80   18.43
  12   8 -24  -33.69   18.60
  12   8 -24  -17.04   13.84
 -12  -8  24    1.74   19.88
 -12  -8  24  -12.15   13.01
  12   7 -24    6.62   13.16
  12   7 -24   23.11   18.36
 -12  -7  24  -11.91   17.15
 -12  -7  24   -2.34   11.81
  12   6 -24  -14.45   12.60
  12   6 -24   -2.44   17.20
 -12  -6  24   -9.19   17.23
 -12  -6  24  -11.49   12.21
  12   5 -24   56.25   38.59
  12   5 -24  121.52   47.12
 -12  -5  24  165.92   48.34
 -12  -5  24   19.56   37.28
  12   4 -24  -23.97   16.71
  12   4 -24    1.03   13.23
 -12  -4  24  -38.66   17.94
 -12  -4  24   -5.84   12.45
  12   3 -24   -6.77   15.04
  12   3 -24    7.32   12.82
 -12  -3  24  -11.94   14.20
  12   2 -24    6.63   13.44
 -12  -2  24  -17.60   13.97
   0  12 -24   20.66   11.84
   0 -12  24    8.95   11.51
   0 -12  24    2.45    8.17
   1  12 -24   -0.94    9.27
   1  12 -24   12.82   10.97
  -1 -12  24    6.90    7.65
  -1 -12  24   -6.46   10.44
   2  12 -24   -5.20   12.05
   2  12 -24   -1.95    9.91
  -2 -12  24   33.48   11.45
  -2 -12  24   -0.91    9.33
   3  12 -24    6.24   13.20
   3  12 -24    8.07   12.22
  -3 -12  24   21.02    9.92
  -3 -12  24   19.47   12.16
   4  12 -24   -2.09   12.58
   4  12 -24  -12.37   13.63
  -4 -12  24   -9.05   10.07
  -4 -12  24  -25.18   12.74
   5  12 -24   52.00   39.58
   5  12 -24   33.40   42.09
  -5 -12  24   76.24   37.07
  -5 -12  24  142.23   39.91
   6  12 -24  -10.13   12.59
   6  12 -24  -23.59   15.21
  -6 -12  24  -16.74   10.87
  -6 -12  24    0.59   13.65
   7  12 -24    1.17   12.09
   7  12 -24    7.52   16.16
  -7 -12  24    3.53   10.97
  -7 -12  24  -10.84   13.60
   8  12 -24   -1.22   12.72
   8  12 -24   15.19   17.98
  -8 -12  24   -1.38   15.39
  -8 -12  24   -2.49   11.59
  13   8 -24   14.34   20.04
  13   8 -24    1.21   10.38
 -13  -8  24  -36.48   19.77
  13   7 -24   -2.35   14.33
  13   7 -24    5.42   19.55
 -13  -7  24   20.95   19.10
 -13  -7  24   -8.81   12.06
  13   6 -24   10.29   18.54
  13   6 -24   -5.77   13.76
 -13  -6  24    6.19   17.70
 -13  -6  24  -22.14   12.86
  13   5 -24   19.71   18.11
  13   5 -24   19.70   13.75
 -13  -5  24    4.92   13.80
 -13  -5  24    5.17   19.05
  13   4 -24   23.14   14.83
  13   4 -24   41.52   17.96
 -13  -4  24    6.77   17.59
 -13  -4  24    4.98   14.61
  13   3 -24    1.17   14.99
  13   3 -24  -26.76   13.87
 -13  -3  24   14.96   15.30
  13   2 -24   17.54   15.84
 -13  -2  24   13.41   16.14
   0  13 -24   30.66   24.99
   0 -13  24   53.55   23.86
   1  13 -24   23.23   20.20
  -1 -13  24   39.12   19.31
   2  13 -24  -25.85   13.03
  -2 -13  24  -10.67   11.38
  -2 -13  24  -10.00   10.40
   3  13 -24   16.06   12.12
  -3 -13  24    0.51   11.35
  -3 -13  24   -2.11   10.23
   4  13 -24    0.85   12.87
  -4 -13  24  -19.86   12.23
  -4 -13  24   -2.21    8.80
   5  13 -24   22.87   15.32
  -5 -13  24   26.62   14.51
  -5 -13  24   -9.30   11.74
   6  13 -24   -9.89   15.12
  -6 -13  24   17.15   11.15
  -6 -13  24   22.31   14.11
   7  13 -24    1.07   15.91
  -7 -13  24    7.34   15.23
  -7 -13  24    1.29   10.18
  14   6 -24  -26.92   18.92
  14   6 -24   30.83   14.33
 -14  -6  24    8.40   20.11
 -14  -6  24  -18.44   13.51
  14   5 -24   11.53   17.79
  14   5 -24    1.17   14.61
 -14  -5  24   -7.24   19.44
 -14  -5  24    5.25   12.96
  14   4 -24    4.92   16.26
  14   4 -24  -18.79   15.11
 -14  -4  24   -1.33   13.15
 -14  -4  24   -7.08   17.19
  14   3 -24   18.96   15.02
  14   3 -24  -13.27   15.70
 -14  -3  24  -17.65   16.38
 -14  -3  24  -36.54   16.73
  14   2 -24  -14.82   15.82
  15   5 -24   46.27   26.24
 -15  -5  24   31.38   27.32
  15   4 -24   24.95   19.00
  15   4 -24   63.50   22.60
 -15  -4  24    7.06   18.31
 -15  -4  24   17.53   22.43
  15   3 -24    1.27   16.61
  15   3 -24  -38.38   16.37
 -15  -3  24   18.72   14.55
 -15  -3  24  -13.62   17.83
  15   2 -24    3.90   15.02
 -16  -3  24   34.00   24.54
   1   2 -25   -1.69    6.62
   2   2 -25   -9.07    6.87
  -2   2 -25    3.16    5.36
  -2  -2  25    3.40    9.41
   3   2 -25   -2.60    7.96
  -2   3 -25   28.71    6.29
  -3  -2  25  -11.03    9.52
   1   3 -25   49.27   17.88
   1   3 -25    1.62   14.34
  -1  -3  25   50.98   16.54
   2   3 -25   -9.52   11.67
   2   3 -25  -16.13    7.05
  -2  -3  25   15.63   10.06
   3   3 -25   -4.43   11.77
   3   3 -25   18.43    7.43
  -3  -3  25   -9.53   10.82
   4   3 -25   20.91   11.86
   4   3 -25    0.66    7.94
  -4  -3  25  -10.53   11.39
   4   2 -25    0.69    8.06
  -2   4 -25  -10.79   10.23
   2  -4  25   -7.71    8.20
  -4  -2  25   -3.59    9.47
   0   4 -25   -5.64    6.11
   1   4 -25   -9.80   11.35
   1   4 -25    9.73    6.70
  -1  -4  25    7.66    9.94
   2   4 -25   -2.86    6.53
   2   4 -25    6.72   11.48
  -2  -4  25    4.79   10.18
   3   4 -25   16.95    7.61
   3   4 -25   -0.87   11.97
  -3  -4  25   -1.11   10.73
   4   4 -25   -9.87   10.93
   4   4 -25    0.64    7.48
  -4  -4  25    2.32   10.95
   5   4 -25  -11.18   12.56
   5   4 -25   14.35    8.84
  -5  -4  25   -3.64   11.94
   5   3 -25    4.91    8.23
   5   3 -25    3.75   11.34
  -5  -3  25    0.61   10.57
   5   2 -25   -4.43    9.12
  -5  -2  25  -24.81   10.39
   0   5 -25   33.67   12.99
   0   5 -25   -3.17    8.73
   0  -5  25   25.66   11.40
   1   5 -25   -4.86   11.50
   1   5 -25   16.59    7.84
  -1  -5  25    9.16   11.02
   2   5 -25  -20.09   11.79
   2   5 -25    0.58    7.49
  -2  -5  25  -10.64   12.00
   3   5 -25  -10.39   12.69
  -3  -5  25    7.24   10.87
   4   5 -25    2.58    9.50
   4   5 -25   23.32   14.55
  -4  -5  25   37.30   13.59
   5   5 -25   -8.38   13.47
   5   5 -25    4.09    8.17
  -5  -5  25   -3.66   12.09
   6   5 -25    9.41    8.75
   6   5 -25  -16.45   13.01
  -6  -5  25  -37.00   12.86
   6   4 -25  -10.19    8.42
   6   4 -25    0.97   12.21
  -6  -4  25   -1.91   11.48
   6   3 -25    1.50    8.72
   6   3 -25  -22.27   12.86
  -6  -3  25   15.31   11.23
   6   2 -25   -9.51    9.24
   6   2 -25    0.99   11.72
  -6  -2  25   23.87   10.93
  -1   6 -25   -3.79    7.86
  -1   6 -25   -2.25   10.44
   1  -6  25   10.69    7.18
   1  -6  25   33.35    9.84
   0   6 -25  -10.12   10.78
   0   6 -25   -6.77    6.89
   0  -6  25    4.89   10.49
   0  -6  25   -8.41    6.63
   1   6 -25   15.35   13.10
   1   6 -25   11.74    7.88
  -1  -6  25   10.25   11.57
  -1  -6  25   -0.64    7.25
   2   6 -25   10.41    8.02
   2   6 -25   -8.37   12.79
  -2  -6  25    4.72    7.39
  -2  -6  25   11.25   11.65
   3   6 -25  -36.44   14.09
   3   6 -25    7.05    7.89
  -3  -6  25  -13.96   11.80
  -3  -6  25   -2.85    7.38
   4   6 -25   14.11    7.99
   4   6 -25   15.30   13.00
  -4  -6  25    9.76    8.05
  -4  -6  25  -11.66   12.76
   5   6 -25    9.35   13.29
   5   6 -25   11.32    8.85
  -5  -6  25    5.55    8.71
  -5  -6  25   -3.65   12.64
   6   6 -25    6.74    9.45
   6   6 -25   -0.97   13.87
  -6  -6  25  -16.56   13.56
  -6  -6  25   -6.71    9.35
   7   6 -25  -11.12    9.85
   7   6 -25    6.10   14.60
  -7  -6  25    0.89    9.58
  -7  -6  25   42.14   13.75
   7   5 -25   10.08   16.94
   7   5 -25    0.77   12.18
  -7  -5  25   15.38   16.68
  -7  -5  25   14.25   11.67
   7   4 -25   12.04   13.37
  -7  -4  25    2.00   12.73
   7   3 -25  -18.04   13.12
  -7  -3  25  -12.01   11.56
   7   2 -25    1.02   13.00
  -7  -2  25  -29.61   10.61
  -1   7 -25   12.76   10.98
  -1   7 -25   -3.45    6.87
   1  -7  25   -5.66    5.75
   1  -7  25   -7.94    9.46
   0   7 -25    8.59   11.63
   0   7 -25    4.20    7.16
   0  -7  25    1.21    6.04
   0  -7  25   -4.91   10.95
   1   7 -25  -13.77   12.49
   1   7 -25   10.59    7.46
  -1  -7  25    5.13   11.59
  -1  -7  25    2.58    6.61
   2   7 -25   -5.03   12.69
   2   7 -25   14.88    7.88
  -2  -7  25    6.93   11.51
  -2  -7  25   -1.37    6.85
   3   7 -25    3.48   12.64
   3   7 -25    2.02    7.37
  -3  -7  25   11.64   11.91
  -3  -7  25   -0.72    6.88
   4   7 -25    1.41    8.05
   4   7 -25   -2.70   12.82
  -4  -7  25   -5.34    7.72
  -4  -7  25    6.35   12.23
   5   7 -25   15.51   16.01
   5   7 -25   50.65   20.77
  -5  -7  25   19.35   15.46
  -5  -7  25   71.03   20.35
   6   7 -25  -33.29   14.64
   6   7 -25   13.99    8.98
  -6  -7  25  -24.62    8.72
  -6  -7  25   12.61   13.17
   7   7 -25   -0.82    9.46
   7   7 -25  -32.82   15.90
  -7  -7  25   11.28   13.54
  -7  -7  25   -2.70    8.63
   8   7 -25  -17.27   16.28
  -8  -7  25  -13.30   14.91
   8   6 -25    7.46   14.40
  -8  -6  25   -7.05   14.17
   8   5 -25    7.36   14.49
  -8  -5  25    1.40   13.19
   8   4 -25  -16.63   14.25
   8   4 -25   16.60   10.61
  -8  -4  25  -14.68   13.21
   8   3 -25   23.28   11.60
   8   3 -25   -5.20   14.81
  -8  -3  25   17.48   13.44
   8   2 -25    5.47   10.18
   8   2 -25   33.69   13.22
  -8  -2  25  -11.26   11.81
  -1   8 -25    5.12    9.25
  -1   8 -25   12.95   13.11
   1  -8  25   25.18   12.31
   1  -8  25    5.27    7.63
   0   8 -25   -1.34    8.11
   0   8 -25    8.69   11.77
   0  -8  25   19.96   11.09
   0  -8  25   -8.75    5.77
   1   8 -25    9.79   13.69
   1   8 -25   16.67   10.26
  -1  -8  25   25.28   12.96
  -1  -8  25    7.30    8.61
   2   8 -25   -7.22    8.85
   2   8 -25   -5.05   12.65
  -2  -8  25   -7.34   11.51
  -2  -8  25   11.24    7.10
   3   8 -25   -1.50   10.24
   3   8 -25   39.22   15.52
  -3  -8  25   -7.42    8.87
  -3  -8  25   28.25   14.34
   4   8 -25  -29.86   14.96
   4   8 -25  -11.71   10.46
  -4  -8  25  -14.90    9.80
   5   8 -25    0.94   14.53
   5   8 -25   21.20   10.64
  -5  -8  25   15.91   13.44
  -5  -8  25    4.97    9.19
   6   8 -25  -14.85   14.80
   6   8 -25   11.98   10.20
  -6  -8  25   22.86   13.44
  -6  -8  25   -1.75    8.94
   7   8 -25  -25.02   16.11
   7   8 -25  -14.40   11.32
  -7  -8  25   -0.93    9.55
  -7  -8  25    7.16   14.02
   8   8 -25    5.52   17.92
  -8  -8  25   24.84   17.03
   9   8 -25  -43.35   15.74
  -9  -8  25  -16.85   14.19
  -9  -8  25  -55.17   20.62
   9   7 -25    7.77   11.30
   9   7 -25  -14.80   17.50
  -9  -7  25    5.09    9.38
  -9  -7  25   12.63   15.65
   9   6 -25   25.30   11.42
   9   6 -25   19.01   15.75
  -9  -6  25   -5.21   15.71
  -9  -6  25   13.10   10.49
   9   5 -25   -9.83   10.27
   9   5 -25  -50.59   14.60
  -9  -5  25  -15.15    9.87
  -9  -5  25   11.81   14.08
   9   4 -25   27.05   16.49
   9   4 -25   13.34   12.83
  -9  -4  25   14.70   16.13
   9   3 -25   20.50   15.26
   9   3 -25  -10.14   12.85
  -9  -3  25   41.74   14.56
   9   2 -25    9.80   13.68
   9   2 -25   11.71   11.76
  -9  -2  25    0.74   12.56
  -1   9 -25   -9.90    7.96
  -1   9 -25  -17.69   12.41
   1  -9  25   -1.85    6.14
   0   9 -25    0.80   12.18
   0   9 -25   14.03    8.25
   0  -9  25  -15.55   11.42
   0  -9  25   -4.61    7.02
   1   9 -25   -4.10   13.01
   1   9 -25    1.48    8.83
  -1  -9  25  -13.51   11.48
  -1  -9  25    4.91    7.26
   2   9 -25    3.08    9.34
   2   9 -25   -2.44   12.85
  -2  -9  25    5.94    8.10
  -2  -9  25   21.15   11.96
   3   9 -25    7.98    9.05
   3   9 -25  -26.08   12.95
  -3  -9  25    2.14   11.77
  -3  -9  25    0.79    8.25
   4   9 -25    8.29   11.47
   4   9 -25   19.25   14.83
  -4  -9  25   -0.83    9.99
  -4  -9  25   27.74   13.94
   5   9 -25   14.32   13.69
   5   9 -25   11.23   10.39
  -5  -9  25  -11.03   12.45
  -5  -9  25   12.22    9.26
   6   9 -25  -35.22   10.21
   6   9 -25    6.03   14.19
  -6  -9  25    9.19   12.96
  -6  -9  25    4.61    9.69
   7   9 -25   17.06   11.61
   7   9 -25   13.82   15.88
  -7  -9  25    0.98    9.97
  -7  -9  25    0.65   13.88
   8   9 -25  -30.53   21.13
  -8  -9  25  -11.09   19.20
  -8  -9  25   -6.24   13.09
   9   9 -25  -12.08   19.24
   9   9 -25    9.49   12.91
  -9  -9  25  -17.82   16.72
  -9  -9  25  -31.02   12.27
  10   9 -25  -21.26   13.51
  10   9 -25   16.88   19.36
 -10  -9  25   -3.55   11.94
 -10  -9  25   -4.79   18.36
  10   8 -25   13.94   12.41
  10   8 -25  -40.01   20.28
 -10  -8  25   13.54   17.34
 -10  -8  25   -1.13   11.72
  10   7 -25  231.56   59.61
  10   7 -25    7.26   52.72
 -10  -7  25  268.86   59.08
 -10  -7  25  141.38   52.21
  10   6 -25   14.50   11.76
  10   6 -25  -61.14   16.25
 -10  -6  25   10.24   16.28
 -10  -6  25   -7.54   11.10
  10   5 -25   -1.91   11.82
  10   5 -25   17.26   16.55
 -10  -5  25   11.85   11.87
 -10  -5  25    7.01   15.62
  10   4 -25    5.73   11.37
  10   4 -25    1.13   14.69
 -10  -4  25  -18.55   14.83
  10   3 -25   15.80   12.06
  10   3 -25   34.76   15.10
 -10  -3  25  -10.75   14.30
  10   2 -25   15.67   12.49
 -10  -2  25    0.77   12.95
  -1  10 -25   11.40    8.79
   0  10 -25  -10.75   12.86
   0  10 -25   -3.97    9.46
   0 -10  25  -10.57    7.44
   0 -10  25  -10.57   11.76
   1  10 -25    6.61    8.87
   1  10 -25   -9.48   12.90
  -1 -10  25   10.88   11.20
  -1 -10  25    1.50    7.12
   2  10 -25   -0.82   12.33
   2  10 -25    3.43    9.45
  -2 -10  25   17.25   11.53
  -2 -10  25   -5.55    7.64
   3  10 -25   -7.11    9.65
   3  10 -25   24.57   13.83
  -3 -10  25    4.18    7.97
  -3 -10  25    6.83   11.72
   4  10 -25   -4.42   13.45
   4  10 -25  -11.99   11.19
  -4 -10  25   13.20   12.07
  -4 -10  25  -11.48    8.07
   5  10 -25   -3.84   12.70
   5  10 -25   39.03   15.27
  -5 -10  25   21.89   13.95
  -5 -10  25    3.72   10.53
   6  10 -25   20.01   13.44
   6  10 -25   42.34   16.76
  -6 -10  25   -0.98   11.88
  -6 -10  25   32.23   14.89
   7  10 -25    7.33   27.63
   7  10 -25   32.50   33.92
  -7 -10  25   14.60   24.83
  -7 -10  25   41.40   31.10
   8  10 -25   19.81   13.25
   8  10 -25  -24.70   17.33
  -8 -10  25   34.63   16.29
  -8 -10  25    9.96   11.26
   9  10 -25    6.04   18.61
  -9 -10  25  -39.62   17.02
  10  10 -25   14.72   13.09
  10  10 -25    1.36   20.90
 -10 -10  25   24.39   19.22
  11   9 -25   47.51   21.70
  11   9 -25   -4.93   13.95
 -11  -9  25    1.72   20.83
  11   8 -25   -4.00   18.45
  11   8 -25  -10.28   13.80
 -11  -8  25   18.12   12.67
 -11  -8  25   -4.28   17.35
  11   7 -25  -15.52   13.79
  11   7 -25    7.72   17.49
 -11  -7  25  -12.67   17.00
 -11  -7  25   -1.16   11.96
  11   6 -25  -53.33   22.90
  11   6 -25  -10.36   16.64
 -11  -6  25  -19.61   15.73
 -11  -6  25  -78.46   24.08
  11   5 -25  -36.19   20.72
  11   5 -25    3.09   14.26
 -11  -5  25  -19.58   14.80
 -11  -5  25  -56.69   21.25
  11   4 -25   11.74   15.42
  11   4 -25    7.17   12.34
 -11  -4  25    3.25   15.84
  11   3 -25   15.14   14.60
  11   3 -25   -2.11   12.88
 -11  -3  25    4.83   15.14
  11   2 -25   -1.12   13.05
 -11  -2  25    0.81   13.31
   0  11 -25   13.88   12.03
   0  11 -25   -0.86   10.73
   0 -11  25   27.65   11.64
   0 -11  25   -8.45    7.63
   1  11 -25    0.79   13.08
   1  11 -25    3.58    9.71
  -1 -11  25   -0.98   11.35
  -1 -11  25    4.88    7.63
   2  11 -25   13.93    9.87
   2  11 -25   -4.93   13.29
  -2 -11  25   -4.31    8.48
  -2 -11  25    5.56   11.35
   3  11 -25   -4.28   13.72
   3  11 -25   12.51   11.33
  -3 -11  25   28.30   12.57
  -3 -11  25   -6.33    9.04
   4  11 -25   17.07   13.71
   4  11 -25    2.99   10.62
  -4 -11  25   -0.55   12.08
  -4 -11  25   -7.64    8.66
   5  11 -25  -27.97   14.46
   5  11 -25  -26.60   16.68
  -5 -11  25  -26.53   15.66
  -5 -11  25   -3.02   12.62
   6  11 -25  -33.44   15.82
   6  11 -25  -24.26   18.99
  -6 -11  25  -48.36   18.16
  -6 -11  25   14.88   13.73
   7  11 -25   -6.76   11.88
   7  11 -25    2.16   16.42
  -7 -11  25   -3.92   14.24
  -7 -11  25   10.13   10.94
   8  11 -25   25.66   17.27
   8  11 -25   10.63   12.63
  -8 -11  25  -31.61   15.46
  -8 -11  25    7.15   11.15
   9  11 -25  -45.51   21.56
  -9 -11  25  -57.22   18.22
  12   8 -25   -4.27   19.53
  12   8 -25    1.22   11.60
 -12  -8  25    5.52   19.26
  12   7 -25   -2.72   18.91
  12   7 -25   16.61   14.44
 -12  -7  25  -27.10   18.55
 -12  -7  25   -2.50   12.28
  12   6 -25    4.44   12.70
  12   6 -25  -24.81   17.88
 -12  -6  25   10.60   17.54
 -12  -6  25    7.39   11.78
  12   5 -25   17.66   18.71
  12   5 -25   -1.10   14.61
 -12  -5  25   13.56   14.52
 -12  -5  25   62.35   19.27
  12   4 -25  -18.94   13.67
  12   4 -25  -50.12   18.21
 -12  -4  25  -35.00   13.64
 -12  -4  25  -20.52   17.25
  12   3 -25   62.89   20.75
  12   3 -25   25.99   17.03
 -12  -3  25    2.53   20.01
  12   2 -25  -14.28   14.98
 -12  -2  25  -11.91   14.24
   0  12 -25  -15.46   13.89
   0  12 -25  -17.73   10.09
   0 -12  25   -8.10   12.10
   0 -12  25   -7.55    7.80
   1  12 -25   -0.97   11.56
   1  12 -25  -17.58   14.13
  -1 -12  25   -4.44    9.32
  -1 -12  25  -20.12   12.14
   2  12 -25   19.11   13.75
   2  12 -25  -16.18   11.67
  -2 -12  25   23.36   12.19
  -2 -12  25   -8.45    9.03
   3  12 -25   10.49   14.12
   3  12 -25  -13.93   15.46
  -3 -12  25   22.77   11.35
  -3 -12  25   22.19   14.21
   4  12 -25  -15.23   12.53
   4  12 -25    8.26   14.70
  -4 -12  25   -0.55   13.11
  -4 -12  25    4.17   10.06
   5  12 -25    0.98   15.43
   5  12 -25    6.78   12.57
  -5 -12  25   -7.62   13.39
  -5 -12  25   -4.40   10.53
   6  12 -25  -10.45   16.62
   6  12 -25   -2.35   12.15
  -6 -12  25    1.16   10.28
  -6 -12  25    6.87   13.63
   7  12 -25   20.82   13.30
   7  12 -25   25.93   17.02
  -7 -12  25   18.09   16.11
  -7 -12  25  -14.73   12.01
  13   7 -25   17.30   20.41
 -13  -7  25    2.89   20.57
  13   6 -25   12.35   19.12
  13   6 -25   -7.48   15.57
 -13  -6  25  -14.51   13.24
 -13  -6  25   13.13   19.18
  13   5 -25  -26.25   19.15
  13   5 -25   24.89   14.37
 -13  -5  25    6.61   13.84
 -13  -5  25   22.84   18.41
  13   4 -25   28.65   15.21
  13   4 -25   -6.36   17.66
 -13  -4  25    4.48   17.02
 -13  -4  25   20.03   13.94
  13   3 -25   -2.41   14.32
  13   3 -25    2.50   15.77
 -13  -3  25   -7.95   15.74
  13   2 -25   20.24   16.43
   0  13 -25    3.71   11.68
   1  13 -25    7.72   12.07
  -1 -13  25    3.89    8.83
  -1 -13  25   11.95   12.07
   2  13 -25   -4.03   13.02
  -2 -13  25    2.05    9.46
  -2 -13  25   17.60   12.25
   3  13 -25    5.10   12.24
  -3 -13  25    4.33    8.89
  -3 -13  25  -22.20   12.75
   4  13 -25  -18.91   13.93
  -4 -13  25    6.85   10.35
  -4 -13  25   18.82   13.22
   5  13 -25    7.69   13.84
   5  13 -25  -11.05   12.88
  -5 -13  25  -11.50   13.86
  -5 -13  25    2.41   10.66
   6  13 -25  -27.26   17.04
   6  13 -25  -10.21   11.45
  -6 -13  25   20.07   14.34
  -6 -13  25    1.27   10.20
  14   5 -25    4.10   17.62
 -14  -5  25   -7.70   18.96
  14   4 -25   44.69   16.93
  14   4 -25    1.32   17.67
 -14  -4  25  -12.83   14.18
 -14  -4  25   14.07   18.38
  14   3 -25  -43.84   17.42
  14   3 -25  -25.78   17.37
 -14  -3  25   -4.37   15.71
 -14  -3  25    0.93   18.93
  14   2 -25   -6.70   16.18
 -15  -3  25  -18.37   20.05
  15   2 -25  -22.67   19.51
  -1   2 -26   -5.52    6.32
   0   2 -26    3.79    6.75
   1   2 -26   -5.85    7.16
   2   2 -26   15.78    9.96
   3   2 -26   -2.04    7.76
  -1   3 -26   -0.50    6.33
   0   3 -26    3.70    6.92
   0  -3  26   14.12    9.99
   1   3 -26   10.73    7.53
   1   3 -26   19.12   12.03
  -1  -3  26    2.78   10.37
   2   3 -26  -10.26    7.26
   2   3 -26    4.64   11.59
  -2  -3  26   -2.30    9.84
   3   3 -26  -11.42   12.02
   3   3 -26    0.65    7.56
  -3  -3  26  -10.72   10.26
   4   3 -26   -9.78   12.62
   4   3 -26    2.77    7.78
  -4  -3  26    4.34   10.79
   4   2 -26    7.22    8.98
  -4  -2  26   10.23   10.47
  -1   4 -26   -7.65    7.32
  -1   4 -26   18.49   10.91
   0   4 -26    2.57   12.01
   0   4 -26    6.45    6.64
   0  -4  26   -2.08    9.65
   1   4 -26    2.27    7.39
   1   4 -26   -4.39   12.69
  -1  -4  26   13.59   10.94
   2   4 -26   -5.42   11.76
   2   4 -26    7.23    7.14
  -2  -4  26  -12.49   11.46
   3   4 -26    1.86   11.98
   3   4 -26    1.92    7.13
  -3  -4  26   -1.19   11.23
   4   4 -26   -8.84    7.95
   4   4 -26   -1.92   12.74
  -4  -4  26    8.68   11.47
   5   4 -26  -12.92   12.27
   5   4 -26    2.90    8.89
  -5  -4  26   -5.18   12.45
   5   3 -26   -3.71    8.91
   5   3 -26   -7.05   13.16
  -5  -3  26   17.50   11.41
   5   2 -26  -13.98    9.13
  -5  -2  26    8.61   10.30
  -1   5 -26   10.63    6.66
  -1   5 -26   -7.27   12.28
   1  -5  26   -1.96    9.82
   0   5 -26    5.02   11.53
   0   5 -26   -1.67    6.50
   0  -5  26  -17.52   10.70
   1   5 -26   -6.41    6.66
   1   5 -26   -9.56   11.39
  -1  -5  26   -5.40   10.39
   2   5 -26   -5.39   12.00
   2   5 -26   -9.81    7.11
  -2  -5  26   13.61   11.25
   3   5 -26  -16.14    8.42
   3   5 -26  -20.46   12.44
  -3  -5  26    2.37   11.83
   4   5 -26   12.52   13.52
   4   5 -26    9.56    8.69
  -4  -5  26   16.75   13.02
   5   5 -26    5.80    8.53
   5   5 -26   -3.99   13.37
  -5  -5  26   -2.60   12.50
   6   5 -26    3.85   10.22
   6   5 -26    8.29   14.64
  -6  -5  26  -12.22   14.27
   6   4 -26  -23.69   13.49
   6   4 -26    3.87    9.12
  -6  -4  26   11.52   12.87
   6   3 -26   13.53   11.81
   6   3 -26   28.08   15.58
  -6  -3  26   25.04   14.52
   6   2 -26   -6.69    9.53
  -6  -2  26  -17.91   10.62
  -1   6 -26    7.99    6.92
  -1   6 -26    2.41   11.80
   1  -6  26   -3.60    6.60
   1  -6  26    3.93   10.08
   0   6 -26   -5.36    7.12
   0   6 -26   -9.19   12.04
   0  -6  26   14.52   10.81
   0  -6  26   -1.92    7.22
   1   6 -26    7.79   12.46
   1   6 -26    7.44    7.47
  -1  -6  26    3.27   11.22
  -1  -6  26  -10.86    7.17
   2   6 -26   -0.90   12.16
   2   6 -26   14.90    8.28
  -2  -6  26   13.71   12.27
  -2  -6  26   -6.46    7.57
   3   6 -26   15.61    9.71
   3   6 -26   11.14   14.54
  -3  -6  26   -2.27    8.88
  -3  -6  26   14.91   13.59
   4   6 -26   -0.96   13.19
   4   6 -26   -7.13    9.19
  -4  -6  26  -15.19    8.71
  -4  -6  26  -13.07   13.12
   5   6 -26  -20.30   10.21
   5   6 -26  -27.97   15.63
  -5  -6  26    0.84    8.98
  -5  -6  26  -35.73   14.81
   6   6 -26  -20.72   10.56
   6   6 -26   34.31   14.88
  -6  -6  26   12.51    9.74
   7   6 -26    1.09   13.62
   7   6 -26  -13.56    9.54
  -7  -6  26   13.27    9.53
  -7  -6  26  -10.69   13.75
   7   5 -26    1.64   10.24
   7   5 -26   -1.08   13.91
  -7  -5  26    3.55   13.81
   7   4 -26   11.58   10.00
   7   4 -26  -18.18   13.45
  -7  -4  26   11.36   13.09
   7   3 -26   25.80   17.88
  -7  -3  26    1.42   17.57
  -7  -2  26    2.87   11.74
  -1   7 -26    8.52    7.69
  -1   7 -26   -1.61   11.71
   1  -7  26  -10.24    6.03
   1  -7  26   12.46   10.58
   0   7 -26   -6.97    7.85
   0   7 -26  -15.10   13.33
   0  -7  26   -2.10   10.93
   0  -7  26    5.16    6.64
   1   7 -26   17.11    8.02
   1   7 -26    1.74   13.51
  -1  -7  26   -1.38    7.54
  -1  -7  26   -0.55   11.73
   2   7 -26  -11.64    8.52
   2   7 -26   -0.90   13.60
  -2  -7  26    0.57   12.83
  -2  -7  26  -16.76    7.41
   3   7 -26   33.55   16.88
   3   7 -26   38.00   22.04
  -3  -7  26   64.59   20.76
  -3  -7  26   11.54   15.50
   4   7 -26   -8.65   14.70
   4   7 -26  -13.44    8.56
  -4  -7  26   -3.25    8.04
  -4  -7  26    3.08   13.34
   5   7 -26   40.97   15.20
   5   7 -26    0.78    9.81
  -5  -7  26   17.35   13.97
  -5  -7  26    0.86    9.38
   6   7 -26   -0.83    9.16
   6   7 -26   -1.04   14.55
  -6  -7  26    0.67   14.33
  -6  -7  26   -0.91    9.11
   7   7 -26    1.09   14.35
   7   7 -26   -3.50    9.88
  -7  -7  26  -17.25    9.53
  -7  -7  26   14.13   13.87
   8   7 -26    1.16   16.74
  -8  -7  26    1.49   15.07
   8   6 -26   -1.14   16.10
  -8  -6  26   19.48   16.14
   8   5 -26  -41.68   16.80
  -8  -5  26   12.68   14.93
   8   4 -26   11.12   15.00
  -8  -4  26   -7.45   15.18
   8   3 -26  -21.19   15.05
   8   3 -26    0.92   11.03
  -8  -3  26    1.48   12.96
   8   2 -26    0.97   11.92
  -8  -2  26   26.26   13.69
  -1   8 -26  -17.82   12.72
  -1   8 -26  -12.17    8.94
   0   8 -26   -2.12    9.87
   0   8 -26  -10.11   14.58
   0  -8  26  -33.64   13.37
   0  -8  26   -9.27    7.96
   1   8 -26    4.36   13.48
   1   8 -26  -17.61    9.73
  -1  -8  26    1.41    7.81
  -1  -8  26   -3.24   12.40
   2   8 -26   22.49   14.06
   2   8 -26  -11.44    9.57
  -2  -8  26   -1.49    8.09
  -2  -8  26   15.10   12.46
   3   8 -26   -1.59    9.60
   3   8 -26   20.48   13.69
  -3  -8  26   12.75   12.84
  -3  -8  26   -7.89    8.01
   4   8 -26   32.81   16.07
   4   8 -26   26.47   11.77
  -4  -8  26   10.23   14.57
  -4  -8  26    4.16   10.18
   5   8 -26   -8.65   10.84
   5   8 -26  -19.11   16.56
  -5  -8  26   -9.41   14.37
  -5  -8  26   -8.78    8.91
   6   8 -26   38.97   16.02
   6   8 -26    7.26   11.05
  -6  -8  26   -2.79   10.27
  -6  -8  26    1.31   14.97
   7   8 -26    6.70   10.98
   7   8 -26   -4.43   17.02
  -7  -8  26    5.91   10.12
  -7  -8  26   15.94   14.66
   8   8 -26  -41.50   15.78
   8   8 -26  -15.22   21.25
  -8  -8  26  -30.44   20.61
  -8  -8  26  -23.08   13.99
   9   8 -26  -58.37   20.14
   9   8 -26  -22.60   13.27
  -9  -8  26    3.95   17.88
   9   7 -26   49.98   22.45
   9   7 -26  -18.85   15.94
  -9  -7  26    4.34   14.88
  -9  -7  26   60.90   21.32
   9   6 -26   -1.19   16.58
   9   6 -26   -8.71   10.70
  -9  -6  26    3.16   15.36
  -9  -6  26   16.13   10.67
   9   5 -26  -16.49   15.37
   9   5 -26   15.32   11.41
  -9  -5  26    8.61   10.37
  -9  -5  26   -5.49   14.90
   9   4 -26    0.95   11.69
   9   4 -26    3.47   16.20
  -9  -4  26   30.49   14.76
   9   3 -26   -3.47   15.29
   9   3 -26    0.99   11.15
  -9  -3  26  -17.84   12.77
   9   2 -26    6.23   12.57
  -9  -2  26    5.50   13.01
   0   9 -26   -3.00    7.99
   0   9 -26    4.23   12.51
   0  -9  26   -0.70    6.72
   0  -9  26    4.69   11.57
   1   9 -26    9.36    9.60
   1   9 -26   16.55   14.02
  -1  -9  26    4.45    7.92
  -1  -9  26    6.46   12.75
   2   9 -26   -8.99   13.91
   2   9 -26   16.21    9.47
  -2  -9  26   -0.56   12.25
  -2  -9  26    3.13    7.53
   3   9 -26   19.36    9.76
   3   9 -26   -4.65   14.33
  -3  -9  26    5.75   12.55
  -3  -9  26   -5.80    8.48
   4   9 -26  -22.23   15.15
   4   9 -26   -3.51   10.31
  -4  -9  26   -9.62    8.77
  -4  -9  26   30.43   13.32
   5   9 -26  -17.36   10.75
   5   9 -26    4.04   14.76
  -5  -9  26    2.77    9.44
  -5  -9  26  -13.70   13.73
   6   9 -26   -2.87   11.53
   6   9 -26    6.37   16.19
  -6  -9  26   16.35   14.68
  -6  -9  26   20.52   10.23
   7   9 -26   24.70   20.72
   7   9 -26    7.03   16.09
  -7  -9  26   59.40   20.44
  -7  -9  26   14.49   14.72
   8   9 -26  -10.76   18.79
   8   9 -26   -7.42   13.26
  -8  -9  26  -27.88   17.03
  -8  -9  26    4.42   12.19
   9   9 -26   43.45   20.01
  -9  -9  26  -25.87   17.27
  10   9 -26    2.38   14.48
  10   9 -26   16.45   21.30
 -10  -9  26   34.54   19.62
  10   8 -26    6.87   13.67
  10   8 -26   34.38   19.81
 -10  -8  26   15.19   18.47
 -10  -8  26   -9.59   13.87
  10   7 -26   -1.11   13.04
  10   7 -26    5.16   18.51
 -10  -7  26   -2.52   16.60
 -10  -7  26   -6.96   12.03
  10   6 -26   22.82   13.76
  10   6 -26  -26.38   18.95
 -10  -6  26    5.75   13.21
 -10  -6  26  -34.21   18.68
  10   5 -26  -10.29   15.77
  10   5 -26  -32.04   23.06
 -10  -5  26  -13.80   14.02
 -10  -5  26  -50.40   20.53
  10   4 -26    3.07   12.98
  10   4 -26   32.58   16.88
 -10  -4  26   -9.86   16.61
  10   3 -26   -6.01   15.65
  10   3 -26   -1.06   12.46
 -10  -3  26  -11.39   13.66
  10   2 -26  -15.62   12.95
 -10  -2  26   -1.65   14.17
   0  10 -26  -25.31   11.51
   0  10 -26    1.66    9.48
   0 -10  26    6.70   12.37
   0 -10  26   -2.21    7.32
   1  10 -26    0.87    9.77
   1  10 -26   17.66   13.18
  -1 -10  26    5.50    7.50
  -1 -10  26   -1.59   12.38
   2  10 -26   16.20   10.59
   2  10 -26    3.47   13.20
  -2 -10  26  -27.77   13.42
  -2 -10  26  -17.49    7.96
   3  10 -26   15.29   14.09
   3  10 -26   12.14   10.69
  -3 -10  26   -3.94   12.50
  -3 -10  26    0.88    8.22
   4  10 -26    6.79   11.49
   4  10 -26   40.30   14.49
  -4 -10  26   13.49   13.74
  -4 -10  26  -11.14    9.68
   5  10 -26  -32.32   15.80
   5  10 -26  -22.62   19.56
  -5 -10  26  -24.52   13.34
  -5 -10  26  -47.92   18.01
   6  10 -26   30.59   12.76
   6  10 -26  -44.63   15.89
  -6 -10  26   22.02   15.48
  -6 -10  26    6.22   10.76
   7  10 -26   -3.45   16.73
   7  10 -26   -2.21   11.76
  -7 -10  26  -18.66   10.94
  -7 -10  26   13.09   15.26
   8  10 -26   24.57   18.74
   8  10 -26  -11.64   13.89
  -8 -10  26   28.75   16.69
  -8 -10  26   -1.17   11.74
   9  10 -26  -30.36   21.03
  -9 -10  26    6.36   17.45
  11   8 -26   11.30   20.56
  11   8 -26    1.22   11.59
 -11  -8  26   -9.96   18.33
  11   7 -26  -28.69   18.30
  11   7 -26    1.19   13.69
 -11  -7  26  -24.87   13.27
 -11  -7  26  -13.46   17.69
  11   6 -26    1.11   13.50
  11   6 -26  -41.02   18.77
 -11  -6  26  -18.54   17.93
 -11  -6  26   -7.40   13.08
  11   5 -26  -12.17   13.32
  11   5 -26   20.62   18.12
 -11  -5  26   12.31   12.70
 -11  -5  26   -4.35   17.67
  11   4 -26   30.86   14.54
  11   4 -26  -54.07   19.12
 -11  -4  26  -16.40   17.47
  11   3 -26  -49.92   15.33
  11   3 -26  -39.93   16.96
 -11  -3  26   18.78   15.95
  11   2 -26  -14.36   15.50
   0  11 -26    8.19   12.62
   0  11 -26    8.99   10.44
   0 -11  26   -3.56   11.62
   0 -11  26   10.36    7.90
   1  11 -26   -4.22   13.03
   1  11 -26   -2.80   10.50
  -1 -11  26   -4.19   12.25
  -1 -11  26   -2.54    8.11
   2  11 -26  -18.44   12.40
   2  11 -26   -4.36   15.30
  -2 -11  26  -14.31    9.89
  -2 -11  26  -32.35   14.01
   3  11 -26    6.04   11.60
   3  11 -26   41.73   15.54
  -3 -11  26  -25.57   10.39
  -3 -11  26   -0.56   13.41
   4  11 -26   23.00   12.25
   4  11 -26   -0.95   15.04
  -4 -11  26  -40.78   14.58
  -4 -11  26   -1.00   10.36
   5  11 -26    3.26   12.30
   5  11 -26    5.00   15.60
  -5 -11  26   26.29   14.30
  -5 -11  26   10.57   11.20
   6  11 -26   -4.53   11.94
   6  11 -26    1.06   16.42
  -6 -11  26  -13.39   10.56
  -6 -11  26   14.95   14.17
   7  11 -26   20.47   16.68
   7  11 -26  -10.67   12.51
  -7 -11  26   -4.72   11.50
  -7 -11  26   26.31   15.58
   8  11 -26   -7.34   19.40
  -8 -11  26   -9.67   16.49
  12   7 -26   -8.69   19.90
 -12  -7  26   12.44   20.03
  12   6 -26   -9.59   14.40
  12   6 -26    9.77   19.53
 -12  -6  26  -25.30   18.91
 -12  -6  26    5.27   13.32
  12   5 -26   -5.96   14.23
  12   5 -26  -40.31   19.34
 -12  -5  26   38.63   18.75
 -12  -5  26   11.87   13.55
  12   4 -26  -31.44   19.06
  12   4 -26   18.98   13.93
 -12  -4  26    1.81   16.96
 -12  -4  26   -1.34   13.66
  12   3 -26  -21.91   14.43
  12   3 -26  -15.51   15.74
 -12  -3  26  -13.44   15.99
  12   2 -26  -19.18   14.66
   0  12 -26   11.54   12.49
   0  12 -26  -10.65    9.68
   1  12 -26  -15.17   11.36
   1  12 -26   11.91   14.07
  -1 -12  26  -26.65   13.28
  -1 -12  26  -12.86    9.95
   2  12 -26    0.88   13.17
   2  12 -26   13.69   10.94
  -2 -12  26   -3.90    9.43
  -2 -12  26    1.62   12.28
   3  12 -26  -36.09   12.87
   3  12 -26    1.84   14.07
  -3 -12  26   -2.06   10.27
  -3 -12  26   11.22   13.15
   4  12 -26    4.54   13.29
   4  12 -26   15.53   15.10
  -4 -12  26    8.71   11.09
  -4 -12  26   29.98   14.66
   5  12 -26   10.62   13.08
   5  12 -26   13.37   16.32
  -5 -12  26    8.05   11.02
  -5 -12  26    3.11   13.69
   6  12 -26    1.23   13.21
   6  12 -26   -3.29   17.04
  -6 -12  26    3.64   11.06
  -6 -12  26    7.26   14.89
  13   5 -26    8.41   20.44
 -13  -5  26   -1.42   12.52
 -13  -5  26  -11.65   18.73
  13   4 -26   13.64   18.21
  13   4 -26   16.78   15.77
 -13  -4  26   11.44   14.77
 -13  -4  26    0.95   17.67
  13   3 -26    7.83   15.66
  13   3 -26   16.05   17.01
 -13  -3  26  -31.99   16.86
  13   2 -26   -8.18   16.78
   1  13 -26   19.83   13.47
  -1 -13  26   -8.02    8.39
  -1 -13  26   -0.53   11.90
   2  13 -26  -10.78   13.62
  -2 -13  26    3.18    9.22
  -2 -13  26   -1.10   12.79
   3  13 -26   -8.29   11.19
   3  13 -26    1.89   13.91
  -3 -13  26    3.37    9.78
  -3 -13  26   -0.57   13.21
   4  13 -26    4.99   14.52
   4  13 -26    2.46   12.52
  -4 -13  26  -21.35   11.86
  -4 -13  26    3.00   13.61
   5  13 -26    9.58   16.20
  -5 -13  26    1.25    9.61
  -5 -13  26   28.66   14.94
 -14  -3  26   -9.86   18.76
   1  14 -26    2.51   12.56
  -1 -14  26    8.11   12.76
   2  14 -26    0.88   13.36
  -2 -14  26    2.25   13.40
   3  14 -26   -3.71   13.79
  -3 -14  26  -10.05   14.80
  -1   2 -27   -3.11    6.22
   0   2 -27    0.56    6.34
   1   2 -27   -7.28    7.24
  -2   2 -27    3.35    6.01
  -2   3 -27   -3.37    6.19
  -1   3 -27    7.20    6.73
   0   3 -27   -9.35    7.44
   1   3 -27    1.18    6.74
  -1  -3  27  -17.85   10.29
   2   3 -27   -7.57    7.61
  -2  -3  27    4.30   10.58
   3   3 -27   12.23   12.54
   3   3 -27  -10.15    7.95
  -3  -3  27   17.80   11.16
   4   3 -27  -23.04   14.36
   4   3 -27   18.89    9.18
  -4  -3  27   19.16   12.06
   4   2 -27   13.57    9.68
  -1   4 -27   -3.60   10.95
  -1   4 -27   -3.72    6.70
   1  -4  27   10.65    9.37
   0   4 -27    7.87    7.09
   0   4 -27    0.92   12.13
   0  -4  27    2.76   10.13
   1   4 -27   -5.66   13.47
   1   4 -27   -7.14    7.05
  -1  -4  27    5.19   10.65
   2   4 -27   -5.82   12.86
   2   4 -27  -10.75    7.71
  -2  -4  27  -12.67   11.97
   3   4 -27   -6.73    8.18
   3   4 -27   13.99   13.40
  -3  -4  27    3.78   11.38
   4   4 -27  -11.48    9.22
   4   4 -27   -8.25   13.99
  -4  -4  27   -9.89   13.35
   5   4 -27    9.20    8.72
   5   4 -27  -26.66   13.85
  -5  -4  27   -8.96   13.27
   5   3 -27   30.49   13.25
   5   3 -27   -1.08   16.95
  -5  -3  27   19.28   15.67
   5   2 -27   -3.26    8.87
  -1   5 -27    0.87   12.52
  -1   5 -27   -6.12    6.88
   1  -5  27  -14.07   10.43
   0   5 -27   -6.42    6.95
   0   5 -27   11.64   12.42
   0  -5  27  -15.36   11.40
   1   5 -27    4.63   12.84
   1   5 -27   -5.52    7.17
  -1  -5  27   16.11   11.35
   2   5 -27    7.75    7.86
   2   5 -27   -0.96   12.80
  -2  -5  27  -20.49   12.06
   3   5 -27   21.13   13.79
   3   5 -27   48.83   19.24
  -3  -5  27   22.69   17.46
   4   5 -27   13.73    9.22
   4   5 -27   -6.19   13.78
  -4  -5  27   13.84   13.00
   5   5 -27   -9.63   14.01
   5   5 -27   -7.68    8.54
  -5  -5  27   10.33   12.69
   6   5 -27   -1.64    9.92
   6   5 -27    4.44   15.12
  -6  -5  27   24.50   14.04
   6   4 -27   -9.94   14.69
   6   4 -27   21.34   10.30
  -6  -4  27    4.33   14.07
   6   3 -27   -2.23   14.90
   6   3 -27   17.67   10.77
  -6  -3  27   -1.44   12.36
   6   2 -27   -1.76   10.36
  -1   6 -27   13.82   11.12
  -1   6 -27   47.30   15.94
   1  -6  27   24.97   13.74
   1  -6  27   -0.64   10.27
   0   6 -27    4.38    8.13
   0   6 -27   34.91   13.86
   0  -6  27    6.60   11.97
   0  -6  27   -0.68    8.08
   1   6 -27   22.90   11.29
   1   6 -27   21.34   16.15
  -1  -6  27   31.87   14.96
  -1  -6  27    1.44   10.67
   2   6 -27   -0.68    8.44
   2   6 -27   -2.88   14.06
  -2  -6  27   24.85   13.15
  -2  -6  27    8.38    8.76
   3   6 -27    0.72    8.51
   3   6 -27  -22.89   14.82
  -3  -6  27  -12.68   13.56
  -3  -6  27    1.61    7.60
   4   6 -27    9.07   10.61
   4   6 -27    9.28   15.14
  -4  -6  27   14.44   10.37
  -4  -6  27   24.48   14.66
   5   6 -27   11.98   10.26
   5   6 -27    5.35   15.20
  -5  -6  27   13.81   14.67
  -5  -6  27    5.38    9.71
   6   6 -27  -44.53   17.19
   6   6 -27    9.32   10.18
  -6  -6  27   -2.85    9.70
  -6  -6  27   41.89   15.03
   7   6 -27   -9.03   11.34
   7   6 -27    1.16   15.49
  -7  -6  27   -4.54   14.69
  -7  -6  27    5.04   10.03
   7   5 -27   -4.62   14.71
   7   5 -27   -9.64   10.18
  -7  -5  27   18.11   14.47
   7   4 -27    6.16   11.53
   7   4 -27    3.44   15.85
  -7  -4  27   12.07   15.36
   7   3 -27    1.15   16.01
   7   3 -27   23.55   12.12
  -7  -3  27    9.02   14.14
  -1   7 -27   -3.21    7.71
  -1   7 -27  -10.32   12.70
   0   7 -27    3.34    7.72
   0   7 -27    1.79   12.96
   0  -7  27    7.81   11.76
   0  -7  27   -0.69    6.65
   1   7 -27  -26.94   13.04
   1   7 -27    4.17    8.35
  -1  -7  27  -11.68   11.94
  -1  -7  27    0.73    7.88
   2   7 -27  -16.35   13.69
   2   7 -27  -10.13    9.46
  -2  -7  27    4.65    7.54
  -2  -7  27   11.57   12.50
   3   7 -27   30.87   15.73
   3   7 -27   -5.28   10.19
  -3  -7  27   13.91    9.53
  -3  -7  27   15.21   14.32
   4   7 -27   15.49   17.08
   4   7 -27   24.52   12.30
  -4  -7  27   32.95   15.95
  -4  -7  27    6.04   11.30
   5   7 -27   -6.66    9.75
   5   7 -27    1.07   14.96
  -5  -7  27    4.56    9.03
  -5  -7  27  -10.99   13.64
   6   7 -27   -8.94   14.73
   6   7 -27    2.64    9.95
  -6  -7  27    0.97    9.88
  -6  -7  27   10.06   14.09
   7   7 -27    5.85   15.39
   7   7 -27   -2.80   10.89
  -7  -7  27  -14.35   10.47
  -7  -7  27   -9.81   14.95
   8   7 -27  161.04   38.40
   8   7 -27   24.83   30.15
  -8  -7  27   81.94   36.17
  -8  -7  27   23.88   28.53
   8   6 -27   21.88   17.70
  -8  -6  27    8.74   16.39
   8   5 -27   39.76   18.69
  -8  -5  27    9.50   17.69
   8   4 -27   -2.38   15.99
  -8  -4  27   17.40   14.82
   8   3 -27   10.75   16.90
  -8  -3  27   19.67   14.87
   0   8 -27   -2.23    8.67
   0   8 -27   -5.38   13.06
   0  -8  27   -8.96   11.59
   0  -8  27    0.70    7.00
   1   8 -27    0.77    9.15
   1   8 -27    6.50   14.25
  -1  -8  27    0.58   12.24
  -1  -8  27    5.98    7.53
   2   8 -27   -6.71   13.50
   2   8 -27  -15.31   10.57
  -2  -8  27   -5.44   13.85
  -2  -8  27   -3.96    8.08
   3   8 -27   11.90   15.16
   3   8 -27   -1.68   10.32
  -3  -8  27    0.84    8.57
  -3  -8  27    3.76   13.84
   4   8 -27  -18.51   14.25
   4   8 -27  -15.74   10.44
  -4  -8  27   15.62   14.07
  -4  -8  27   -1.77    8.86
   5   8 -27   23.81   12.07
   5   8 -27   31.03   17.26
  -5  -8  27    4.67   11.45
  -5  -8  27   -5.42   16.56
   6   8 -27  -10.60   11.61
   6   8 -27   31.32   15.81
  -6  -8  27   -7.90   10.07
  -6  -8  27    2.13   15.52
   7   8 -27   14.24   29.87
   7   8 -27   92.87   36.48
  -7  -8  27   40.87   28.29
  -7  -8  27  108.94   35.32
   8   8 -27    4.97   17.53
   8   8 -27    7.55   12.79
  -8  -8  27  -33.92   18.14
  -8  -8  27   -2.23   11.26
   9   8 -27   19.76   20.20
  -9  -8  27   13.43   18.69
   9   7 -27   19.45   19.50
   9   7 -27   20.15   12.58
  -9  -7  27  -17.68   17.96
   9   6 -27   37.25   13.45
   9   6 -27  -35.73   19.58
  -9  -6  27   -6.69   18.50
  -9  -6  27    1.15   12.47
   9   5 -27  -35.23   19.15
   9   5 -27    1.02   12.78
  -9  -5  27  -16.66   16.79
  -9  -5  27   -2.29   12.00
   9   4 -27   53.32   19.53
   9   4 -27    3.05   15.02
  -9  -4  27   23.24   18.69
   9   3 -27    6.19   15.47
   9   3 -27   -4.20   12.22
  -9  -3  27   -7.42   13.51
   0   9 -27   26.17   14.00
   0   9 -27    4.74    8.86
   0  -9  27   -4.43   12.17
   0  -9  27    2.94    7.54
   1   9 -27  -12.11   14.51
   1   9 -27    1.65    9.63
  -1  -9  27    9.41    8.48
  -1  -9  27   20.61   13.01
   2   9 -27   20.15   14.61
   2   9 -27   -9.40    9.52
  -2  -9  27   -5.92   13.50
  -2  -9  27    9.13    8.24
   3   9 -27  -43.69   15.77
   3   9 -27   -8.00   11.12
  -3  -9  27    0.61   13.98
  -3  -9  27    2.63    8.97
   4   9 -27    8.33   14.20
   4   9 -27   21.62   18.32
  -4  -9  27   16.68   12.47
  -4  -9  27   27.94   16.92
   5   9 -27   -3.23   17.43
   5   9 -27    4.83   12.30
  -5  -9  27   -0.98   10.58
  -5  -9  27  -54.26   16.21
   6   9 -27    6.08   12.49
   6   9 -27  -11.29   16.84
  -6  -9  27    1.04   10.62
  -6  -9  27  -20.81   16.42
   7   9 -27   17.87   16.78
   7   9 -27  -25.59   13.07
  -7  -9  27  -25.63   16.74
  -7  -9  27    2.20   10.93
   8   9 -27   -4.51   13.39
   8   9 -27  -29.11   19.55
  -8  -9  27    3.11   17.12
  -8  -9  27  -14.02   12.80
   9   9 -27    4.06   20.80
  -9  -9  27    2.49   17.88
  10   8 -27  -36.72   25.13
 -10  -8  27   -5.38   20.43
  10   7 -27    3.57   13.71
  10   7 -27   17.84   19.35
 -10  -7  27   17.33   12.98
 -10  -7  27  -11.61   18.35
  10   6 -27    7.78   13.56
  10   6 -27   13.42   19.11
 -10  -6  27   15.94   12.58
 -10  -6  27   -2.66   17.08
  10   5 -27   -5.51   13.09
  10   5 -27   15.74   17.46
 -10  -5  27  -46.58   12.78
 -10  -5  27   17.55   17.16
  10   4 -27   42.79   20.21
  10   4 -27   81.40   24.88
 -10  -4  27   12.20   22.32
  10   3 -27  -48.60   16.44
  10   3 -27  -61.69   20.61
 -10  -3  27  -11.25   16.91
   0  10 -27    0.87    9.85
   0  10 -27   -2.71   13.46
   0 -10  27    5.42    7.97
   0 -10  27  -15.49   12.24
   1  10 -27   13.01   15.27
   1  10 -27   -7.28   10.51
  -1 -10  27  -27.37   14.18
  -1 -10  27   -8.26    8.35
   2  10 -27   26.50   11.64
   2  10 -27  -38.36   16.10
  -2 -10  27   -0.88    8.77
  -2 -10  27  -25.24   14.08
   3  10 -27   -5.90   14.39
   3  10 -27    6.95   18.31
  -3 -10  27  -25.05   12.24
   4  10 -27    9.30   19.63
   4  10 -27   20.45   16.54
  -4 -10  27   23.54   14.05
  -4 -10  27   14.46   18.59
   5  10 -27  -10.66   12.63
   5  10 -27   18.40   15.93
  -5 -10  27   32.24   15.13
  -5 -10  27    4.14   11.16
   6  10 -27    5.70   15.87
   6  10 -27   -1.11   12.56
  -6 -10  27   -2.19   11.57
  -6 -10  27   -1.39   15.42
   7  10 -27  -31.47   19.00
   7  10 -27   -5.85   12.72
  -7 -10  27   -4.65   10.98
  -7 -10  27   -5.14   16.39
   8  10 -27  -62.12   21.42
  -8 -10  27   -3.91   19.79
  11   7 -27   -4.36   20.07
 -11  -7  27   25.67   20.44
  11   6 -27   -1.20   14.91
  11   6 -27    5.66   19.86
 -11  -6  27   41.21   19.88
 -11  -6  27    5.26   13.96
  11   5 -27  -39.80   19.73
  11   5 -27  -11.91   14.06
 -11  -5  27  -23.15   18.39
 -11  -5  27  -28.90   14.12
  11   4 -27   -4.04   17.41
  11   4 -27   21.32   14.64
 -11  -4  27  -22.87   16.58
  11   3 -27   -8.51   14.81
  11   3 -27  -23.99   17.49
 -11  -3  27   -4.54   15.62
   0  11 -27   -1.87   10.79
   0  11 -27  -14.79   14.53
   1  11 -27   -2.69   17.66
   1  11 -27  -38.11   14.59
  -1 -11  27  -43.74   16.58
  -1 -11  27  -15.10   11.74
   2  11 -27  -15.74   14.71
   2  11 -27   10.17   11.43
  -2 -11  27   -4.04   13.35
  -2 -11  27   -5.63    8.91
   3  11 -27   -1.06   11.62
   3  11 -27   -0.96   14.35
  -3 -11  27   -8.95   13.89
  -3 -11  27   -7.96    9.58
   4  11 -27   23.09   14.73
   4  11 -27   15.37   12.08
  -4 -11  27    6.22   13.75
  -4 -11  27  -25.21    9.62
   5  11 -27    9.51   15.55
   5  11 -27    8.00   13.11
  -5 -11  27    5.87   15.01
  -5 -11  27    6.66   10.92
   6  11 -27   23.52   16.85
   6  11 -27   -1.19   13.47
  -6 -11  27    0.69   16.08
  -6 -11  27    8.22   12.11
  -7 -11  27  -32.34   17.52
  12   5 -27   63.22   21.30
 -12  -5  27  -13.69   20.43
  12   4 -27    7.03   18.16
  12   4 -27   -3.84   15.22
 -12  -4  27    3.84   17.87
 -12  -4  27  -11.39   14.87
  12   3 -27   20.95   15.69
 -12  -3  27  -41.06   17.12
   1  12 -27    6.33   11.13
   1  12 -27   -0.90   14.17
  -1 -12  27   -5.02   12.22
  -1 -12  27   -6.69    8.39
   2  12 -27   -2.20   11.38
   2  12 -27   -9.34   13.78
  -2 -12  27   -6.91   13.17
  -2 -12  27   -9.14   10.46
   3  12 -27   -9.74   14.70
   3  12 -27   16.01   12.62
  -3 -12  27   15.54   13.50
  -3 -12  27   -6.45   10.57
   4  12 -27   10.70   13.44
   4  12 -27    9.20   15.53
  -4 -12  27  -13.66   11.02
  -4 -12  27  -21.84   14.99
   5  12 -27   35.69   17.56
   5  12 -27    2.48   14.82
  -5 -12  27   12.47   15.68
  -5 -12  27    1.20   12.46
  13   3 -27  -14.09   16.68
 -13  -3  27   12.03   18.41
   1  13 -27    8.23   13.62
  -1 -13  27    0.56   12.54
  -1 -13  27   -1.03    8.87
   2  13 -27   10.47   16.44
  -2 -13  27   22.06   14.75
  -2 -13  27    9.89   11.76
   3  13 -27   25.92   14.80
   3  13 -27    1.23   12.48
  -3 -13  27    3.64   14.13
  -3 -13  27   -1.17   10.52
   4  13 -27  -21.06   18.10
  -4 -13  27  -22.87   16.52
   1  14 -27   13.06   15.74
   2  14 -27  -24.39   15.44
  -2 -14  27    3.56   13.82
  -1   3 -28   -4.25    6.40
   0   3 -28    3.42    7.04
   1   3 -28    0.61    7.18
   2   3 -28   -0.66    7.64
  -2  -3  28    5.24   10.85
   3   3 -28    7.07    8.26
  -3  -3  28  -13.58   11.07
   4   3 -28    6.86    9.84
  -4  -3  28   19.75   12.78
  -1   4 -28   -6.62    6.56
   1  -4  28    2.84   10.33
   0   4 -28   -2.92    7.02
   0   4 -28   12.79   13.56
   0  -4  28    0.59   10.69
   1   4 -28   27.30   14.33
   1   4 -28   -2.49    7.88
  -1  -4  28    9.79   11.45
   2   4 -28    3.12   14.43
   2   4 -28    9.26    8.29
  -2  -4  28    3.19   11.74
   3   4 -28    9.88    8.53
   3   4 -28    1.07   14.10
  -3  -4  28  -10.03   12.35
   4   4 -28   28.76   15.32
   4   4 -28    4.53   10.25
  -4  -4  28    2.80   13.25
   5   4 -28    4.05    9.84
   5   4 -28   14.85   15.97
  -5  -4  28   17.55   13.82
   5   3 -28   12.69   16.22
   5   3 -28   29.59   12.13
  -5  -3  28   19.83   14.34
  -1   5 -28   -3.72   12.75
  -1   5 -28    7.55    6.97
   1  -5  28  -12.13   10.22
   0   5 -28    6.11    7.38
   0   5 -28  -21.11   14.51
   0  -5  28    0.58   10.75
   1   5 -28   -7.71    7.84
   1   5 -28    6.95   13.95
  -1  -5  28   -1.22   12.50
   2   5 -28  -17.45   14.27
   2   5 -28    2.71    8.18
  -2  -5  28   18.60   12.73
   3   5 -28    4.25   14.08
   3   5 -28   -5.75    8.38
  -3  -5  28  -15.44   13.31
   4   5 -28    4.40   15.14
   4   5 -28    2.29    9.10
  -4  -5  28   15.43   14.05
   5   5 -28  -15.45    9.80
   5   5 -28  -10.26   14.69
  -5  -5  28   24.19   13.89
   6   5 -28    4.73   16.28
   6   5 -28    0.87   11.66
  -6  -5  28   30.67   15.18
   6   4 -28   -0.87   10.33
   6   4 -28  -33.14   17.18
  -6  -4  28    1.53   14.23
   6   3 -28   11.53   11.15
   6   3 -28   13.10   15.10
  -6  -3  28    1.53   12.95
  -1   6 -28   10.06    8.16
   0   6 -28    7.65   13.65
   0   6 -28    7.23    8.43
   0  -6  28    4.66   12.38
   0  -6  28    6.47    7.96
   1   6 -28   -6.95   13.95
   1   6 -28    4.81    8.50
  -1  -6  28   -7.98   12.67
  -1  -6  28    7.63    8.09
   2   6 -28   -8.25   13.61
   2   6 -28    5.04    8.54
  -2  -6  28    7.08   12.88
  -2  -6  28  -10.49    8.79
   3   6 -28    2.27    8.99
   3   6 -28  -13.87   14.22
  -3  -6  28    8.08   13.19
  -3  -6  28    0.85    8.65
   4   6 -28  -59.66   15.99
   4   6 -28   -0.80   10.09
  -4  -6  28   -8.10    9.88
  -4  -6  28  -10.55   14.67
   5   6 -28  -24.06   15.55
   5   6 -28   -2.54    9.57
  -5  -6  28    8.08   14.24
  -5  -6  28    0.95    9.76
   6   6 -28   11.91   16.24
   6   6 -28   -7.20   10.56
  -6  -6  28   20.72   15.40
  -6  -6  28    3.03   10.30
   7   6 -28   32.32   18.53
   7   6 -28   15.38   12.25
  -7  -6  28    0.80   16.24
  -7  -6  28  -12.87   11.24
   7   5 -28   25.15   12.53
   7   5 -28   13.53   16.88
  -7  -5  28   10.44   16.38
   7   4 -28    9.83   16.13
   7   4 -28    2.80   11.15
  -7  -4  28    1.60   14.23
   7   3 -28    6.16   14.95
   7   3 -28   -9.58   11.35
  -7  -3  28  -28.03   13.09
   0   7 -28   -1.40    8.53
   0   7 -28  -14.36   13.81
   0  -7  28   -8.76    8.24
   0  -7  28  -15.34   12.78
   1   7 -28    9.51    8.12
   1   7 -28   -2.98   13.70
  -1  -7  28  -15.52    8.44
  -1  -7  28   11.79   12.65
   2   7 -28    9.15   10.10
   2   7 -28    7.20   15.07
  -2  -7  28   -0.82    9.59
  -2  -7  28   29.19   14.66
   3   7 -28   -8.52   14.26
   3   7 -28   10.38    9.58
  -3  -7  28   15.63    9.08
  -3  -7  28   -3.38   13.64
   4   7 -28   17.64   15.16
   4   7 -28   30.16   10.52
  -4  -7  28   -4.92   14.82
  -4  -7  28  -11.92    9.51
   5   7 -28   14.99   10.32
   5   7 -28   -9.16   15.57
  -5  -7  28   -4.85    9.99
  -5  -7  28   -8.06   14.66
   6   7 -28  -18.66   11.23
   6   7 -28    3.58   17.15
  -6  -7  28  -62.02   17.55
  -6  -7  28    1.03   10.44
   7   7 -28   24.81   12.17
   7   7 -28  -51.17   19.49
  -7  -7  28    1.09   10.92
  -7  -7  28  -29.70   17.99
   8   7 -28    1.31   17.36
   8   7 -28    3.18   12.53
  -8  -7  28    9.30   18.66
  -8  -7  28    9.25   12.42
   8   6 -28  -15.45   14.27
   8   6 -28  -66.32   22.23
  -8  -6  28    6.85   12.82
  -8  -6  28  -23.64   18.52
   8   5 -28  -38.47   21.83
  -8  -5  28  -13.48   19.04
   8   4 -28   21.69   18.05
  -8  -4  28   19.29   17.15
   8   3 -28    8.93   17.31
  -8  -3  28    1.68   14.58
   0   8 -28   26.64    9.48
   0   8 -28   -8.64   14.29
   0  -8  28   -1.79   12.54
   0  -8  28   -6.70    7.39
   1   8 -28    3.99   14.97
   1   8 -28   -0.82    8.93
  -1  -8  28  -11.10    8.38
  -1  -8  28    0.62   12.74
   2   8 -28   -6.18   14.47
   2   8 -28   -8.50    9.62
  -2  -8  28    7.56    8.19
  -2  -8  28    9.68   13.49
   3   8 -28   21.26   12.08
   3   8 -28   27.72   17.36
  -3  -8  28   13.32   10.93
  -3  -8  28    4.01   15.26
   4   8 -28   31.82   17.47
   4   8 -28   20.35   11.75
  -4  -8  28   -4.86   14.90
  -4  -8  28   -5.63   10.44
   5   8 -28  -46.77   20.58
   5   8 -28   -0.97   14.25
  -5  -8  28  -52.78   19.70
  -5  -8  28  -13.88   13.04
   6   8 -28  -20.41   19.90
   6   8 -28  -16.37   13.75
  -6  -8  28  -24.19   18.22
  -6  -8  28   -8.40   12.43
   7   8 -28   -5.04   19.34
   7   8 -28    6.49   13.03
  -7  -8  28   -1.11   12.46
  -7  -8  28   24.64   16.88
   8   8 -28  -42.50   21.16
   8   8 -28   19.55   13.58
  -8  -8  28    3.36   18.64
  -8  -8  28   33.23   12.96
   9   8 -28   16.89   20.55
  -9  -8  28  -12.51   18.13
   9   7 -28    8.30   20.67
  -9  -7  28   33.03   20.14
   9   6 -28   36.87   21.76
  -9  -6  28   25.77   20.77
   9   5 -28    6.56   14.04
   9   5 -28   41.53   19.24
  -9  -5  28   -3.65   13.46
  -9  -5  28   24.81   18.16
   9   4 -28   59.69   16.37
   9   4 -28   11.97   20.78
  -9  -4  28    3.52   18.36
   9   3 -28  -37.96   18.20
   9   3 -28  -93.97   24.50
  -9  -3  28   -3.52   19.24
   0   9 -28   -9.14    9.63
   0   9 -28  -16.30   14.09
   0  -9  28   10.74   13.26
   0  -9  28   -9.32    7.58
   1   9 -28  -11.26    9.42
   1   9 -28  -11.90   14.79
  -1  -9  28    0.83    7.79
  -1  -9  28    7.42   13.45
   2   9 -28  -12.62   16.38
   2   9 -28  -76.76   22.66
  -2  -9  28   -6.15   13.43
  -2  -9  28  -67.73   20.71
   3   9 -28  -33.86   22.38
   3   9 -28  -28.13   17.14
  -3  -9  28  -18.60   14.83
   4   9 -28    1.96   12.52
   4   9 -28    7.68   17.58
  -4  -9  28   -0.98   10.25
  -4  -9  28  -62.96   17.58
   5   9 -28   10.29   16.29
   5   9 -28    1.02   12.13
  -5  -9  28   -7.14   15.78
  -5  -9  28   -7.27   11.12
   6   9 -28   20.39   17.35
   6   9 -28   10.74   12.78
  -6  -9  28  -17.20   16.06
  -6  -9  28   -4.40   11.45
   7   9 -28   12.46   13.52
   7   9 -28    6.32   18.32
  -7  -9  28    3.50   11.99
  -7  -9  28   -8.68   18.10
   8   9 -28   24.12   19.65
  -8  -9  28  -28.45   18.93
  10   6 -28  -17.23   19.44
  10   6 -28  -20.28   14.49
 -10  -6  28   -9.38   18.61
 -10  -6  28   14.38   13.50
  10   5 -28   27.18   14.53
  10   5 -28  -19.62   19.33
 -10  -5  28   -7.47   18.58
 -10  -5  28  -24.79   13.65
  10   4 -28   19.95   14.20
  10   4 -28   -4.16   18.89
 -10  -4  28  -27.69   16.71
  10   3 -28    7.23   15.80
 -10  -3  28   38.75   17.68
   0  10 -28  -50.40   20.55
   1  10 -28  -58.36   24.40
   1  10 -28  -53.57   20.07
  -1 -10  28  -23.48   15.49
   2  10 -28   -2.99   11.75
   2  10 -28    2.04   15.08
  -2 -10  28  -15.72   10.01
  -2 -10  28   -8.14   14.69
   3  10 -28   -2.11   16.93
   3  10 -28   -8.29   10.88
  -3 -10  28    1.96    9.11
  -3 -10  28   -4.53   13.90
   4  10 -28    7.54   12.57
   4  10 -28   24.15   16.50
  -4 -10  28   10.73   15.94
  -4 -10  28    4.15   10.50
   5  10 -28   20.65   16.20
   5  10 -28    3.38   12.55
  -5 -10  28   -1.10   10.30
  -5 -10  28  -25.89   15.80
   6  10 -28  -10.61   13.55
   6  10 -28   37.48   18.36
  -6 -10  28    1.16   10.62
  -6 -10  28   -3.68   15.07
   7  10 -28   37.20   20.02
  -7 -10  28   -7.77   18.64
  11   5 -28   32.30   20.72
 -11  -5  28    3.93   20.05
  11   4 -28   13.01   20.23
  11   4 -28   24.14   16.09
 -11  -4  28   18.41   18.52
  11   3 -28   -5.21   15.33
 -11  -3  28   15.51   17.05
   1  11 -28   -1.98   14.55
   1  11 -28   -1.02   12.02
  -1 -11  28   -7.24   12.98
  -1 -11  28  -12.05    9.28
   2  11 -28  -13.29   15.52
   2  11 -28   -8.53   11.76
  -2 -11  28    1.97    9.79
  -2 -11  28  -13.65   14.48
   3  11 -28    7.76   12.04
   3  11 -28  -28.62   16.53
  -3 -11  28   19.84   14.80
  -3 -11  28   15.69   10.42
   4  11 -28  -11.55   12.95
   4  11 -28    6.63   16.43
  -4 -11  28   14.37   10.78
  -4 -11  28  -11.34   15.64
   5  11 -28  -14.44   13.49
   5  11 -28   12.77   17.18
  -5 -11  28    6.97   15.46
  -5 -11  28    1.17   11.24
  12   3 -28   -1.41   13.46
 -12  -3  28    6.11   17.74
   1  12 -28   -1.91   14.92
   1  12 -28   -9.91   11.00
  -1 -12  28    1.00    8.91
  -1 -12  28  -17.87   13.48
   2  12 -28   -0.99   15.08
   2  12 -28  -11.50   11.85
  -2 -12  28    1.23   13.68
  -2 -12  28   -2.12    9.31
   3  12 -28    1.03   16.26
   3  12 -28  -10.78   14.56
  -3 -12  28   30.55   15.02
  -3 -12  28   11.26   11.32
   4  12 -28    8.63   18.19
  -4 -12  28  -42.51   17.65
  -4 -12  28  -23.85   13.23
   1  13 -28   -8.69   14.62
   2  13 -28   18.07   15.68
   2  13 -28    1.24   12.46
  -2 -13  28   -1.23   13.63
  -2 -13  28    9.16   10.60
  -3 -13  28  -19.92   16.84
  -1   3 -29   -9.85    8.39
   0   3 -29   -8.83    7.71
   1   3 -29  -22.81    8.95
   2   3 -29    9.56    9.25
   3   3 -29   19.91   12.52
   4   3 -29   -0.80    9.70
  -4  -3  29   12.04   12.33
  -1   4 -29    7.98    7.23
   0   4 -29    8.49    7.38
   0  -4  29  -14.42   11.47
   1   4 -29   -5.82    8.49
  -1  -4  29  -12.38   12.27
   2   4 -29   -2.07    8.03
   2   4 -29   10.01   15.31
  -2  -4  29    2.72   11.82
   3   4 -29    8.13    8.95
   3   4 -29  -28.70   16.38
  -3  -4  29   16.31   12.94
   4   4 -29    3.17    9.97
   4   4 -29   13.05   15.46
  -4  -4  29    5.19   13.30
   5   4 -29  -11.07    9.50
   5   4 -29    2.45   16.94
  -5  -4  29   -9.30   13.42
   5   3 -29   30.19   11.46
  -5  -3  29    1.57   13.79
  -1   5 -29   -9.66    7.78
   0   5 -29   17.16    8.31
   0   5 -29   -5.13   14.98
   0  -5  29  -12.90   11.08
   1   5 -29  -19.12   16.01
   1   5 -29   10.06    8.34
  -1  -5  29  -18.13   12.38
   2   5 -29    8.79   15.29
   2   5 -29   -7.81    8.11
  -2  -5  29    7.48   12.58
   3   5 -29  -10.56    9.56
   3   5 -29   10.24   15.64
  -3  -5  29   12.12   14.10
   4   5 -29   -4.71   16.22
   4   5 -29   -3.21    9.46
  -4  -5  29  -12.68   15.24
   5   5 -29   10.98   17.00
   5   5 -29  -15.44   10.39
  -5  -5  29  -16.37   16.15
   6   5 -29   -5.52   11.48
   6   5 -29  -10.13   18.20
  -6  -5  29  -26.93   17.36
   6   4 -29  -15.23   17.73
   6   4 -29  -28.41   10.48
  -6  -4  29   21.06   14.32
   6   3 -29   -4.67   11.01
  -6  -3  29    4.09   13.46
   0   6 -29    2.03   14.84
   0   6 -29    1.37    8.46
   0  -6  29   -3.09   12.20
   0  -6  29    1.51    8.07
   1   6 -29   28.52   15.41
   1   6 -29   -0.72    9.13
  -1  -6  29   13.67   13.15
  -1  -6  29   -3.22    8.84
   2   6 -29   19.75   15.76
   2   6 -29  -12.09    9.20
  -2  -6  29  -17.75   13.83
  -2  -6  29    1.70    8.93
   3   6 -29  -13.70   16.24
   3   6 -29   -7.97   10.25
  -3  -6  29   -0.90    9.27
  -3  -6  29  -20.71   14.78
   4   6 -29   -6.75    9.91
   4   6 -29   31.93   16.34
  -4  -6  29   -8.57    9.95
  -4  -6  29   -2.98   14.70
   5   6 -29   18.81   11.91
   5   6 -29  -25.78   17.27
  -5  -6  29  -38.96   16.79
  -5  -6  29  -21.16   11.01
   6   6 -29   61.22   20.20
   6   6 -29   -5.73   13.02
  -6  -6  29   -1.07   12.20
  -6  -6  29   17.10   17.43
   7   6 -29  -30.65   13.10
   7   6 -29   25.28   18.83
  -7  -6  29    1.14   11.63
  -7  -6  29   -7.68   16.69
   7   5 -29  190.87   47.35
   7   5 -29   82.06   40.58
  -7  -5  29   81.99   44.87
   7   4 -29  -76.39   20.68
   7   4 -29   12.85   13.28
  -7  -4  29   -8.49   16.69
   7   3 -29   10.11   12.42
  -7  -3  29   11.96   15.01
   0   7 -29    1.02   14.99
   0   7 -29   11.03    9.29
   0  -7  29  -10.04    8.42
   0  -7  29   26.82   13.00
   1   7 -29   -5.37    8.82
   1   7 -29  -16.99   15.55
  -1  -7  29  -14.46   14.06
  -1  -7  29    3.28    8.55
   2   7 -29    4.81    9.33
   2   7 -29   11.00   16.02
  -2  -7  29   -0.87    9.07
  -2  -7  29  -17.85   14.18
   3   7 -29   11.77   10.18
   3   7 -29   20.52   16.31
  -3  -7  29    5.52    9.66
  -3  -7  29  -13.61   14.65
   4   7 -29   10.61   11.52
   4   7 -29  -22.43   19.07
  -4  -7  29  -24.64   16.52
  -4  -7  29  -18.46   10.78
   5   7 -29   78.37   35.65
   5   7 -29    3.74   27.35
  -5  -7  29   24.67   25.84
  -5  -7  29   80.17   33.97
   6   7 -29   -1.98   11.83
   6   7 -29   -5.11   17.66
  -6  -7  29    2.18   11.08
  -6  -7  29  -21.14   16.08
   7   7 -29   -3.16   12.27
   7   7 -29    9.34   18.00
  -7  -7  29    9.37   17.43
  -7  -7  29  -11.58   11.83
   8   7 -29    5.64   13.38
   8   7 -29    4.20   18.97
  -8  -7  29   -1.23   12.58
  -8  -7  29  -41.19   18.31
   8   6 -29   -5.48   13.60
   8   6 -29  -27.83   19.10
  -8  -6  29   -9.70   12.69
  -8  -6  29    2.69   17.45
   8   5 -29    1.37   18.93
   8   5 -29    2.13   13.07
  -8  -5  29   -0.90   17.44
  -8  -5  29  -14.49   12.30
  -8  -4  29  -35.54   21.13
  -8  -3  29   93.91   81.34
   0   8 -29  -34.77   16.69
   0   8 -29    9.88    9.95
   0  -8  29    3.15    7.70
   1   8 -29  -68.97   21.79
   1   8 -29  -14.60   13.20
  -1  -8  29   -8.39   10.77
   2   8 -29  -61.73   20.25
  -2  -8  29  -29.36   16.30
   3   8 -29  231.60   96.97
   3   8 -29  107.36   81.78
  -3  -8  29   90.36   73.62
   4   8 -29  -24.69   22.23
   4   8 -29  -35.16   16.12
  -4  -8  29  -29.86   14.97
   5   8 -29   19.54   13.57
   5   8 -29   34.23   18.73
  -5  -8  29    8.42   11.43
  -5  -8  29   14.68   16.79
   6   8 -29    1.28   17.95
   6   8 -29  -21.68   13.11
  -6  -8  29    1.12   11.41
  -6  -8  29    3.23   16.52
   7   8 -29   19.57   13.71
   7   8 -29   14.73   19.03
  -7  -8  29   -7.64   17.06
  -7  -8  29   -7.10   11.78
  -8  -8  29   -5.37   18.22
   9   6 -29   37.91   20.82
  -9  -6  29   -5.65   19.51
   9   5 -29    1.43   18.92
  -9  -5  29  -33.87   18.64
   9   4 -29   24.24   19.54
   9   4 -29   33.54   14.54
  -9  -4  29  -10.25   17.54
   9   3 -29  -11.85   15.09
  -9  -3  29    0.94   16.49
   0   9 -29  -49.78   20.37
   1   9 -29  -49.61   23.92
   1   9 -29  -29.16   18.05
  -1  -9  29  -40.25   15.39
   2   9 -29   -8.72   16.14
   2   9 -29    1.90   10.98
  -2  -9  29   -0.93    9.96
  -2  -9  29   -9.55   15.09
   3   9 -29   -4.95   11.69
   3   9 -29  -42.79   16.92
  -3  -9  29  -13.80   10.67
  -3  -9  29   -6.35   15.76
   4   9 -29   16.34   17.46
   4   9 -29   -6.20   12.98
  -4  -9  29    8.04   15.66
  -4  -9  29    7.29   10.53
   5   9 -29    1.22   16.70
   5   9 -29  -14.07   13.35
  -5  -9  29   31.99   16.14
  -5  -9  29    1.10   11.60
   6   9 -29   25.05   14.31
   6   9 -29   -1.27   18.40
  -6  -9  29   15.14   17.18
  -6  -9  29    1.17   12.12
   7   9 -29   -8.05   20.67
  -7  -9  29  -15.94   17.71
  10   5 -29   39.04   20.95
 -10  -5  29  -25.75   20.45
  10   4 -29   -7.43   23.15
  10   4 -29   18.81   17.24
 -10  -4  29   41.12   20.55
  10   3 -29  -14.12   14.88
 -10  -3  29    6.88   16.32
   1  10 -29  -17.09   12.20
   1  10 -29   -3.16   16.15
  -1 -10  29  -21.98   14.68
  -1 -10  29   -8.26    9.67
   2  10 -29   12.57   12.90
   2  10 -29   29.36   17.89
  -2 -10  29   11.71   10.41
  -2 -10  29  -13.33   15.87
   3  10 -29   -2.25   16.90
   3  10 -29   28.36   12.69
  -3 -10  29  -14.47   15.48
  -3 -10  29    7.25   10.45
   4  10 -29   13.65   15.69
   4  10 -29   18.69   19.92
  -4 -10  29    4.39   13.87
  -4 -10  29   47.11   18.71
   5  10 -29   -7.13   14.26
   5  10 -29   -6.10   17.32
  -5 -10  29    8.12   11.48
  -5 -10  29    7.45   15.80
 -11  -3  29    4.13   18.45
   1  11 -29  -12.89   12.08
   1  11 -29   -3.15   15.20
  -1 -11  29    6.82    9.26
  -1 -11  29   -0.64   14.13
   2  11 -29   12.32   12.90
   2  11 -29    1.08   16.26
  -2 -11  29    0.66   14.75
  -2 -11  29   10.37   10.34
   3  11 -29   17.97   19.04
   3  11 -29   11.67   15.40
  -3 -11  29   11.64   17.55
  -3 -11  29   35.24   13.47
   4  11 -29   -8.20   16.57
   4  11 -29  -40.09   13.96
  -4 -11  29   20.63   15.95
  -4 -11  29   -2.33   10.99
   1  12 -29   -2.11   16.10
   1  12 -29   17.29   12.81
   2  12 -29  -14.46   12.43
   2  12 -29    2.18   16.26
  -2 -12  29    7.90   14.52
  -2 -12  29   -4.45   10.24
   3  12 -29    4.53   17.33
  -3 -12  29  -24.50   16.71
  -1   3 -30    6.74    7.63
   0   3 -30   -1.82    7.40
   1   3 -30    5.24    8.18
   2   3 -30   -1.42    8.17
   3   3 -30  -15.35   10.14
   4   3 -30  -16.65    9.85
   0   4 -30   11.91    9.11
   1   4 -30   -4.69    8.90
  -1  -4  30   -6.94   13.32
   2   4 -30   12.92    9.15
  -2  -4  30   -7.24   12.58
   3   4 -30   19.61   16.02
   3   4 -30   11.56   10.41
  -3  -4  30   15.86   14.20
   4   4 -30    1.27   14.79
   4   4 -30    6.64    9.79
  -4  -4  30   -4.73   13.54
   5   4 -30   -2.68   10.58
   5   4 -30  -11.80   17.72
  -5  -4  30   12.36   13.94
   5   3 -30   -6.32   10.64
   0   5 -30   -3.29   14.83
   0   5 -30    7.25    8.26
   0  -5  30    0.65   11.90
   1   5 -30  -13.65   16.67
   1   5 -30    4.89    8.60
  -1  -5  30   17.07   12.94
   2   5 -30   10.37    8.97
   2   5 -30  -29.43   17.31
  -2  -5  30   -2.16   12.62
   3   5 -30   -3.65   16.19
   3   5 -30    5.53    9.73
  -3  -5  30    1.51   13.11
   4   5 -30   -1.26   16.19
   4   5 -30   -9.27   10.05
  -4  -5  30  -19.76   14.34
   5   5 -30  -15.38   15.07
   5   5 -30   -7.84   22.44
  -5  -5  30  -64.56   20.75
   6   5 -30  -51.54   19.37
   6   5 -30  -18.48   13.20
  -6  -5  30  -20.77   18.35
   6   4 -30  122.58   36.62
  -6  -4  30   27.58   41.79
   6   3 -30  -26.47   14.23
   0   6 -30   -5.42   13.90
   0   6 -30   15.02    8.70
   0  -6  30    3.92   12.07
   0  -6  30   -7.16    8.02
   1   6 -30   -1.50    9.21
   1   6 -30  -14.65   16.57
  -1  -6  30    7.59   12.96
  -1  -6  30    0.85    8.85
   2   6 -30  -29.25   17.48
   2   6 -30    7.90    9.71
  -2  -6  30  -29.74   15.84
  -2  -6  30   -0.90    9.76
   3   6 -30  -28.41   11.90
   3   6 -30   -3.64   20.04
  -3  -6  30  -38.72   17.40
  -3  -6  30    2.85   11.40
   4   6 -30   66.71   44.21
   4   6 -30   24.84   34.42
  -4  -6  30  123.71   42.05
  -4  -6  30   12.06   32.30
   5   6 -30  -20.90   18.64
   5   6 -30    0.95   11.66
  -5  -6  30   -3.31   17.15
  -5  -6  30    5.32   11.49
   6   6 -30   -1.36   17.80
   6   6 -30   -4.04   12.23
  -6  -6  30  -10.39   17.22
  -6  -6  30    1.13   11.51
   7   6 -30  -26.01   13.86
   7   6 -30  -31.14   19.81
  -7  -6  30   -3.63   17.91
  -7  -6  30   18.07   12.06
   7   5 -30   -4.23   19.47
   7   5 -30    8.39   13.24
  -7  -5  30   29.01   17.64
  -7  -5  30    1.19   12.44
   7   4 -30    7.05   19.44
   7   4 -30   -1.04   13.14
  -7  -4  30   28.86   16.99
   7   3 -30  -67.11   17.01
   0   7 -30  -13.83   10.70
   0   7 -30   26.10   18.36
   1   7 -30   -6.43   10.77
  -1  -7  30    5.56   15.62
  -1  -7  30  -25.98   10.46
   2   7 -30  200.01   72.06
   2   7 -30   70.71   62.12
  -2  -7  30  282.54   68.72
  -2  -7  30   45.90   59.12
   3   7 -30  -14.62   21.46
   3   7 -30  -17.68   13.43
  -3  -7  30  -11.65   13.51
   4   7 -30   -3.73   11.30
   4   7 -30  -11.36   17.55
  -4  -7  30  -12.69   15.79
  -4  -7  30  -27.73   11.25
   5   7 -30   -7.89   11.83
   5   7 -30    9.17   18.34
  -5  -7  30    7.62   11.73
  -5  -7  30    8.27   16.54
   6   7 -30    9.45   11.85
   6   7 -30    1.36   18.42
  -6  -7  30   -2.59   17.32
  -6  -7  30    1.15   12.08
   7   7 -30  -17.92   13.44
   7   7 -30  -14.26   19.32
  -7  -7  30    8.60   12.68
  -7  -7  30    5.43   17.97
   8   6 -30    4.67   13.98
   8   6 -30   -7.40   20.34
  -8  -6  30    5.15   12.95
  -8  -6  30  -11.42   19.81
   8   5 -30   -7.94   13.40
   8   5 -30   39.68   20.06
  -8  -5  30   -4.75   18.96
  -8  -5  30   11.50   13.90
   8   4 -30    7.93   13.47
   8   4 -30   14.65   19.32
  -8  -4  30    4.73   17.54
   1   8 -30   -1.13   16.90
   1   8 -30    5.40   10.63
  -1  -8  30    0.89    8.71
  -1  -8  30    2.80   14.39
   2   8 -30   14.08   11.28
   2   8 -30  -28.13   17.46
  -2  -8  30   -0.94   10.04
  -2  -8  30  -29.99   15.44
   3   8 -30   15.77   17.52
   3   8 -30  -34.37   13.51
  -3  -8  30   45.65   16.89
  -3  -8  30   14.95   10.53
   4   8 -30    3.09   13.01
   4   8 -30   -1.26   17.74
  -4  -8  30    5.53   16.74
  -4  -8  30    9.49   10.77
   5   8 -30  -22.81   13.10
   5   8 -30    1.31   17.74
  -5  -8  30    1.12   11.44
  -5  -8  30   23.04   16.85
   6   8 -30   16.35   20.49
   6   8 -30   35.64   15.20
  -6  -8  30    1.18   13.75
  -6  -8  30   31.81   19.35
   9   4 -30   -7.62   20.93
  -9  -4  30    0.99   17.63
   1   9 -30  -16.26   11.08
   1   9 -30    3.39   16.56
  -1  -9  30    5.62   14.90
  -1  -9  30   -4.63    8.93
   2   9 -30   18.97   12.24
   2   9 -30  -29.20   16.68
  -2  -9  30    5.90   10.13
  -2  -9  30   29.84   16.14
   3   9 -30   -1.21   17.79
   3   9 -30  -10.41   12.77
  -3  -9  30   -3.13   10.93
  -3  -9  30   41.45   16.16
   4   9 -30   -9.81   12.16
   4   9 -30   -3.76   17.77
  -4  -9  30   -3.31   10.60
  -4  -9  30   -3.91   16.31
   5   9 -30   -5.72   14.05
   5   9 -30    1.30   18.21
  -5  -9  30   -6.50   16.33
  -5  -9  30   -7.01   12.23
   1  10 -30   -6.72   16.73
   1  10 -30  -23.21   12.36
  -1 -10  30   13.55    9.71
  -1 -10  30   -6.96   15.07
   2  10 -30   -3.30   12.51
   2  10 -30  -16.19   17.10
  -2 -10  30   33.09   15.61
  -2 -10  30   -5.16    9.97
   3  10 -30   20.32   18.46
   3  10 -30    2.30   13.29
  -3 -10  30   24.54   16.42
  -3 -10  30  -18.61   10.71
   4  10 -30   -5.99   14.01
   4  10 -30   43.43   18.66
  -4 -10  30    6.17   16.27
  -4 -10  30  -20.90   11.00
   1  11 -30  -13.51   12.13
   1  11 -30  -14.53   17.23
   2  11 -30    1.18   13.53
   2  11 -30   -3.46   16.75
  -2 -11  30   -5.47   11.13
  -2 -11  30   21.82   15.52
   3  11 -30  -13.14   16.86
   3  11 -30    1.23   11.88
  -3 -11  30    1.46   15.53
  -2 -12  30   11.24   15.89
   0   4 -31    5.16    7.82
   1   4 -31   -4.85    8.71
   2   4 -31   -2.23    9.13
  -2  -4  31   -9.25   13.01
   3   4 -31   -9.63   11.77
  -3  -4  31  -33.00   15.78
   4   4 -31   97.03   39.19
  -4  -4  31   70.64   45.21
   5   4 -31  -21.54   12.56
  -5  -4  31  -21.09   16.21
   0   5 -31  -10.22    8.81
   0  -5  31  -11.04   13.43
   1   5 -31  -10.13    9.73
   1   5 -31   -6.05   18.37
  -1  -5  31  -23.19   13.70
   2   5 -31    0.77   15.44
   2   5 -31   93.01   24.57
  -2  -5  31   27.39   19.66
   3   5 -31  -13.04   20.45
   3   5 -31   32.95   13.68
  -3  -5  31   27.92   18.75
   4   5 -31   -2.70   19.16
   4   5 -31   -8.84   11.47
  -4  -5  31  -17.58   16.85
   5   5 -31   16.79   18.31
   5   5 -31   -3.80   11.86
  -5  -5  31   18.40   16.48
   6   5 -31   11.27   12.44
   6   5 -31  -11.62   21.31
  -6  -5  31   14.67   17.14
   6   4 -31  -11.16   12.27
  -6  -4  31    3.68   15.91
   0   6 -31  -24.26   17.32
   0   6 -31    7.41    9.31
   1   6 -31  -10.16   10.85
   1   6 -31  -21.65   18.89
  -1  -6  31   -5.31   10.59
  -1  -6  31  -28.42   15.50
   2   6 -31   -4.13   10.13
   2   6 -31   -3.75   18.09
  -2  -6  31    9.21   14.69
  -2  -6  31    5.64   10.22
   3   6 -31   -8.76   10.66
   3   6 -31   14.27   17.68
  -3  -6  31   13.69   15.04
  -3  -6  31   -3.99   10.21
   4   6 -31   -6.73   19.62
   4   6 -31   27.01   12.63
  -4  -6  31   -2.12   12.09
  -4  -6  31   33.69   17.19
   5   6 -31   20.90   12.73
   5   6 -31  -46.05   20.05
  -5  -6  31   11.23   12.22
  -5  -6  31   22.02   17.45
   6   6 -31    1.07   12.78
   6   6 -31  -18.85   20.40
  -6  -6  31   -1.19   12.63
  -6  -6  31   -6.45   18.93
   7   6 -31    7.57   21.50
  -7  -6  31  -20.25   20.89
   7   5 -31   -3.02   19.43
   7   5 -31   -5.54   12.89
  -7  -5  31   16.32   17.74
  -7  -5  31    3.78   13.26
   7   4 -31   -1.10   12.86
  -7  -4  31   10.58   17.29
   1   7 -31   -6.01   18.79
   1   7 -31   41.04   11.81
  -1  -7  31   -8.08   17.15
  -1  -7  31   10.93   10.59
   2   7 -31    7.03   10.42
   2   7 -31    1.25   18.50
  -2  -7  31    8.70   10.50
  -2  -7  31    7.71   15.74
   3   7 -31   -8.34   11.87
   3   7 -31    5.21   18.24
  -3  -7  31   -5.12   11.32
  -3  -7  31  -16.11   17.34
   4   7 -31  -12.74   12.17
   4   7 -31  -21.61   20.07
  -4  -7  31    1.08   11.20
  -4  -7  31   26.06   16.99
   5   7 -31   -7.01   18.94
   5   7 -31    3.12   12.32
  -5  -7  31   -3.45   11.71
  -5  -7  31   13.16   17.01
   6   7 -31   24.81   21.54
   6   7 -31  -19.95   13.34
  -6  -7  31  -54.07   20.96
  -8  -4  31  -14.12   17.54
   1   8 -31    8.46   18.13
   1   8 -31   -7.52   10.38
  -1  -8  31   14.82   15.59
  -1  -8  31  -12.15    9.77
   2   8 -31    1.97   11.38
   2   8 -31   -1.25   18.43
  -2  -8  31  -21.65   16.88
  -2  -8  31   -2.98    9.97
   3   8 -31  -27.23   19.57
   3   8 -31   20.63   12.46
  -3  -8  31    7.37   11.06
  -3  -8  31   20.14   17.13
   4   8 -31  -12.09   18.90
   4   8 -31    5.43   12.61
  -4  -8  31    5.57   11.79
  -4  -8  31   -4.19   16.81
   5   8 -31  -57.19   21.78
  -5  -8  31  -12.22   18.71
  -5  -8  31    7.09   13.15
   1   9 -31   -1.00   11.52
   1   9 -31  -34.87   18.83
  -1  -9  31    3.90    9.45
  -1  -9  31    6.70   16.02
   2   9 -31    1.05   11.61
   2   9 -31  -14.93   18.58
  -2  -9  31    0.77   16.10
  -2  -9  31   -3.12   10.13
   3   9 -31    1.10   12.25
   3   9 -31  -14.15   18.55
  -3  -9  31   -1.61   16.68
  -3  -9  31    7.72   10.95
   4   9 -31   -5.33   19.88
  -4  -9  31    8.17   12.04
  -4  -9  31  -36.67   17.51
   1  10 -31    1.11   12.85
   2  10 -31   16.18   13.87
   2  10 -31    3.72   18.76
  -2 -10  31   19.93   16.54
  -2 -10  31   -6.54   11.27
   3  10 -31   14.10   19.76
   3  10 -31    1.21   11.82
  -3 -10  31   22.97   17.58
   2  11 -31  -29.39   22.17
  -2 -11  31  -28.10   20.04
   0   4 -32    8.62    9.16
   1   4 -32   -5.00    8.75
   2   4 -32   -1.54    9.12
   3   4 -32   15.00   11.71
   4   4 -32   11.74   11.85
   5   4 -32   -5.88   11.95
  -5  -4  32   11.24   15.50
   0   5 -32   -0.70    8.13
   1   5 -32   -5.24   10.24
  -1  -5  32   26.95   14.26
   2   5 -32   -1.60   10.36
  -2  -5  32   -6.47   14.57
   3   5 -32    6.86   10.06
   3   5 -32  -30.56   17.36
  -3  -5  32    8.48   15.04
   4   5 -32   14.42   18.63
   4   5 -32    2.77   10.96
  -4  -5  32  -13.31   15.72
   5   5 -32   26.94   24.22
   5   5 -32    8.97   16.97
  -5  -5  32   53.89   22.35
   6   5 -32  -24.88   19.81
   6   5 -32  -25.89   13.10
  -6  -5  32   24.31   18.47
   6   4 -32   30.89   17.90
  -6  -4  32   33.31   20.96
   1   6 -32    3.85   17.33
   1   6 -32   -1.62   10.17
  -1  -6  32   -0.92   10.58
  -1  -6  32  -26.84   14.11
   2   6 -32  -11.15   10.67
   2   6 -32    1.34   17.60
  -2  -6  32    5.90    9.92
  -2  -6  32   -0.81   14.76
   3   6 -32    8.31   18.97
   3   6 -32  -17.35   11.81
  -3  -6  32  -11.49   11.51
  -3  -6  32  -23.85   15.99
   4   6 -32   13.66   15.10
   4   6 -32    5.75   22.57
  -4  -6  32   22.20   15.13
  -4  -6  32   33.02   20.27
   5   6 -32   -9.40   13.07
   5   6 -32  -16.42   21.46
  -5  -6  32  -29.88   17.90
  -5  -6  32   -4.72   13.44
   1   7 -32   -6.39   17.30
   1   7 -32   13.05   10.75
  -1  -7  32   -1.91    9.65
  -1  -7  32   14.77   15.12
   2   7 -32    0.92   10.71
   2   7 -32   -9.32   18.45
  -2  -7  32   25.35   10.50
  -2  -7  32  -11.45   15.86
   3   7 -32    4.84   12.19
   3   7 -32   46.99   20.33
  -3  -7  32   11.12   16.92
  -3  -7  32  -16.15   11.72
   4   7 -32   17.21   20.78
   4   7 -32  -21.58   13.43
  -4  -7  32   -0.89   17.67
  -4  -7  32   -3.43   11.71
   5   7 -32   40.21   20.96
  -5  -7  32  -44.74   20.59
   1   8 -32   -0.98   11.25
   1   8 -32  -11.57   18.93
  -1  -8  32   -5.89   10.01
   2   8 -32   -3.08   12.60
   2   8 -32  -10.69   19.80
  -2  -8  32  -24.58   18.08
  -2  -8  32  -23.00   11.13
   3   8 -32   -8.64   12.00
   3   8 -32   13.84   20.30
  -3  -8  32    4.27   16.53
  -3  -8  32   -5.55   10.46
   4   8 -32   -4.31   21.37
  -4  -8  32    1.18    9.57
  -4  -8  32  -14.24   19.10
   1   9 -32    1.05   11.77
   2   9 -32  -23.89   20.16
   2   9 -32    7.66   12.30
  -2  -9  32    5.48   10.95
  -2  -9  32   21.32   17.47
   3   9 -32    9.62   20.51
  -3  -9  32  -25.57   18.50
  -3  -9  32    2.33    9.59
   2  10 -32  -15.80   21.30
  -2 -10  32   -9.80   19.07
   1   4 -33   -9.55    9.00
   2   4 -33    4.77    9.55
   3   4 -33   -0.86   10.72
   4   4 -33  -11.27   11.63
   1   5 -33    0.77    9.14
   2   5 -33   -3.31   10.51
  -2  -5  33   -0.86   15.72
   3   5 -33    6.24   11.29
  -3  -5  33    5.41   16.17
   4   5 -33   23.12   13.83
  -4  -5  33    8.51   18.58
   5   5 -33  -36.71   19.21
  -5  -5  33   17.81   17.87
   1   6 -33   21.74   10.23
   1   6 -33  -30.00   18.10
  -1  -6  33   -8.65    9.49
  -1  -6  33   -2.43   15.07
   2   6 -33   -4.45   11.52
   2   6 -33    1.42   19.22
  -2  -6  33  -14.53   15.83
  -2  -6  33  -11.27   10.53
   3   6 -33   13.33   20.54
   3   6 -33    5.71   11.98
  -3  -6  33  -14.19   12.59
  -3  -6  33   25.14   16.75
   4   6 -33  -12.23   11.73
   4   6 -33   36.93   21.28
  -4  -6  33    0.94   17.33
   1   7 -33   23.14   20.51
   1   7 -33   15.31   13.40
   2   7 -33    7.09   19.06
   2   7 -33   -3.81   11.04
  -2  -7  33  -24.40   10.07
  -2  -7  33   18.14   16.52
   3   7 -33  -22.12   21.35
  -3  -7  33    6.77   11.96
  -3  -7  33   21.75   18.20
   2   8 -33  -16.99   19.82
   2   8 -33    5.35   12.11
  -2  -8  33   -1.73   16.84
  -2  -8  33    9.87   11.40
   1   5 -34   -2.38    9.68
   2   5 -34   -5.99   10.87
   1   6 -34    7.75   10.53
   2   6 -34  -10.58   19.86
   2   6 -34   18.41   11.44
  -2  -6  34   -1.07   11.47
  -2  -6  34    1.81   17.09
  -3  -6  34  -23.81   20.41
   2   7 -34   24.18   21.22
  -2  -7  34   -4.43   10.55
  -2  -7  34  -15.47   17.08
   1   5 -35   17.92   12.58
   0   0   0    0.00    0.00
;
_shelx_hkl_checksum              90623
_shelx_fab_checksum              85680
_shelx_fab_file
;
    0    2    0   -243.69      0.00
    1    2    0    309.08      0.00
    1    3    0     -2.48      0.00
    2    3    0    181.14      0.00
    0    4    0     35.15      0.00
    1    4    0     74.14      0.00
    2    4    0     33.29      0.00
    1    5    0    -58.52      0.00
    2    5    0     -2.90      0.00
    3    5    0     -7.12      0.00
    0    6    0     12.46      0.00
    1    6    0    -49.78      0.00
    2    6    0     30.50      0.00
    3    6    0     26.95      0.00
    1    7    0     14.93      0.00
    2    7    0    -14.31      0.00
    3    7    0     53.93      0.00
    4    7    0     16.12      0.00
    0    8    0     11.02      0.00
    1    8    0    -16.37      0.00
    2    8    0    -15.56      0.00
    3    8    0      2.83      0.00
    4    8    0    -13.31      0.00
    1    9    0     15.35      0.00
    2    9    0    -10.41      0.00
    3    9    0     -8.56      0.00
    4    9    0     18.77      0.00
    5    9    0     19.00      0.00
    0   10    0    -19.72      0.00
    1   10    0      6.08      0.00
    2   10    0      8.34      0.00
    3   10    0     -4.29      0.00
    4   10    0     -5.13      0.00
    5   10    0    -17.23      0.00
    1   11    0    -12.56      0.00
    2   11    0      5.26      0.00
    3   11    0     28.19      0.00
    4   11    0    -11.32      0.00
    5   11    0    -11.65      0.00
    0   12    0      9.26      0.00
    1   12    0    -33.90      0.00
    2   12    0    -15.86      0.00
    3   12    0     -2.19      0.00
    4   12    0     -2.15      0.00
    5   12    0     -6.63      0.00
    6   12    0      5.43      0.00
    1   13    0     12.12      0.00
    2   13    0     20.78      0.00
    3   13    0      0.74      0.00
    4   13    0     -8.32      0.00
    5   13    0    -13.11      0.00
    2   14    0     -4.85      0.00
    3   14    0     28.27      0.00
    4   14    0    -10.63      0.00
    5   14    0     -4.95      0.00
    6   14    0     42.38      0.00
    1   15    0     -2.25      0.00
    2   15    0    -13.87      0.00
    3   15    0     14.53      0.00
    4   15    0      4.80      0.00
    5   15    0     -5.42      0.00
    6   15    0     28.27      0.00
    0   16    0      7.05      0.00
    1   16    0     20.51      0.00
    2   16    0     -4.54      0.00
    3   16    0      3.47      0.00
    4   16    0    -11.28      0.00
    5   16    0      9.34      0.00
    6   16    0    -30.05      0.00
    1   17    0      6.51      0.00
    2   17    0    -27.62      0.00
    3   17    0     32.65      0.00
    4   17    0    -34.36      0.00
    5   17    0     30.30      0.00
    6   17    0    -11.63      0.00
    0   18    0     10.29      0.00
    1   18    0     -0.69      0.00
    2   18    0     24.99      0.00
    3   18    0     14.08      0.00
    4   18    0      2.39      0.00
    5   18    0     -8.77      0.00
    6   18    0      1.00      0.00
    1   19    0     23.97      0.00
    2   19    0    -27.39      0.00
    3   19    0     -3.48      0.00
    4   19    0     25.88      0.00
    5   19    0    -24.69      0.00
    6   19    0     13.19      0.00
    0   20    0     19.06      0.00
    1   20    0     -6.04      0.00
    2   20    0     -7.39      0.00
    3   20    0    -17.50      0.00
    4   20    0     24.38      0.00
    5   20    0      5.81      0.00
    6   20    0     -7.73      0.00
    1   21    0    -13.69      0.00
    2   21    0      7.34      0.00
    3   21    0    -14.41      0.00
    1    2    1     53.32      0.00
    0    3    1    -82.47      0.00
    1    3    1    148.74      0.00
    2    3    1     46.36      0.00
    1    4    1     29.48      0.00
    2    4    1     32.09      0.00
    3    4    1     -0.03      0.00
    0    5    1     10.04      0.00
    1    5    1    -42.22      0.00
    2    5    1     53.92      0.00
    3    5    1     13.70      0.00
    1    6    1      0.25      0.00
    2    6    1    -41.02      0.00
    3    6    1     12.83      0.00
    4    6    1      6.50      0.00
    0    7    1    -38.77      0.00
    1    7    1    -15.68      0.00
    2    7    1      4.27      0.00
    3    7    1     24.31      0.00
    4    7    1     12.42      0.00
    1    8    1     -7.25      0.00
    2    8    1      5.87      0.00
    3    8    1    -24.51      0.00
    4    8    1     -6.58      0.00
    5    8    1     41.18      0.00
    0    9    1      2.05      0.00
    1    9    1     16.67      0.00
    2    9    1      4.31      0.00
    3    9    1     -0.81      0.00
    4    9    1     -7.13      0.00
    5    9    1      1.11      0.00
    1   10    1     16.90      0.00
    2   10    1     -1.88      0.00
    3   10    1     10.09      0.00
    4   10    1      3.23      0.00
    5   10    1    -10.33      0.00
    0   11    1     -7.18      0.00
    1   11    1      9.52      0.00
    2   11    1    -11.18      0.00
    3   11    1     -6.16      0.00
    4   11    1     12.99      0.00
    5   11    1     10.75      0.00
    6   11    1      2.11      0.00
    1   12    1     24.80      0.00
    2   12    1     11.44      0.00
    3   12    1     -6.58      0.00
    4   12    1      1.52      0.00
    5   12    1     -1.95      0.00
    6   12    1    -14.49      0.00
    0   13    1      8.28      0.00
    1   13    1     12.04      0.00
    2   13    1      6.26      0.00
    3   13    1    -28.88      0.00
    4   13    1    -16.95      0.00
    5   13    1    -14.57      0.00
    6   13    1     54.98      0.00
    2   14    1     -3.41      0.00
    3   14    1     40.24      0.00
    4   14    1     24.41      0.00
    5   14    1    -19.49      0.00
    6   14    1     38.42      0.00
    0   15    1     43.75      0.00
    1   15    1      7.50      0.00
    2   15    1     -1.81      0.00
    3   15    1      5.59      0.00
    4   15    1     -2.00      0.00
    5   15    1    -37.13      0.00
    6   15    1     40.85      0.00
    1   16    1      0.20      0.00
    2   16    1     -5.95      0.00
    3   16    1    -16.28      0.00
    4   16    1    -13.64      0.00
    5   16    1      3.65      0.00
    6   16    1      8.47      0.00
    0   17    1     -6.02      0.00
    1   17    1      0.34      0.00
    2   17    1    -32.23      0.00
    3   17    1     44.85      0.00
    4   17    1    -15.58      0.00
    5   17    1     -5.65      0.00
    6   17    1    -32.49      0.00
    1   18    1    -17.39      0.00
    2   18    1      8.55      0.00
    3   18    1     -0.87      0.00
    4   18    1     -3.50      0.00
    5   18    1    -18.48      0.00
    6   18    1      5.46      0.00
    0   19    1     -1.80      0.00
    1   19    1     -7.28      0.00
    2   19    1    -11.32      0.00
    3   19    1    -19.04      0.00
    4   19    1     31.54      0.00
    5   19    1     -5.17      0.00
    6   19    1      8.73      0.00
    1   20    1     -9.61      0.00
    2   20    1    -10.81      0.00
    3   20    1     -2.19      0.00
    4   20    1     39.11      0.00
    5   20    1     26.20      0.00
    6   20    1    -55.60      0.00
    0   21    1     -8.28      0.00
    1   21    1     35.29      0.00
    2   21    1     42.50      0.00
    3   21    1      2.71      0.00
    4   21    1    -27.02      0.00
    1    1    2   -453.23      0.00
    0    2    2     47.60      0.00
    1    2    2   -132.22      0.00
    2    2    2     53.74      0.00
    1    3    2     12.46      0.00
    2    3    2    -33.75      0.00
    3    3    2    -80.87      0.00
    0    4    2     -1.51      0.00
    1    4    2     36.11      0.00
    2    4    2    -26.91      0.00
    3    4    2    -20.65      0.00
    1    5    2     19.01      0.00
    2    5    2    -29.31      0.00
    3    5    2    -22.93      0.00
    4    5    2    -28.04      0.00
    0    6    2    -37.07      0.00
    1    6    2    -31.54      0.00
    2    6    2     25.53      0.00
    3    6    2      4.23      0.00
    4    6    2      5.96      0.00
    1    7    2     -2.19      0.00
    2    7    2      6.28      0.00
    3    7    2      2.23      0.00
    4    7    2      0.97      0.00
    5    7    2    -31.47      0.00
    0    8    2     -6.54      0.00
    1    8    2     -0.10      0.00
    2    8    2    -23.30      0.00
    3    8    2    -15.82      0.00
    4    8    2    -14.54      0.00
    5    8    2      3.80      0.00
    1    9    2    -15.29      0.00
    2    9    2     -4.85      0.00
    3    9    2     10.58      0.00
    4    9    2     -8.59      0.00
    5    9    2      9.53      0.00
    0   10    2    -20.54      0.00
    1   10    2     14.51      0.00
    2   10    2     -1.35      0.00
    3   10    2      9.48      0.00
    4   10    2      9.79      0.00
    5   10    2    -10.39      0.00
    6   10    2     20.99      0.00
    1   11    2     -5.37      0.00
    2   11    2     -4.92      0.00
    3   11    2     -3.07      0.00
    4   11    2      6.99      0.00
    5   11    2    -10.96      0.00
    6   11    2      0.79      0.00
    0   12    2     30.87      0.00
    1   12    2    -27.71      0.00
    2   12    2    -32.83      0.00
    3   12    2     -2.03      0.00
    4   12    2     11.65      0.00
    5   12    2     14.79      0.00
    6   12    2    -12.71      0.00
    1   13    2      1.29      0.00
    2   13    2      1.34      0.00
    3   13    2     13.25      0.00
    4   13    2     14.05      0.00
    5   13    2    -42.90      0.00
    6   13    2    -13.36      0.00
    1   14    2     13.22      0.00
    2   14    2    -22.79      0.00
    3   14    2    -16.14      0.00
    4   14    2    -15.57      0.00
    5   14    2      3.94      0.00
    6   14    2    -22.85      0.00
    7   14    2    -14.47      0.00
    1   15    2     -8.00      0.00
    2   15    2    -19.42      0.00
    3   15    2     17.95      0.00
    4   15    2    -18.64      0.00
    5   15    2    -17.25      0.00
    6   15    2     14.87      0.00
    7   15    2     30.00      0.00
    0   16    2     -4.81      0.00
    1   16    2     14.36      0.00
    2   16    2     -8.48      0.00
    3   16    2      5.70      0.00
    4   16    2     -4.28      0.00
    5   16    2     23.32      0.00
    6   16    2      3.66      0.00
    7   16    2    -32.51      0.00
    1   17    2     -0.52      0.00
    2   17    2     -1.13      0.00
    3   17    2     57.67      0.00
    4   17    2      8.10      0.00
    5   17    2     -8.76      0.00
    6   17    2     -8.67      0.00
    7   17    2     35.08      0.00
    0   18    2     30.41      0.00
    1   18    2     16.30      0.00
    2   18    2     32.40      0.00
    3   18    2     -3.32      0.00
    4   18    2     -1.74      0.00
    5   18    2    -31.05      0.00
    6   18    2    -17.18      0.00
    7   18    2     38.81      0.00
    1   19    2      3.08      0.00
    2   19    2    -20.33      0.00
    3   19    2    -48.38      0.00
    4   19    2     -6.53      0.00
    5   19    2    -11.41      0.00
    6   19    2      7.58      0.00
    7   19    2    -40.27      0.00
    0   20    2     21.12      0.00
    1   20    2     -8.10      0.00
    2   20    2    -32.15      0.00
    3   20    2      0.42      0.00
    4   20    2     -5.29      0.00
    5   20    2      0.47      0.00
    6   20    2      9.43      0.00
    1   21    2    -13.10      0.00
    2   21    2      7.02      0.00
    3   21    2    -24.69      0.00
    4   21    2    -31.49      0.00
    5   21    2     -2.41      0.00
    0    1    3     42.00      0.00
    1    2    3   -115.21      0.00
    0    3    3    141.19      0.00
    1    3    3    -94.76      0.00
    2    3    3    -12.60      0.00
    1    4    3    -33.23      0.00
    2    4    3    -21.39      0.00
    3    4    3    -31.76      0.00
    0    5    3     -4.88      0.00
    1    5    3     21.72      0.00
    2    5    3   -101.61      0.00
    3    5    3    -11.42      0.00
    4    5    3     20.43      0.00
    1    6    3     -7.69      0.00
    2    6    3      2.70      0.00
    3    6    3     -6.32      0.00
    4    6    3     -1.07      0.00
    0    7    3     25.18      0.00
    1    7    3     12.45      0.00
    2    7    3      0.56      0.00
    3    7    3      2.57      0.00
    4    7    3     13.06      0.00
    5    7    3     -2.68      0.00
    1    8    3    -14.05      0.00
    2    8    3      2.57      0.00
    3    8    3    -21.96      0.00
    4    8    3     -4.87      0.00
    5    8    3     -1.25      0.00
    0    9    3     36.82      0.00
    1    9    3    -11.94      0.00
    2    9    3      3.70      0.00
    3    9    3      2.89      0.00
    4    9    3     -6.97      0.00
    5    9    3    -13.19      0.00
    6    9    3    -14.24      0.00
    1   10    3     14.79      0.00
    2   10    3      9.67      0.00
    3   10    3      3.95      0.00
    4   10    3     -6.14      0.00
    5   10    3     11.97      0.00
    6   10    3    -18.62      0.00
    0   11    3    -11.10      0.00
    1   11    3      0.81      0.00
    2   11    3     -5.61      0.00
    3   11    3      6.81      0.00
    4   11    3    -21.42      0.00
    5   11    3    -14.22      0.00
    6   11    3     -8.31      0.00
    1   12    3      1.20      0.00
    2   12    3     -8.04      0.00
    3   12    3    -11.47      0.00
    4   12    3     -7.81      0.00
    5   12    3     -9.36      0.00
    6   12    3     22.59      0.00
    7   12    3     -0.67      0.00
    0   13    3     16.19      0.00
    1   13    3      9.64      0.00
    2   13    3     -1.64      0.00
    3   13    3     13.57      0.00
    4   13    3     11.55      0.00
    5   13    3    -11.92      0.00
    6   13    3     40.93      0.00
    7   13    3     30.50      0.00
    1   14    3     14.56      0.00
    2   14    3     18.13      0.00
    3   14    3     11.31      0.00
    4   14    3      2.32      0.00
    5   14    3     21.27      0.00
    6   14    3     25.90      0.00
    7   14    3    -21.29      0.00
    0   15    3    -14.25      0.00
    1   15    3     -5.28      0.00
    2   15    3     17.00      0.00
    3   15    3    -13.24      0.00
    4   15    3    -10.18      0.00
    5   15    3      4.48      0.00
    6   15    3    -11.35      0.00
    7   15    3     -0.37      0.00
    1   16    3     10.05      0.00
    2   16    3     -8.52      0.00
    3   16    3     -7.97      0.00
    4   16    3    -20.02      0.00
    5   16    3     18.24      0.00
    6   16    3     29.41      0.00
    7   16    3     -8.81      0.00
    0   17    3    -14.85      0.00
    1   17    3    -11.54      0.00
    2   17    3      1.19      0.00
    3   17    3      6.17      0.00
    4   17    3    -23.02      0.00
    5   17    3     11.81      0.00
    6   17    3      4.59      0.00
    7   17    3      1.82      0.00
    1   18    3    -20.24      0.00
    2   18    3      5.55      0.00
    3   18    3      9.16      0.00
    4   18    3     14.09      0.00
    5   18    3    -10.69      0.00
    6   18    3     11.01      0.00
    7   18    3     67.53      0.00
    0   19    3      4.98      0.00
    1   19    3    -15.44      0.00
    2   19    3      6.14      0.00
    3   19    3     44.41      0.00
    4   19    3     28.53      0.00
    5   19    3     -1.96      0.00
    6   19    3     -7.53      0.00
    7   19    3     -8.89      0.00
    1   20    3     13.53      0.00
    2   20    3    -19.40      0.00
    3   20    3     36.43      0.00
    4   20    3     17.45      0.00
    5   20    3      2.74      0.00
    6   20    3    -62.29      0.00
    0   21    3     15.81      0.00
    1   21    3     39.53      0.00
    2   21    3     -3.79      0.00
    3   21    3     -9.00      0.00
    4   21    3     11.34      0.00
    5   21    3     18.43      0.00
    0    0    4     19.39      0.00
    1    1    4     86.45      0.00
    0    2    4     73.12      0.00
    1    2    4    -15.02      0.00
    2    2    4     -3.84      0.00
    1    3    4     52.43      0.00
    2    3    4     21.33      0.00
    3    3    4    -48.45      0.00
    0    4    4    -95.41      0.00
    1    4    4    -45.85      0.00
    2    4    4     17.68      0.00
    3    4    4      9.72      0.00
    1    5    4    -16.79      0.00
    2    5    4     -9.30      0.00
    3    5    4     25.10      0.00
    4    5    4    -11.80      0.00
    5    5    4     16.62      0.00
    0    6    4     24.55      0.00
    1    6    4     17.65      0.00
    2    6    4     15.22      0.00
    3    6    4     11.84      0.00
    4    6    4      7.08      0.00
    5    6    4    -18.11      0.00
    1    7    4     11.31      0.00
    2    7    4      0.94      0.00
    3    7    4    -28.03      0.00
    4    7    4      0.64      0.00
    5    7    4    -22.10      0.00
    6    7    4     -1.62      0.00
    0    8    4     18.82      0.00
    1    8    4     17.20      0.00
    2    8    4     18.65      0.00
    3    8    4      9.59      0.00
    4    8    4      7.42      0.00
    5    8    4      2.49      0.00
    6    8    4    -16.95      0.00
    1    9    4     13.57      0.00
    2    9    4    -13.05      0.00
    3    9    4      2.32      0.00
    4    9    4      2.43      0.00
    5    9    4     -4.14      0.00
    6    9    4     10.29      0.00
    0   10    4     -3.20      0.00
    1   10    4     -2.12      0.00
    2   10    4     -4.73      0.00
    3   10    4      0.06      0.00
    4   10    4      3.07      0.00
    5   10    4      0.15      0.00
    6   10    4     13.91      0.00
    1   11    4     -6.12      0.00
    2   11    4      7.57      0.00
    3   11    4     -8.30      0.00
    4   11    4      2.01      0.00
    5   11    4     23.91      0.00
    6   11    4    -10.42      0.00
    7   11    4      9.27      0.00
    0   12    4    -23.12      0.00
    1   12    4     31.76      0.00
    2   12    4     11.23      0.00
    3   12    4     -0.47      0.00
    4   12    4      3.62      0.00
    5   12    4     -8.20      0.00
    6   12    4     10.29      0.00
    7   12    4    -32.20      0.00
    1   13    4     -7.59      0.00
    2   13    4      1.07      0.00
    3   13    4      2.49      0.00
    4   13    4     -7.75      0.00
    5   13    4     -5.45      0.00
    6   13    4    -34.71      0.00
    7   13    4    -12.64      0.00
    0   14    4      0.93      0.00
    1   14    4     -5.66      0.00
    2   14    4    -26.91      0.00
    3   14    4    -15.58      0.00
    4   14    4     10.84      0.00
    5   14    4      7.76      0.00
    6   14    4     16.57      0.00
    7   14    4      9.86      0.00
    1   15    4      5.50      0.00
    2   15    4     22.51      0.00
    3   15    4     14.90      0.00
    4   15    4      1.94      0.00
    5   15    4      7.85      0.00
    6   15    4    -10.39      0.00
    7   15    4      7.50      0.00
    0   16    4    -16.37      0.00
    1   16    4    -20.37      0.00
    2   16    4    -16.02      0.00
    3   16    4     18.08      0.00
    4   16    4     -8.56      0.00
    5   16    4     13.88      0.00
    6   16    4     -3.19      0.00
    7   16    4    -12.84      0.00
    1   17    4    -36.94      0.00
    2   17    4     33.92      0.00
    3   17    4      6.07      0.00
    4   17    4    -16.52      0.00
    5   17    4     13.25      0.00
    6   17    4    -17.04      0.00
    7   17    4    -22.37      0.00
    0   18    4     12.88      0.00
    1   18    4    -10.23      0.00
    2   18    4     26.25      0.00
    3   18    4     11.13      0.00
    4   18    4    -13.45      0.00
    5   18    4    -19.58      0.00
    6   18    4      5.82      0.00
    7   18    4     -7.12      0.00
    1   19    4     -4.92      0.00
    2   19    4    -19.73      0.00
    3   19    4    -44.00      0.00
    4   19    4    -18.63      0.00
    5   19    4      8.32      0.00
    6   19    4     25.29      0.00
    7   19    4     -7.66      0.00
    0   20    4     -9.35      0.00
    1   20    4    -18.93      0.00
    2   20    4     20.85      0.00
    3   20    4     -1.03      0.00
    4   20    4      4.73      0.00
    5   20    4     29.80      0.00
    1   21    4    -43.58      0.00
    2   21    4     12.15      0.00
    3   21    4     28.04      0.00
    4   21    4    -31.52      0.00
    0    1    5    -48.75      0.00
    1    2    5     88.87      0.00
    0    3    5     22.51      0.00
    1    3    5    -82.84      0.00
    2    3    5     67.57      0.00
    1    4    5     17.48      0.00
    2    4    5     46.65      0.00
    3    4    5    -21.88      0.00
    0    5    5    -20.69      0.00
    1    5    5     17.79      0.00
    2    5    5     18.89      0.00
    3    5    5      4.51      0.00
    4    5    5     19.28      0.00
    1    6    5     23.87      0.00
    2    6    5      8.74      0.00
    3    6    5     14.75      0.00
    4    6    5     -5.79      0.00
    5    6    5     15.21      0.00
    0    7    5      2.69      0.00
    1    7    5     16.52      0.00
    2    7    5      2.32      0.00
    3    7    5      8.79      0.00
    4    7    5     43.06      0.00
    5    7    5     -1.52      0.00
    6    7    5      2.05      0.00
    1    8    5    -48.00      0.00
    2    8    5     21.07      0.00
    3    8    5    -20.63      0.00
    4    8    5     -6.26      0.00
    5    8    5    -13.02      0.00
    6    8    5     -6.40      0.00
    0    9    5      1.88      0.00
    1    9    5     -5.31      0.00
    2    9    5     19.63      0.00
    3    9    5     -9.47      0.00
    4    9    5    -11.96      0.00
    5    9    5      8.53      0.00
    6    9    5      1.38      0.00
    7    9    5    -11.71      0.00
    1   10    5     -4.29      0.00
    2   10    5    -12.94      0.00
    3   10    5     21.28      0.00
    4   10    5      2.49      0.00
    5   10    5      8.17      0.00
    6   10    5      8.37      0.00
    7   10    5    -10.80      0.00
    0   11    5    -12.09      0.00
    1   11    5     -0.91      0.00
    2   11    5      3.16      0.00
    3   11    5     -1.39      0.00
    4   11    5      9.76      0.00
    5   11    5     -8.51      0.00
    6   11    5     -7.20      0.00
    7   11    5    -12.70      0.00
    1   12    5     17.51      0.00
    2   12    5    -11.69      0.00
    3   12    5     -7.39      0.00
    4   12    5      7.35      0.00
    5   12    5    -12.69      0.00
    6   12    5     12.81      0.00
    7   12    5    -11.94      0.00
    0   13    5      7.20      0.00
    1   13    5    -17.60      0.00
    2   13    5     -3.33      0.00
    3   13    5     12.49      0.00
    4   13    5     21.13      0.00
    5   13    5     11.83      0.00
    6   13    5    -35.54      0.00
    7   13    5      0.60      0.00
    1   14    5    -19.86      0.00
    2   14    5     -1.58      0.00
    3   14    5      3.57      0.00
    4   14    5     19.48      0.00
    5   14    5    -22.02      0.00
    6   14    5     -6.28      0.00
    7   14    5      2.76      0.00
    0   15    5    -20.03      0.00
    1   15    5     -9.68      0.00
    2   15    5     -2.03      0.00
    3   15    5     -6.42      0.00
    4   15    5      6.57      0.00
    5   15    5     -9.13      0.00
    6   15    5    -17.77      0.00
    7   15    5      5.71      0.00
    1   16    5     14.50      0.00
    2   16    5     -8.05      0.00
    3   16    5     -0.76      0.00
    4   16    5    -23.29      0.00
    5   16    5      9.35      0.00
    6   16    5     25.50      0.00
    7   16    5      0.38      0.00
    0   17    5     53.36      0.00
    1   17    5     33.38      0.00
    2   17    5    -10.01      0.00
    3   17    5    -19.85      0.00
    4   17    5     15.94      0.00
    5   17    5     25.44      0.00
    6   17    5    -15.12      0.00
    7   17    5     10.13      0.00
    1   18    5     14.48      0.00
    2   18    5      5.44      0.00
    3   18    5     -5.26      0.00
    4   18    5     -4.64      0.00
    5   18    5     -4.79      0.00
    6   18    5     -1.14      0.00
    7   18    5      9.09      0.00
    0   19    5     73.74      0.00
    1   19    5     15.98      0.00
    2   19    5    -59.36      0.00
    3   19    5     -4.67      0.00
    4   19    5     -3.87      0.00
    5   19    5     24.38      0.00
    6   19    5    -44.98      0.00
    7   19    5     32.13      0.00
    1   20    5      2.39      0.00
    2   20    5      1.70      0.00
    3   20    5      8.41      0.00
    4   20    5     -8.11      0.00
    0   21    5     -2.19      0.00
    1   21    5    -11.90      0.00
    2   21    5     33.15      0.00
    3   21    5      0.51      0.00
    0    0    6   -106.22      0.00
    1    1    6     30.55      0.00
    0    2    6    -85.06      0.00
    1    2    6    -38.12      0.00
    2    2    6    -41.84      0.00
    1    3    6     73.14      0.00
    2    3    6    -34.15      0.00
    3    3    6     23.79      0.00
    0    4    6     77.67      0.00
    1    4    6    -48.10      0.00
    2    4    6     -8.29      0.00
    3    4    6      2.77      0.00
    4    4    6     28.31      0.00
    1    5    6    -21.17      0.00
    2    5    6      1.36      0.00
    3    5    6    -14.18      0.00
    4    5    6    -17.17      0.00
    5    5    6     -5.19      0.00
    0    6    6     36.21      0.00
    1    6    6     -5.45      0.00
    2    6    6    -14.73      0.00
    3    6    6      2.28      0.00
    4    6    6      2.45      0.00
    5    6    6      1.38      0.00
    6    6    6     -3.04      0.00
    1    7    6     11.04      0.00
    2    7    6      8.08      0.00
    3    7    6    -11.88      0.00
    4    7    6      6.66      0.00
    5    7    6     -7.12      0.00
    6    7    6     -6.87      0.00
    7    7    6     -8.25      0.00
    0    8    6     31.87      0.00
    1    8    6     11.42      0.00
    2    8    6      4.54      0.00
    3    8    6      0.62      0.00
    4    8    6      5.89      0.00
    5    8    6      0.03      0.00
    6    8    6      4.39      0.00
    7    8    6     31.44      0.00
    1    9    6     11.59      0.00
    2    9    6     -3.97      0.00
    3    9    6    -13.18      0.00
    4    9    6     -0.38      0.00
    5    9    6    -13.02      0.00
    6    9    6     -1.35      0.00
    7    9    6      5.88      0.00
    0   10    6     -2.91      0.00
    1   10    6     -8.93      0.00
    2   10    6     15.60      0.00
    3   10    6      5.20      0.00
    4   10    6     11.76      0.00
    5   10    6     -6.71      0.00
    6   10    6     -8.63      0.00
    7   10    6     -6.65      0.00
    1   11    6    -13.92      0.00
    2   11    6    -23.19      0.00
    3   11    6      2.35      0.00
    4   11    6      9.20      0.00
    5   11    6     -4.85      0.00
    6   11    6      2.69      0.00
    7   11    6      2.03      0.00
    0   12    6     -7.17      0.00
    1   12    6      3.45      0.00
    2   12    6    -11.31      0.00
    3   12    6      6.39      0.00
    4   12    6     -3.54      0.00
    5   12    6     -2.17      0.00
    6   12    6     17.83      0.00
    7   12    6     15.79      0.00
    8   12    6     27.45      0.00
    1   13    6     25.98      0.00
    2   13    6     16.56      0.00
    3   13    6      4.46      0.00
    4   13    6      6.66      0.00
    5   13    6     14.01      0.00
    6   13    6      1.31      0.00
    7   13    6      1.83      0.00
    0   14    6      5.30      0.00
    1   14    6     -6.47      0.00
    2   14    6     12.59      0.00
    3   14    6     11.21      0.00
    4   14    6    -26.02      0.00
    5   14    6    -27.34      0.00
    6   14    6     11.56      0.00
    7   14    6     29.30      0.00
    8   14    6     30.69      0.00
    1   15    6     33.22      0.00
    2   15    6     12.10      0.00
    3   15    6      5.96      0.00
    4   15    6    -10.78      0.00
    5   15    6    -23.24      0.00
    6   15    6      7.53      0.00
    7   15    6    -12.37      0.00
    8   15    6     32.11      0.00
    0   16    6     16.56      0.00
    1   16    6    -31.95      0.00
    2   16    6    -15.97      0.00
    3   16    6      7.01      0.00
    4   16    6      5.66      0.00
    5   16    6     -0.85      0.00
    6   16    6     27.59      0.00
    7   16    6    -17.01      0.00
    8   16    6     -9.04      0.00
    1   17    6      2.21      0.00
    2   17    6     -8.03      0.00
    3   17    6    -10.00      0.00
    4   17    6     -7.33      0.00
    5   17    6    -10.56      0.00
    6   17    6    -43.66      0.00
    7   17    6     36.31      0.00
    8   17    6     11.03      0.00
    0   18    6    -30.03      0.00
    1   18    6    -13.73      0.00
    2   18    6     28.88      0.00
    3   18    6     -4.18      0.00
    4   18    6    -16.33      0.00
    5   18    6      6.32      0.00
    6   18    6     15.04      0.00
    7   18    6     -4.85      0.00
    1   19    6    -64.67      0.00
    2   19    6    -20.42      0.00
    3   19    6     23.59      0.00
    4   19    6    -15.79      0.00
    5   19    6     15.58      0.00
    6   19    6     -9.52      0.00
    7   19    6      2.46      0.00
    0   20    6     -0.72      0.00
    1   20    6     27.03      0.00
    2   20    6     18.54      0.00
    3   20    6     36.43      0.00
    4   20    6     40.65      0.00
    1   21    6     22.88      0.00
    2   21    6     28.96      0.00
    0    1    7    -31.05      0.00
    1    2    7    -12.68      0.00
    0    3    7     16.55      0.00
    1    3    7    -61.36      0.00
    2    3    7    -73.66      0.00
    1    4    7    -25.92      0.00
    2    4    7      3.42      0.00
    3    4    7    -26.13      0.00
    0    5    7    -89.27      0.00
    1    5    7     23.72      0.00
    2    5    7     -1.90      0.00
    3    5    7     -2.13      0.00
    4    5    7     13.84      0.00
    1    6    7     -2.80      0.00
    2    6    7      5.50      0.00
    3    6    7     -4.20      0.00
    4    6    7      0.45      0.00
    5    6    7      6.90      0.00
    0    7    7     -2.54      0.00
    1    7    7     -0.67      0.00
    2    7    7      1.55      0.00
    3    7    7     -2.51      0.00
    4    7    7    -16.09      0.00
    5    7    7     -3.45      0.00
    6    7    7    -20.02      0.00
    1    8    7     -6.34      0.00
    2    8    7     -4.77      0.00
    3    8    7    -17.48      0.00
    4    8    7      5.61      0.00
    5    8    7     -0.60      0.00
    6    8    7     -7.73      0.00
    7    8    7      1.79      0.00
    0    9    7     -2.83      0.00
    1    9    7    -19.22      0.00
    2    9    7      6.18      0.00
    3    9    7     -4.17      0.00
    4    9    7      4.59      0.00
    5    9    7    -16.16      0.00
    6    9    7    -10.98      0.00
    7    9    7    -10.61      0.00
    8    9    7     -0.17      0.00
    1   10    7     -8.60      0.00
    2   10    7      6.33      0.00
    3   10    7      5.13      0.00
    4   10    7     -0.32      0.00
    5   10    7    -18.78      0.00
    6   10    7    -17.75      0.00
    7   10    7     -9.07      0.00
    8   10    7      8.62      0.00
    0   11    7     -3.09      0.00
    1   11    7     -2.23      0.00
    2   11    7      2.20      0.00
    3   11    7    -11.91      0.00
    4   11    7     -5.93      0.00
    5   11    7     -1.71      0.00
    6   11    7      8.08      0.00
    7   11    7    -18.57      0.00
    8   11    7     39.61      0.00
    1   12    7     -9.97      0.00
    2   12    7     -5.15      0.00
    3   12    7    -13.79      0.00
    4   12    7     13.31      0.00
    5   12    7     13.52      0.00
    6   12    7     11.19      0.00
    7   12    7    -12.48      0.00
    8   12    7     54.51      0.00
    0   13    7      3.72      0.00
    1   13    7     10.01      0.00
    2   13    7     -6.81      0.00
    3   13    7    -33.06      0.00
    4   13    7     30.35      0.00
    5   13    7      2.96      0.00
    6   13    7     -7.86      0.00
    7   13    7      3.22      0.00
    8   13    7    -22.28      0.00
    1   14    7      7.82      0.00
    2   14    7    -10.70      0.00
    3   14    7    -24.03      0.00
    4   14    7      0.50      0.00
    5   14    7     15.08      0.00
    6   14    7    -20.62      0.00
    7   14    7      9.63      0.00
    8   14    7      4.34      0.00
    0   15    7    -14.25      0.00
    1   15    7     -3.12      0.00
    2   15    7     12.30      0.00
    3   15    7      0.69      0.00
    4   15    7    -16.15      0.00
    5   15    7     15.50      0.00
    6   15    7     18.86      0.00
    7   15    7    -13.21      0.00
    8   15    7      5.92      0.00
    1   16    7     -1.48      0.00
    2   16    7     14.96      0.00
    3   16    7    -13.13      0.00
    4   16    7    -11.30      0.00
    5   16    7     -5.85      0.00
    6   16    7     28.70      0.00
    7   16    7    -16.41      0.00
    8   16    7    -24.86      0.00
    0   17    7     -4.83      0.00
    1   17    7    -20.72      0.00
    2   17    7     -4.64      0.00
    3   17    7      2.11      0.00
    4   17    7     10.77      0.00
    5   17    7      0.30      0.00
    6   17    7    -11.35      0.00
    7   17    7     -1.80      0.00
    8   17    7    -16.67      0.00
    1   18    7    -13.57      0.00
    2   18    7    -13.33      0.00
    3   18    7     14.85      0.00
    4   18    7      4.69      0.00
    5   18    7     40.21      0.00
    6   18    7    -12.90      0.00
    7   18    7    -19.21      0.00
    8   18    7    -16.38      0.00
    0   19    7      9.63      0.00
    1   19    7     -7.91      0.00
    2   19    7      4.63      0.00
    3   19    7      7.11      0.00
    4   19    7     26.57      0.00
    5   19    7     29.24      0.00
    6   19    7    -22.30      0.00
    7   19    7     31.18      0.00
    1   20    7      7.11      0.00
    2   20    7     34.08      0.00
    3   20    7     31.17      0.00
    0   21    7    -21.87      0.00
    1   21    7    -14.23      0.00
    2   21    7     18.65      0.00
    0    0    8   -101.64      0.00
    1    1    8     12.21      0.00
    0    2    8    -27.41      0.00
    1    2    8     39.77      0.00
    2    2    8     11.50      0.00
    1    3    8    -12.05      0.00
    2    3    8    -20.46      0.00
    3    3    8    -37.54      0.00
    0    4    8    -35.54      0.00
    1    4    8     11.95      0.00
    2    4    8      4.58      0.00
    3    4    8      1.45      0.00
    4    4    8    -10.51      0.00
    1    5    8     -8.25      0.00
    2    5    8     15.74      0.00
    3    5    8      1.36      0.00
    4    5    8     -0.61      0.00
    5    5    8      6.34      0.00
    0    6    8      8.16      0.00
    1    6    8      5.91      0.00
    2    6    8     14.85      0.00
    3    6    8     -0.98      0.00
    4    6    8     -8.85      0.00
    5    6    8     -8.55      0.00
    6    6    8      6.22      0.00
    1    7    8      6.88      0.00
    2    7    8      4.19      0.00
    3    7    8     -2.96      0.00
    4    7    8      1.28      0.00
    5    7    8     -5.17      0.00
    6    7    8      1.54      0.00
    7    7    8     21.99      0.00
    0    8    8    -11.15      0.00
    1    8    8    -15.29      0.00
    2    8    8     -1.97      0.00
    3    8    8    -17.75      0.00
    4    8    8     13.22      0.00
    5    8    8     21.79      0.00
    6    8    8      9.16      0.00
    7    8    8      3.21      0.00
    8    8    8    -20.76      0.00
    1    9    8     -1.55      0.00
    2    9    8      7.95      0.00
    3    9    8      3.11      0.00
    4    9    8      1.45      0.00
    5    9    8     19.58      0.00
    6    9    8     -0.27      0.00
    7    9    8     -0.06      0.00
    8    9    8     19.60      0.00
    0   10    8    -10.94      0.00
    1   10    8     39.57      0.00
    2   10    8    -16.86      0.00
    3   10    8      3.54      0.00
    4   10    8      2.82      0.00
    5   10    8     -7.66      0.00
    6   10    8    -10.24      0.00
    7   10    8     11.25      0.00
    8   10    8    -11.05      0.00
    1   11    8      0.93      0.00
    2   11    8     -1.89      0.00
    3   11    8     -0.13      0.00
    4   11    8      7.65      0.00
    5   11    8     -8.95      0.00
    6   11    8     10.92      0.00
    7   11    8     22.98      0.00
    8   11    8     23.67      0.00
    0   12    8      4.05      0.00
    1   12    8     -3.94      0.00
    2   12    8      8.00      0.00
    3   12    8     -1.41      0.00
    4   12    8      2.13      0.00
    5   12    8      5.64      0.00
    6   12    8     12.58      0.00
    7   12    8    -32.50      0.00
    8   12    8    -65.30      0.00
    1   13    8      7.38      0.00
    2   13    8     10.44      0.00
    3   13    8     15.01      0.00
    4   13    8      0.85      0.00
    5   13    8    -10.59      0.00
    6   13    8     -6.86      0.00
    7   13    8    -21.13      0.00
    8   13    8    -43.45      0.00
    0   14    8    -52.89      0.00
    1   14    8     -1.33      0.00
    2   14    8    -22.95      0.00
    3   14    8     13.56      0.00
    4   14    8      9.42      0.00
    5   14    8    -19.89      0.00
    6   14    8     23.49      0.00
    7   14    8    -11.33      0.00
    8   14    8     16.81      0.00
    1   15    8      5.16      0.00
    2   15    8     10.97      0.00
    3   15    8     15.42      0.00
    4   15    8     14.01      0.00
    5   15    8     -9.60      0.00
    6   15    8    -10.51      0.00
    7   15    8    -18.54      0.00
    8   15    8    -39.20      0.00
    0   16    8     15.33      0.00
    1   16    8     10.05      0.00
    2   16    8     -9.64      0.00
    3   16    8     -8.71      0.00
    4   16    8      7.82      0.00
    5   16    8      3.79      0.00
    6   16    8     -4.46      0.00
    7   16    8     19.09      0.00
    8   16    8     -8.24      0.00
    1   17    8     20.31      0.00
    2   17    8    -10.42      0.00
    3   17    8      6.12      0.00
    4   17    8    -15.20      0.00
    5   17    8     -9.71      0.00
    6   17    8      1.72      0.00
    7   17    8     -5.71      0.00
    8   17    8     52.94      0.00
    0   18    8     23.75      0.00
    1   18    8     32.58      0.00
    2   18    8     -7.16      0.00
    3   18    8     -2.03      0.00
    4   18    8     -7.41      0.00
    5   18    8     28.16      0.00
    6   18    8     32.43      0.00
    7   18    8      0.04      0.00
    8   18    8      9.16      0.00
    1   19    8    -23.50      0.00
    2   19    8     -9.34      0.00
    3   19    8     -6.31      0.00
    4   19    8    -11.99      0.00
    5   19    8    -21.69      0.00
    6   19    8    -12.36      0.00
    7   19    8    -18.79      0.00
    0   20    8     31.84      0.00
    1   20    8    -11.34      0.00
    2   20    8    -14.32      0.00
    3   20    8     40.04      0.00
    1   21    8     17.89      0.00
    2   21    8     -4.82      0.00
    0    1    9      0.54      0.00
    1    2    9     -7.74      0.00
    0    3    9     58.28      0.00
    1    3    9    -19.40      0.00
    2    3    9     10.49      0.00
    1    4    9      1.85      0.00
    2    4    9      3.92      0.00
    3    4    9     13.25      0.00
    0    5    9    -28.35      0.00
    1    5    9     -5.11      0.00
    2    5    9      9.53      0.00
    3    5    9     -3.43      0.00
    4    5    9      5.96      0.00
    1    6    9      7.47      0.00
    2    6    9     -0.20      0.00
    3    6    9    -14.37      0.00
    4    6    9      2.73      0.00
    5    6    9      5.19      0.00
    0    7    9     15.11      0.00
    1    7    9      8.63      0.00
    2    7    9     16.98      0.00
    3    7    9      1.65      0.00
    4    7    9    -14.83      0.00
    5    7    9     -4.89      0.00
    6    7    9    -23.02      0.00
    1    8    9      5.85      0.00
    2    8    9     -2.04      0.00
    3    8    9     -7.77      0.00
    4    8    9    -12.66      0.00
    5    8    9     -2.07      0.00
    6    8    9     19.45      0.00
    7    8    9      7.09      0.00
    0    9    9    -11.53      0.00
    1    9    9    -14.24      0.00
    2    9    9     -6.72      0.00
    3    9    9     -2.89      0.00
    4    9    9      5.00      0.00
    5    9    9      2.65      0.00
    6    9    9     -1.30      0.00
    7    9    9      0.66      0.00
    8    9    9      7.62      0.00
    1   10    9     14.45      0.00
    2   10    9    -13.50      0.00
    3   10    9      3.44      0.00
    4   10    9     -7.55      0.00
    5   10    9     -5.99      0.00
    6   10    9     -1.63      0.00
    7   10    9     14.32      0.00
    8   10    9    -36.42      0.00
    0   11    9    -13.83      0.00
    1   11    9     13.63      0.00
    2   11    9     -1.37      0.00
    3   11    9     -8.45      0.00
    4   11    9      0.97      0.00
    5   11    9     12.88      0.00
    6   11    9    -12.29      0.00
    7   11    9      6.92      0.00
    8   11    9     30.72      0.00
    1   12    9     10.26      0.00
    2   12    9     10.34      0.00
    3   12    9    -14.32      0.00
    4   12    9     24.84      0.00
    5   12    9      2.84      0.00
    6   12    9     23.05      0.00
    7   12    9    -14.06      0.00
    8   12    9     24.40      0.00
    9   12    9     15.30      0.00
    0   13    9     -2.23      0.00
    1   13    9    -18.67      0.00
    2   13    9     14.60      0.00
    3   13    9      3.88      0.00
    4   13    9    -14.58      0.00
    5   13    9    -33.18      0.00
    6   13    9      2.27      0.00
    7   13    9      6.82      0.00
    8   13    9    -22.15      0.00
    9   13    9    -32.24      0.00
    1   14    9    -11.18      0.00
    2   14    9    -15.94      0.00
    3   14    9      0.27      0.00
    4   14    9     -9.71      0.00
    5   14    9    -20.95      0.00
    6   14    9     17.46      0.00
    7   14    9     16.00      0.00
    8   14    9     17.25      0.00
    9   14    9      0.73      0.00
    0   15    9    -10.17      0.00
    1   15    9      7.91      0.00
    2   15    9    -17.51      0.00
    3   15    9     35.41      0.00
    4   15    9     -5.10      0.00
    5   15    9     27.28      0.00
    6   15    9    -10.67      0.00
    7   15    9     24.41      0.00
    8   15    9     39.16      0.00
    9   15    9     11.52      0.00
    1   16    9     10.74      0.00
    2   16    9     -3.50      0.00
    3   16    9      4.52      0.00
    4   16    9      7.37      0.00
    5   16    9      7.02      0.00
    6   16    9     22.98      0.00
    7   16    9     36.86      0.00
    8   16    9    -19.10      0.00
    0   17    9     -1.36      0.00
    1   17    9     11.97      0.00
    2   17    9    -11.33      0.00
    3   17    9     15.51      0.00
    4   17    9      2.31      0.00
    5   17    9    -24.92      0.00
    6   17    9     19.50      0.00
    7   17    9    -18.73      0.00
    8   17    9      9.96      0.00
    1   18    9     -0.50      0.00
    2   18    9     25.25      0.00
    3   18    9    -14.98      0.00
    4   18    9     -3.03      0.00
    5   18    9    -23.37      0.00
    6   18    9    -27.95      0.00
    7   18    9     -0.26      0.00
    8   18    9     -2.13      0.00
    0   19    9     -7.56      0.00
    1   19    9     -6.89      0.00
    2   19    9     -7.80      0.00
    3   19    9    -15.76      0.00
    4   19    9    -29.22      0.00
    5   19    9      6.15      0.00
    6   19    9    -28.84      0.00
    7   19    9      8.50      0.00
    1   20    9     -8.80      0.00
    2   20    9     -8.98      0.00
    3   20    9     31.27      0.00
    2   21    9    -19.98      0.00
    0    0   10     20.23      0.00
    1    1   10     24.74      0.00
    0    2   10     41.56      0.00
    1    2   10     -5.48      0.00
    2    2   10      6.23      0.00
    1    3   10      3.40      0.00
    2    3   10     -6.35      0.00
    3    3   10     -3.49      0.00
    0    4   10     26.62      0.00
    1    4   10    -11.69      0.00
    2    4   10      7.77      0.00
    3    4   10     10.18      0.00
    4    4   10    -13.35      0.00
    1    5   10      0.35      0.00
    2    5   10      3.76      0.00
    3    5   10     18.21      0.00
    4    5   10     -2.90      0.00
    5    5   10      6.07      0.00
    0    6   10      8.95      0.00
    1    6   10      2.35      0.00
    2    6   10     -7.09      0.00
    3    6   10    -13.87      0.00
    4    6   10     -5.81      0.00
    5    6   10     -3.89      0.00
    6    6   10     -2.14      0.00
    1    7   10      0.57      0.00
    2    7   10      2.95      0.00
    3    7   10      5.87      0.00
    4    7   10      2.65      0.00
    5    7   10     15.63      0.00
    6    7   10     -8.77      0.00
    7    7   10    -19.91      0.00
    0    8   10      6.72      0.00
    1    8   10    -13.91      0.00
    2    8   10     -0.38      0.00
    3    8   10      1.07      0.00
    4    8   10      9.40      0.00
    5    8   10    -19.41      0.00
    6    8   10     -3.10      0.00
    7    8   10    -17.99      0.00
    8    8   10     11.23      0.00
    1    9   10     -8.78      0.00
    2    9   10     14.21      0.00
    3    9   10     -4.40      0.00
    4    9   10     10.23      0.00
    5    9   10     10.90      0.00
    6    9   10     -4.94      0.00
    7    9   10      8.44      0.00
    8    9   10      8.34      0.00
    0   10   10     15.59      0.00
    1   10   10     -3.95      0.00
    2   10   10    -14.40      0.00
    3   10   10      9.81      0.00
    4   10   10     -1.72      0.00
    5   10   10      5.81      0.00
    6   10   10    -19.21      0.00
    7   10   10      4.99      0.00
    8   10   10     11.98      0.00
    9   10   10    -19.39      0.00
    1   11   10     -2.98      0.00
    2   11   10      1.48      0.00
    3   11   10     16.36      0.00
    4   11   10      4.10      0.00
    5   11   10     11.79      0.00
    6   11   10    -12.95      0.00
    7   11   10     15.90      0.00
    8   11   10    -11.26      0.00
    9   11   10    -18.57      0.00
    0   12   10    -10.50      0.00
    1   12   10     -8.30      0.00
    2   12   10     -4.80      0.00
    3   12   10     -2.99      0.00
    4   12   10     -5.66      0.00
    5   12   10     14.26      0.00
    6   12   10      7.66      0.00
    7   12   10    -16.10      0.00
    8   12   10     -2.64      0.00
    9   12   10     17.91      0.00
    1   13   10      7.17      0.00
    2   13   10     15.05      0.00
    3   13   10     18.19      0.00
    4   13   10     -1.48      0.00
    5   13   10     -3.08      0.00
    6   13   10      4.56      0.00
    7   13   10      4.00      0.00
    8   13   10      2.24      0.00
    9   13   10      3.96      0.00
    0   14   10     12.56      0.00
    1   14   10    -12.63      0.00
    2   14   10     12.78      0.00
    3   14   10    -28.15      0.00
    4   14   10      0.70      0.00
    5   14   10      0.18      0.00
    6   14   10    -23.24      0.00
    7   14   10     11.57      0.00
    8   14   10     13.88      0.00
    9   14   10      0.90      0.00
    1   15   10    -11.22      0.00
    2   15   10    -17.55      0.00
    3   15   10     -6.39      0.00
    4   15   10    -10.27      0.00
    5   15   10     11.69      0.00
    6   15   10    -30.11      0.00
    7   15   10    -12.79      0.00
    8   15   10     21.29      0.00
    9   15   10      1.90      0.00
    0   16   10    -10.28      0.00
    1   16   10    -12.50      0.00
    2   16   10     -9.37      0.00
    3   16   10      8.02      0.00
    4   16   10     -2.10      0.00
    5   16   10      9.95      0.00
    6   16   10     -0.07      0.00
    7   16   10      5.60      0.00
    8   16   10    -17.16      0.00
    9   16   10     90.21      0.00
    1   17   10     10.75      0.00
    2   17   10     -0.63      0.00
    3   17   10    -30.25      0.00
    4   17   10      1.34      0.00
    5   17   10     13.74      0.00
    6   17   10     -6.82      0.00
    7   17   10   -129.26      0.00
    8   17   10      1.16      0.00
    9   17   10      5.48      0.00
    0   18   10     27.53      0.00
    1   18   10      8.90      0.00
    2   18   10      4.33      0.00
    3   18   10     -8.83      0.00
    4   18   10      3.47      0.00
    5   18   10     37.67      0.00
    6   18   10     25.77      0.00
    7   18   10    -13.26      0.00
    8   18   10      2.82      0.00
    9   18   10     26.47      0.00
    1   19   10     -9.79      0.00
    2   19   10     -6.39      0.00
    3   19   10     19.58      0.00
    4   19   10    -13.28      0.00
    5   19   10    -18.56      0.00
    6   19   10     17.56      0.00
    0    1   11     -0.40      0.00
    1    2   11     16.31      0.00
    0    3   11    -14.57      0.00
    1    3   11     -1.33      0.00
    2    3   11     -4.22      0.00
    1    4   11    -10.52      0.00
    2    4   11     11.16      0.00
    3    4   11      7.63      0.00
    0    5   11     13.35      0.00
    1    5   11      2.14      0.00
    2    5   11     36.75      0.00
    3    5   11     14.66      0.00
    4    5   11     -3.75      0.00
    1    6   11      6.15      0.00
    2    6   11     -7.94      0.00
    3    6   11      0.62      0.00
    4    6   11      1.67      0.00
    5    6   11     12.37      0.00
    0    7   11    -28.75      0.00
    1    7   11    -13.51      0.00
    2    7   11     -2.09      0.00
    3    7   11      3.42      0.00
    4    7   11     -3.71      0.00
    5    7   11     -0.08      0.00
    6    7   11     -3.03      0.00
    1    8   11      2.43      0.00
    2    8   11     -3.11      0.00
    3    8   11      7.11      0.00
    4    8   11     -9.09      0.00
    5    8   11     12.72      0.00
    6    8   11     -2.75      0.00
    7    8   11      0.53      0.00
    0    9   11     17.00      0.00
    1    9   11      4.23      0.00
    2    9   11      4.27      0.00
    3    9   11     10.81      0.00
    4    9   11      3.93      0.00
    5    9   11     20.18      0.00
    6    9   11     -0.06      0.00
    7    9   11     -3.01      0.00
    8    9   11      7.72      0.00
    1   10   11     17.26      0.00
    2   10   11     -2.14      0.00
    3   10   11    -13.61      0.00
    4   10   11    -13.78      0.00
    5   10   11     -5.27      0.00
    6   10   11     10.60      0.00
    7   10   11     -2.58      0.00
    8   10   11    -14.92      0.00
    9   10   11    -69.79      0.00
    0   11   11      7.42      0.00
    1   11   11     16.32      0.00
    2   11   11     -1.60      0.00
    3   11   11    -14.62      0.00
    4   11   11     21.35      0.00
    5   11   11      5.37      0.00
    6   11   11    -28.16      0.00
    7   11   11    -17.01      0.00
    8   11   11    -11.86      0.00
    9   11   11     35.72      0.00
    1   12   11      4.67      0.00
    2   12   11     -9.07      0.00
    3   12   11     15.87      0.00
    4   12   11     -0.79      0.00
    5   12   11     -7.74      0.00
    6   12   11     -3.03      0.00
    7   12   11     23.42      0.00
    8   12   11     -6.44      0.00
    9   12   11      1.23      0.00
    0   13   11      7.66      0.00
    1   13   11     25.26      0.00
    2   13   11     -1.76      0.00
    3   13   11      5.65      0.00
    4   13   11    -30.60      0.00
    5   13   11     -1.20      0.00
    6   13   11     28.35      0.00
    7   13   11     -5.60      0.00
    8   13   11    -26.97      0.00
    9   13   11     38.73      0.00
    1   14   11     10.25      0.00
    2   14   11    -12.63      0.00
    3   14   11      6.58      0.00
    4   14   11     -0.06      0.00
    5   14   11     -3.51      0.00
    6   14   11     -4.77      0.00
    7   14   11     13.60      0.00
    8   14   11     10.76      0.00
    9   14   11      9.14      0.00
    0   15   11     12.14      0.00
    1   15   11      1.09      0.00
    2   15   11    -12.61      0.00
    3   15   11     31.12      0.00
    4   15   11    -11.72      0.00
    5   15   11     -3.88      0.00
    6   15   11      0.80      0.00
    7   15   11    -24.78      0.00
    8   15   11      4.41      0.00
    9   15   11    -17.25      0.00
    1   16   11     19.29      0.00
    2   16   11    -19.49      0.00
    3   16   11     -6.35      0.00
    4   16   11     -6.72      0.00
    5   16   11      0.93      0.00
    6   16   11     16.43      0.00
    7   16   11      0.36      0.00
    8   16   11    -10.31      0.00
    9   16   11     -4.31      0.00
    0   17   11    -19.32      0.00
    1   17   11     -4.05      0.00
    2   17   11     -8.11      0.00
    3   17   11    -19.29      0.00
    4   17   11     36.69      0.00
    5   17   11    -15.87      0.00
    6   17   11     11.07      0.00
    7   17   11      8.03      0.00
    8   17   11     48.49      0.00
    9   17   11    -33.00      0.00
    1   18   11    -39.33      0.00
    2   18   11     -2.80      0.00
    3   18   11     56.85      0.00
    4   18   11    -16.62      0.00
    5   18   11     24.50      0.00
    6   18   11     15.89      0.00
    7   18   11     -7.23      0.00
    8   18   11    -11.63      0.00
    9   18   11     38.77      0.00
    0   19   11    -12.60      0.00
    1   19   11     19.55      0.00
    2   19   11     -3.27      0.00
    3   19   11     14.25      0.00
    4   19   11      0.09      0.00
    5   19   11     -9.11      0.00
    6   19   11     46.36      0.00
    0    0   12     -0.84      0.00
    1    1   12    -20.91      0.00
    0    2   12      1.62      0.00
    1    2   12    -15.87      0.00
    2    2   12     -2.86      0.00
    1    3   12     -8.77      0.00
    2    3   12      9.12      0.00
    3    3   12      6.68      0.00
    0    4   12    -16.57      0.00
    1    4   12     17.97      0.00
    2    4   12    -14.27      0.00
    3    4   12      5.88      0.00
    4    4   12      3.07      0.00
    1    5   12    -17.14      0.00
    2    5   12     12.46      0.00
    3    5   12     -6.20      0.00
    4    5   12     -8.59      0.00
    5    5   12      0.30      0.00
    0    6   12     -8.93      0.00
    1    6   12     -4.85      0.00
    2    6   12     -1.20      0.00
    3    6   12     -6.37      0.00
    4    6   12      0.73      0.00
    5    6   12     -1.39      0.00
    6    6   12    -15.30      0.00
    1    7   12    -17.71      0.00
    2    7   12     -6.03      0.00
    3    7   12     -1.71      0.00
    4    7   12      3.61      0.00
    5    7   12     -6.14      0.00
    6    7   12     12.23      0.00
    7    7   12     19.81      0.00
    0    8   12      2.89      0.00
    1    8   12     -8.15      0.00
    2    8   12     -6.62      0.00
    3    8   12     20.67      0.00
    4    8   12     -0.74      0.00
    5    8   12     -0.26      0.00
    6    8   12     -8.56      0.00
    7    8   12     21.23      0.00
    8    8   12     -4.62      0.00
    1    9   12     -9.71      0.00
    2    9   12      2.81      0.00
    3    9   12     -7.87      0.00
    4    9   12     14.60      0.00
    5    9   12     12.28      0.00
    6    9   12      9.02      0.00
    7    9   12      5.91      0.00
    8    9   12     14.72      0.00
    9    9   12     18.24      0.00
    0   10   12     14.18      0.00
    1   10   12     -3.24      0.00
    2   10   12      4.43      0.00
    3   10   12    -15.45      0.00
    4   10   12      0.48      0.00
    5   10   12     15.92      0.00
    6   10   12     -0.97      0.00
    7   10   12    -20.93      0.00
    8   10   12      9.95      0.00
    9   10   12      8.18      0.00
   10   10   12     67.76      0.00
    1   11   12     -0.16      0.00
    2   11   12     -3.59      0.00
    3   11   12     -1.03      0.00
    4   11   12    -25.33      0.00
    5   11   12      1.57      0.00
    6   11   12    -18.31      0.00
    7   11   12     23.94      0.00
    8   11   12    -14.14      0.00
    9   11   12    -20.29      0.00
   10   11   12    -26.85      0.00
    0   12   12     -7.48      0.00
    1   12   12     20.01      0.00
    2   12   12    -14.94      0.00
    3   12   12      5.03      0.00
    4   12   12    -22.37      0.00
    5   12   12     -0.99      0.00
    7   12   12    -16.77      0.00
    8   12   12     -1.57      0.00
    9   12   12     15.40      0.00
   10   12   12     -9.30      0.00
    1   13   12    -21.47      0.00
    2   13   12     34.92      0.00
    3   13   12    -17.20      0.00
    4   13   12    -35.97      0.00
    5   13   12     23.47      0.00
    6   13   12    -45.58      0.00
    7   13   12      7.00      0.00
    8   13   12    -15.44      0.00
    9   13   12    -24.67      0.00
   10   13   12     40.50      0.00
    0   14   12     16.11      0.00
    1   14   12    -24.30      0.00
    2   14   12     29.48      0.00
    3   14   12     -0.52      0.00
    4   14   12    -15.67      0.00
    5   14   12     -7.06      0.00
    6   14   12     -0.96      0.00
    7   14   12     15.82      0.00
    8   14   12     -5.85      0.00
    9   14   12    -44.44      0.00
   10   14   12    -17.31      0.00
    1   15   12    -29.89      0.00
    2   15   12     20.07      0.00
    3   15   12     10.37      0.00
    4   15   12     17.13      0.00
    5   15   12     23.73      0.00
    6   15   12     -5.25      0.00
    7   15   12      3.73      0.00
    8   15   12      2.89      0.00
    9   15   12     -6.43      0.00
    0   16   12      1.69      0.00
    1   16   12    -16.72      0.00
    2   16   12     33.70      0.00
    3   16   12      5.32      0.00
    4   16   12     30.59      0.00
    5   16   12     -7.61      0.00
    6   16   12      3.13      0.00
    7   16   12    -31.70      0.00
    8   16   12     34.52      0.00
    9   16   12     58.99      0.00
    1   17   12     13.75      0.00
    2   17   12     23.78      0.00
    3   17   12     -2.17      0.00
    4   17   12     14.54      0.00
    5   17   12     -7.57      0.00
    6   17   12      6.65      0.00
    7   17   12    -16.94      0.00
    8   17   12     17.85      0.00
    9   17   12    -32.70      0.00
    0   18   12     78.43      0.00
    1   18   12     57.47      0.00
    2   18   12    -17.26      0.00
    3   18   12    -38.48      0.00
    4   18   12      4.58      0.00
    5   18   12     21.65      0.00
    6   18   12      3.31      0.00
    7   18   12     10.78      0.00
    8   18   12     -6.93      0.00
    9   18   12     19.68      0.00
    1   19   12     -2.59      0.00
    2   19   12    -21.25      0.00
    3   19   12     -8.92      0.00
    4   19   12    -13.10      0.00
    5   19   12     -6.39      0.00
    0    1   13     -4.25      0.00
    1    2   13     -6.87      0.00
    0    3   13     -3.88      0.00
    1    3   13     -6.54      0.00
    2    3   13    -15.45      0.00
    1    4   13      6.15      0.00
    2    4   13     -3.09      0.00
    3    4   13      1.65      0.00
    0    5   13     -2.65      0.00
    1    5   13     -2.40      0.00
    2    5   13      7.46      0.00
    3    5   13      3.89      0.00
    4    5   13     -8.28      0.00
    1    6   13     10.13      0.00
    2    6   13     -7.47      0.00
    3    6   13     -5.48      0.00
    4    6   13      2.76      0.00
    5    6   13    -17.79      0.00
    0    7   13      0.34      0.00
    1    7   13     -0.08      0.00
    2    7   13     -8.60      0.00
    3    7   13     -6.18      0.00
    4    7   13      6.99      0.00
    5    7   13     -0.76      0.00
    6    7   13     -0.72      0.00
    1    8   13     -3.45      0.00
    2    8   13      4.50      0.00
    3    8   13    -11.47      0.00
    4    8   13     -8.96      0.00
    5    8   13     11.68      0.00
    6    8   13      7.23      0.00
    7    8   13    -23.57      0.00
    0    9   13     -3.69      0.00
    1    9   13      9.45      0.00
    2    9   13      3.26      0.00
    3    9   13    -22.26      0.00
    4    9   13    -13.55      0.00
    5    9   13     11.06      0.00
    6    9   13    -33.98      0.00
    7    9   13    -13.10      0.00
    8    9   13     15.72      0.00
    1   10   13    -11.65      0.00
    2   10   13    -13.84      0.00
    3   10   13     -0.69      0.00
    4   10   13     -7.34      0.00
    5   10   13     13.09      0.00
    6   10   13    -11.93      0.00
    7   10   13     -6.42      0.00
    8   10   13      8.37      0.00
    9   10   13    -14.52      0.00
    0   11   13    -17.10      0.00
    1   11   13     -2.84      0.00
    2   11   13     30.69      0.00
    3   11   13     11.22      0.00
    4   11   13    -18.97      0.00
    5   11   13     10.54      0.00
    6   11   13    -18.95      0.00
    7   11   13     33.26      0.00
    8   11   13     -5.43      0.00
    9   11   13      2.16      0.00
   10   11   13    -30.50      0.00
    1   12   13     -4.25      0.00
    2   12   13    -18.24      0.00
    3   12   13      0.48      0.00
    4   12   13      1.04      0.00
    6   12   13     41.87      0.00
    7   12   13     -3.91      0.00
    8   12   13     -7.18      0.00
    9   12   13     38.80      0.00
   10   12   13     -3.34      0.00
    0   13   13     16.33      0.00
    1   13   13    -13.35      0.00
    2   13   13     19.75      0.00
    3   13   13     23.30      0.00
    4   13   13     18.76      0.00
    5   13   13      7.93      0.00
    6   13   13    -16.58      0.00
    7   13   13     14.11      0.00
    8   13   13      9.33      0.00
    9   13   13      2.22      0.00
   10   13   13     30.64      0.00
    1   14   13    -13.65      0.00
    2   14   13     -1.00      0.00
    3   14   13      7.49      0.00
    4   14   13     -9.06      0.00
    5   14   13    -10.12      0.00
    6   14   13     37.23      0.00
    7   14   13    -11.55      0.00
    8   14   13      6.15      0.00
    9   14   13    -13.92      0.00
   10   14   13     -7.35      0.00
    0   15   13      8.80      0.00
    1   15   13    -30.21      0.00
    2   15   13     11.23      0.00
    3   15   13      0.80      0.00
    4   15   13     16.04      0.00
    5   15   13     22.93      0.00
    6   15   13      6.45      0.00
    7   15   13     -3.47      0.00
    8   15   13     -7.03      0.00
    9   15   13     -4.22      0.00
   10   15   13    -16.16      0.00
    1   16   13     -2.28      0.00
    2   16   13    -14.29      0.00
    3   16   13     -5.40      0.00
    4   16   13    -40.42      0.00
    5   16   13    -28.88      0.00
    6   16   13    -10.68      0.00
    7   16   13     -3.52      0.00
    8   16   13      4.10      0.00
    9   16   13      6.72      0.00
   10   16   13     -5.34      0.00
    0   17   13    -20.30      0.00
    1   17   13    -16.13      0.00
    2   17   13      5.15      0.00
    3   17   13     -0.54      0.00
    4   17   13    -34.65      0.00
    5   17   13    -69.73      0.00
    6   17   13    -10.97      0.00
    7   17   13    -14.45      0.00
    8   17   13     10.67      0.00
    9   17   13     -3.84      0.00
    1   18   13    -11.15      0.00
    2   18   13    -11.53      0.00
    3   18   13    -21.26      0.00
    4   18   13     14.41      0.00
    5   18   13    -11.52      0.00
    6   18   13     14.56      0.00
    7   18   13      6.42      0.00
    8   18   13     -6.24      0.00
    9   18   13      5.10      0.00
    0   19   13     10.88      0.00
    1   19   13    -12.57      0.00
    2   19   13     -7.24      0.00
    3   19   13      7.31      0.00
    4   19   13    -17.46      0.00
    5   19   13    -19.37      0.00
    0    0   14    -64.99      0.00
    1    1   14     12.76      0.00
    0    2   14     24.01      0.00
    1    2   14    -27.57      0.00
    2    2   14      1.77      0.00
    1    3   14    -18.50      0.00
    2    3   14      5.16      0.00
    3    3   14     -7.14      0.00
    0    4   14     -2.08      0.00
    1    4   14      0.24      0.00
    2    4   14     -0.44      0.00
    3    4   14     10.16      0.00
    4    4   14     13.47      0.00
    1    5   14     15.82      0.00
    2    5   14     -5.56      0.00
    3    5   14     -6.79      0.00
    4    5   14     -4.49      0.00
    5    5   14     -6.90      0.00
    0    6   14     10.08      0.00
    1    6   14      6.91      0.00
    2    6   14      1.52      0.00
    3    6   14     -7.28      0.00
    4    6   14      5.27      0.00
    5    6   14      8.07      0.00
    6    6   14     17.86      0.00
    1    7   14     -3.27      0.00
    2    7   14      2.20      0.00
    3    7   14     -2.52      0.00
    4    7   14     -7.43      0.00
    5    7   14     -8.68      0.00
    6    7   14     -8.07      0.00
    7    7   14      9.31      0.00
    0    8   14      9.40      0.00
    1    8   14     15.66      0.00
    2    8   14      5.48      0.00
    3    8   14      2.77      0.00
    4    8   14     20.03      0.00
    5    8   14     -1.25      0.00
    6    8   14     -1.87      0.00
    7    8   14     -0.02      0.00
    1    9   14      2.84      0.00
    2    9   14     18.89      0.00
    3    9   14      5.56      0.00
    4    9   14      0.63      0.00
    5    9   14      9.91      0.00
    6    9   14    -16.36      0.00
    7    9   14      7.91      0.00
    8    9   14     29.66      0.00
    9    9   14    -17.16      0.00
    0   10   14    -22.23      0.00
    1   10   14     -0.08      0.00
    2   10   14     -0.38      0.00
    3   10   14     12.93      0.00
    4   10   14     -9.05      0.00
    5   10   14      4.20      0.00
    6   10   14     13.34      0.00
    7   10   14     -7.56      0.00
    8   10   14    -12.21      0.00
    9   10   14     43.37      0.00
   10   10   14     40.45      0.00
    1   11   14     -0.67      0.00
    2   11   14    -10.58      0.00
    3   11   14    -12.19      0.00
    4   11   14      4.31      0.00
    5   11   14     -3.06      0.00
    6   11   14    -11.13      0.00
    7   11   14      0.34      0.00
    8   11   14    -26.44      0.00
    9   11   14     13.87      0.00
   10   11   14    -40.65      0.00
    0   12   14     25.84      0.00
    1   12   14    -15.97      0.00
    2   12   14     -6.35      0.00
    3   12   14     29.64      0.00
    5   12   14     25.85      0.00
    6   12   14      6.85      0.00
    7   12   14     35.50      0.00
    8   12   14      3.04      0.00
    9   12   14     -9.90      0.00
   10   12   14     -9.09      0.00
    1   13   14     -2.22      0.00
    2   13   14    -13.10      0.00
    3   13   14     -6.58      0.00
    4   13   14    -37.17      0.00
    5   13   14      8.44      0.00
    6   13   14      2.55      0.00
    7   13   14     -9.31      0.00
    8   13   14     34.24      0.00
    9   13   14    -11.79      0.00
   10   13   14     31.02      0.00
    0   14   14     28.84      0.00
    1   14   14      0.39      0.00
    2   14   14    -26.03      0.00
    3   14   14    -54.14      0.00
    4   14   14      5.49      0.00
    5   14   14      6.81      0.00
    6   14   14     -3.46      0.00
    7   14   14      3.55      0.00
    8   14   14     13.04      0.00
    9   14   14     -7.68      0.00
   10   14   14    -31.14      0.00
    1   15   14    -26.29      0.00
    2   15   14     54.87      0.00
    3   15   14    -16.68      0.00
    4   15   14      9.54      0.00
    5   15   14     19.64      0.00
    6   15   14     24.72      0.00
    7   15   14      2.42      0.00
    8   15   14    -15.79      0.00
    9   15   14     19.27      0.00
   10   15   14    -10.64      0.00
    0   16   14    -10.11      0.00
    1   16   14     29.91      0.00
    2   16   14     -4.44      0.00
    3   16   14      9.27      0.00
    4   16   14      9.03      0.00
    5   16   14      0.84      0.00
    6   16   14    -12.51      0.00
    7   16   14    -50.04      0.00
    8   16   14     -3.70      0.00
    9   16   14     45.75      0.00
    1   17   14      2.27      0.00
    2   17   14     21.50      0.00
    3   17   14    -37.21      0.00
    4   17   14     65.72      0.00
    5   17   14    -23.16      0.00
    6   17   14     17.98      0.00
    7   17   14     21.27      0.00
    8   17   14     19.91      0.00
    9   17   14      0.56      0.00
    0   18   14      3.35      0.00
    1   18   14    -22.74      0.00
    2   18   14     14.87      0.00
    3   18   14    -18.61      0.00
    4   18   14     -6.83      0.00
    5   18   14     46.96      0.00
    6   18   14     33.25      0.00
    7   18   14     -3.92      0.00
    8   18   14    -28.61      0.00
    1   19   14    -23.13      0.00
    2   19   14    -20.16      0.00
    3   19   14     52.54      0.00
    4   19   14     18.43      0.00
    0    1   15     10.21      0.00
    1    2   15     -1.70      0.00
    0    3   15      1.27      0.00
    1    3   15     -0.16      0.00
    2    3   15      8.24      0.00
    1    4   15      3.07      0.00
    2    4   15      8.31      0.00
    3    4   15      2.68      0.00
    0    5   15     14.51      0.00
    1    5   15     -5.64      0.00
    2    5   15     -9.51      0.00
    3    5   15     13.76      0.00
    4    5   15      8.55      0.00
    1    6   15      8.71      0.00
    2    6   15     -6.35      0.00
    3    6   15    -10.11      0.00
    4    6   15      2.00      0.00
    5    6   15    -13.69      0.00
    0    7   15      3.15      0.00
    1    7   15      5.95      0.00
    2    7   15      9.85      0.00
    3    7   15     -5.93      0.00
    4    7   15    -15.19      0.00
    5    7   15    -11.67      0.00
    6    7   15     19.49      0.00
    1    8   15      7.68      0.00
    2    8   15    -11.23      0.00
    3    8   15     -5.44      0.00
    4    8   15     -1.26      0.00
    5    8   15      8.20      0.00
    6    8   15     25.61      0.00
    0    9   15      9.01      0.00
    1    9   15     -6.89      0.00
    2    9   15     13.85      0.00
    3    9   15      7.32      0.00
    4    9   15      2.35      0.00
    5    9   15      6.01      0.00
    6    9   15     -0.15      0.00
    7    9   15    -34.70      0.00
    8    9   15    -25.12      0.00
    1   10   15      1.06      0.00
    2   10   15      8.77      0.00
    3   10   15      6.16      0.00
    4   10   15     -4.64      0.00
    5   10   15     13.45      0.00
    6   10   15    -37.18      0.00
    7   10   15     -3.04      0.00
    8   10   15     28.69      0.00
    9   10   15     -6.66      0.00
    0   11   15      0.48      0.00
    1   11   15     -4.17      0.00
    2   11   15     25.32      0.00
    3   11   15     -5.63      0.00
    4   11   15    -22.97      0.00
    5   11   15     -0.04      0.00
    6   11   15      4.85      0.00
    7   11   15     -1.79      0.00
    8   11   15     11.52      0.00
    9   11   15     -6.47      0.00
   10   11   15     21.60      0.00
    1   12   15    -25.27      0.00
    4   12   15    -28.64      0.00
    5   12   15    -16.67      0.00
    6   12   15      4.72      0.00
    7   12   15     -3.83      0.00
    8   12   15      5.63      0.00
    9   12   15     35.28      0.00
   10   12   15    -19.16      0.00
   11   12   15    -33.64      0.00
    0   13   15    -17.95      0.00
    1   13   15    -19.83      0.00
    2   13   15      7.50      0.00
    3   13   15     11.63      0.00
    4   13   15     -5.23      0.00
    5   13   15     -8.51      0.00
    6   13   15     -9.25      0.00
    7   13   15    -34.93      0.00
    8   13   15     19.25      0.00
    9   13   15     -3.26      0.00
   10   13   15    -18.81      0.00
   11   13   15      5.54      0.00
    1   14   15    -25.40      0.00
    2   14   15     19.32      0.00
    3   14   15     27.41      0.00
    4   14   15     18.70      0.00
    5   14   15    -18.82      0.00
    6   14   15      5.10      0.00
    7   14   15    -13.90      0.00
    8   14   15    -20.25      0.00
    9   14   15     -0.74      0.00
   10   14   15     49.99      0.00
   11   14   15     48.12      0.00
    0   15   15     13.89      0.00
    1   15   15     -7.18      0.00
    2   15   15      4.53      0.00
    3   15   15     10.93      0.00
    4   15   15      2.30      0.00
    5   15   15     45.81      0.00
    6   15   15    -11.61      0.00
    7   15   15     -3.82      0.00
    8   15   15     -0.44      0.00
    9   15   15    -28.98      0.00
   10   15   15     24.11      0.00
    1   16   15      5.79      0.00
    2   16   15    -14.39      0.00
    3   16   15    -23.29      0.00
    4   16   15    -17.74      0.00
    5   16   15    -35.58      0.00
    6   16   15     -1.50      0.00
    7   16   15      2.35      0.00
    8   16   15    -10.01      0.00
    0   17   15    -27.42      0.00
    1   17   15    -17.66      0.00
    2   17   15    101.71      0.00
    3   17   15    -18.01      0.00
    4   17   15    -12.96      0.00
    5   17   15     21.05      0.00
    6   17   15     -4.06      0.00
    7   17   15      2.48      0.00
    8   17   15      7.26      0.00
    1   18   15    -36.24      0.00
    2   18   15     -0.75      0.00
    3   18   15    -14.97      0.00
    4   18   15     42.03      0.00
    5   18   15    -11.35      0.00
    6   18   15     17.98      0.00
    7   18   15     20.32      0.00
    8   18   15     48.09      0.00
    1    1   16     11.12      0.00
    0    2   16     19.02      0.00
    1    2   16    -11.21      0.00
    2    2   16    -10.95      0.00
    1    3   16      4.81      0.00
    2    3   16      2.39      0.00
    3    3   16      5.30      0.00
    0    4   16    -12.98      0.00
    1    4   16      2.02      0.00
    2    4   16      4.45      0.00
    3    4   16     -2.07      0.00
    4    4   16     40.63      0.00
    1    5   16     -7.76      0.00
    2    5   16     -0.55      0.00
    3    5   16      2.75      0.00
    4    5   16      8.15      0.00
    5    5   16     -0.87      0.00
    0    6   16     -1.05      0.00
    1    6   16      8.64      0.00
    2    6   16     -0.97      0.00
    3    6   16    -10.70      0.00
    4    6   16     -5.25      0.00
    5    6   16     19.37      0.00
    6    6   16     -2.48      0.00
    1    7   16      5.30      0.00
    2    7   16     -8.67      0.00
    3    7   16     37.05      0.00
    4    7   16    -16.31      0.00
    5    7   16     10.50      0.00
    6    7   16     43.75      0.00
    0    8   16    -31.88      0.00
    1    8   16     19.53      0.00
    2    8   16     -0.20      0.00
    3    8   16     -8.57      0.00
    4    8   16    -11.35      0.00
    5    8   16     18.10      0.00
    7    8   16      4.06      0.00
    8    8   16     -5.55      0.00
    1    9   16    -12.05      0.00
    2    9   16      1.09      0.00
    3    9   16     -6.53      0.00
    4    9   16     10.67      0.00
    5    9   16     -9.00      0.00
    6    9   16      8.18      0.00
    7    9   16     21.26      0.00
    8    9   16    -15.52      0.00
    9    9   16     14.74      0.00
    0   10   16     10.18      0.00
    1   10   16     14.43      0.00
    2   10   16      8.51      0.00
    3   10   16     -4.05      0.00
    4   10   16     12.58      0.00
    5   10   16    -32.35      0.00
    6   10   16      8.50      0.00
    7   10   16      1.70      0.00
    8   10   16      0.81      0.00
    9   10   16     24.08      0.00
   10   10   16      9.89      0.00
    1   11   16     -5.75      0.00
    2   11   16     -8.68      0.00
    3   11   16     -8.18      0.00
    4   11   16     -5.15      0.00
    5   11   16      4.65      0.00
    6   11   16     13.23      0.00
    7   11   16    -24.21      0.00
    8   11   16    -16.70      0.00
    9   11   16      7.96      0.00
   10   11   16     -6.66      0.00
   11   11   16     12.98      0.00
    0   12   16    -13.98      0.00
    1   12   16      6.92      0.00
    2   12   16    -13.17      0.00
    3   12   16     32.70      0.00
    4   12   16    -18.36      0.00
    5   12   16     -0.75      0.00
    6   12   16     25.53      0.00
    7   12   16     22.51      0.00
    8   12   16    -36.06      0.00
    9   12   16     -6.57      0.00
   10   12   16     18.68      0.00
   11   12   16    -13.07      0.00
    1   13   16     27.29      0.00
    2   13   16      2.64      0.00
    3   13   16    -11.71      0.00
    4   13   16     18.08      0.00
    5   13   16      2.28      0.00
    6   13   16    -19.95      0.00
    7   13   16      7.59      0.00
    8   13   16     -9.94      0.00
    9   13   16      5.63      0.00
   10   13   16     29.73      0.00
   11   13   16    -23.02      0.00
    0   14   16      3.07      0.00
    1   14   16     10.25      0.00
    2   14   16      1.56      0.00
    3   14   16    -30.23      0.00
    4   14   16    -19.03      0.00
    5   14   16     -0.87      0.00
    6   14   16      0.98      0.00
    7   14   16     37.70      0.00
    8   14   16    -48.22      0.00
    9   14   16    -34.01      0.00
   10   14   16    -29.55      0.00
   11   14   16     19.64      0.00
    1   15   16     20.37      0.00
    2   15   16     38.25      0.00
    3   15   16     23.65      0.00
    4   15   16      0.42      0.00
    5   15   16     28.33      0.00
    6   15   16    -12.23      0.00
    7   15   16      6.62      0.00
    8   15   16     18.04      0.00
    9   15   16      3.06      0.00
   10   15   16     14.05      0.00
   11   15   16     41.76      0.00
    0   16   16    -25.79      0.00
    1   16   16    -10.21      0.00
    2   16   16    -22.55      0.00
    3   16   16     28.56      0.00
    4   16   16     42.48      0.00
    5   16   16    -81.56      0.00
    6   16   16    -28.51      0.00
    7   16   16     21.85      0.00
    1   17   16    -24.98      0.00
    2   17   16    -23.11      0.00
    3   17   16    -29.67      0.00
    4   17   16      0.03      0.00
    5   17   16    -12.19      0.00
    6   17   16    -26.13      0.00
    7   17   16      7.25      0.00
    8   17   16      6.12      0.00
    0   18   16    -21.30      0.00
    1   18   16     -9.17      0.00
    2   18   16    -17.30      0.00
    3   18   16    -28.91      0.00
    4   18   16     28.69      0.00
    5   18   16     23.12      0.00
    6   18   16     30.58      0.00
    7   18   16     -7.71      0.00
    0    1   17    -13.30      0.00
    1    2   17     -1.24      0.00
    0    3   17     -1.35      0.00
    1    3   17     16.00      0.00
    2    3   17      5.48      0.00
    1    4   17      0.39      0.00
    2    4   17    -16.15      0.00
    3    4   17      1.41      0.00
    0    5   17      2.26      0.00
    1    5   17      0.76      0.00
    2    5   17     -7.43      0.00
    3    5   17     -9.49      0.00
    4    5   17     30.81      0.00
    1    6   17     -0.74      0.00
    2    6   17     -5.05      0.00
    3    6   17    -30.73      0.00
    4    6   17     30.94      0.00
    5    6   17     21.59      0.00
    0    7   17     -2.09      0.00
    1    7   17      7.30      0.00
    2    7   17    -17.55      0.00
    3    7   17    -15.59      0.00
    4    7   17    -27.84      0.00
    5    7   17     -6.22      0.00
    1    8   17     -4.34      0.00
    2    8   17     -4.99      0.00
    3    8   17    -10.08      0.00
    4    8   17    -26.23      0.00
    6    8   17     -1.93      0.00
    7    8   17     13.62      0.00
    0    9   17      0.27      0.00
    1    9   17     -3.04      0.00
    2    9   17      5.66      0.00
    3    9   17     -0.59      0.00
    4    9   17      6.25      0.00
    5    9   17      3.21      0.00
    6    9   17      5.94      0.00
    7    9   17     26.67      0.00
    8    9   17     22.32      0.00
    1   10   17      8.72      0.00
    2   10   17      0.50      0.00
    3   10   17      7.49      0.00
    4   10   17     -2.54      0.00
    5   10   17     -6.53      0.00
    6   10   17     -6.42      0.00
    7   10   17    -23.14      0.00
    8   10   17     -8.24      0.00
    9   10   17    -14.44      0.00
    1   11   17    -17.80      0.00
    2   11   17      6.94      0.00
    3   11   17     -1.21      0.00
    4   11   17      3.88      0.00
    5   11   17     11.77      0.00
    6   11   17     19.59      0.00
    7   11   17    -16.31      0.00
    8   11   17    -15.56      0.00
    9   11   17     -4.15      0.00
   10   11   17      2.63      0.00
    1   12   17     32.01      0.00
    2   12   17     25.55      0.00
    3   12   17      8.82      0.00
    4   12   17    -12.44      0.00
    5   12   17      2.73      0.00
    6   12   17     -1.76      0.00
    7   12   17      0.98      0.00
    8   12   17      7.13      0.00
    9   12   17    -28.54      0.00
   10   12   17    -13.05      0.00
   11   12   17    -16.47      0.00
    0   13   17      9.83      0.00
    1   13   17    -41.48      0.00
    2   13   17    -19.03      0.00
    3   13   17     -6.84      0.00
    4   13   17     22.39      0.00
    5   13   17    -46.12      0.00
    6   13   17      7.61      0.00
    7   13   17     -4.37      0.00
    8   13   17     59.42      0.00
    9   13   17     12.43      0.00
   10   13   17      1.44      0.00
   11   13   17      0.40      0.00
    1   14   17    -14.55      0.00
    2   14   17     -3.77      0.00
    3   14   17     -4.07      0.00
    4   14   17     -5.88      0.00
    5   14   17      5.04      0.00
    6   14   17     20.34      0.00
    7   14   17    -20.29      0.00
    8   14   17     -9.37      0.00
    9   14   17     18.72      0.00
   10   14   17    -12.60      0.00
   11   14   17    -11.25      0.00
    0   15   17     -1.26      0.00
    1   15   17    -48.02      0.00
    2   15   17    -19.40      0.00
    3   15   17     -6.16      0.00
    4   15   17     25.36      0.00
    5   15   17     39.41      0.00
    6   15   17      1.25      0.00
    7   15   17    -49.50      0.00
    8   15   17     42.92      0.00
    9   15   17     -6.64      0.00
   10   15   17    -17.24      0.00
   11   15   17    -25.65      0.00
    1   16   17     45.76      0.00
    2   16   17     15.47      0.00
    3   16   17     -5.09      0.00
    4   16   17   -105.78      0.00
    5   16   17     -5.24      0.00
    6   16   17     14.62      0.00
    0   17   17     22.67      0.00
    1   17   17     24.26      0.00
    2   17   17     59.48      0.00
    3   17   17    -21.70      0.00
    4   17   17     38.31      0.00
    5   17   17     -8.32      0.00
    6   17   17     -0.27      0.00
    1   18   17    -12.17      0.00
    2   18   17    -28.27      0.00
    3   18   17    -17.03      0.00
    4   18   17     30.85      0.00
    5   18   17     -6.89      0.00
    6   18   17    -20.35      0.00
    1    1   18    -14.96      0.00
    0    2   18    -14.45      0.00
    1    2   18    -13.83      0.00
    2    2   18    -17.62      0.00
    1    3   18      1.71      0.00
    2    3   18    -12.53      0.00
    3    3   18      3.52      0.00
    0    4   18      1.98      0.00
    1    4   18     -8.95      0.00
    2    4   18    -17.70      0.00
    3    4   18     -3.35      0.00
    4    4   18    -16.28      0.00
    1    5   18     -9.03      0.00
    2    5   18     16.45      0.00
    3    5   18    -16.37      0.00
    4    5   18     -8.60      0.00
    5    5   18    -13.39      0.00
    0    6   18     22.91      0.00
    1    6   18     31.30      0.00
    2    6   18      2.75      0.00
    3    6   18      0.36      0.00
    4    6   18    -31.00      0.00
    5    6   18    -36.86      0.00
    1    7   18     12.19      0.00
    2    7   18     -4.96      0.00
    3    7   18     24.59      0.00
    4    7   18      2.55      0.00
    6    7   18     24.36      0.00
    7    7   18    -12.11      0.00
    0    8   18     -5.37      0.00
    1    8   18    -23.11      0.00
    2    8   18      8.48      0.00
    3    8   18     21.75      0.00
    5    8   18     26.45      0.00
    6    8   18     22.84      0.00
    7    8   18     -9.16      0.00
    8    8   18      2.48      0.00
    1    9   18    -32.28      0.00
    2    9   18      8.79      0.00
    3    9   18     16.81      0.00
    4    9   18     55.03      0.00
    5    9   18      6.86      0.00
    6    9   18      1.18      0.00
    7    9   18    -24.99      0.00
    8    9   18      5.13      0.00
    9    9   18    -22.56      0.00
    0   10   18      8.07      0.00
    1   10   18     -6.49      0.00
    2   10   18      5.71      0.00
    3   10   18      3.51      0.00
    4   10   18    -29.98      0.00
    5   10   18    -25.22      0.00
    6   10   18     -2.95      0.00
    7   10   18    -37.13      0.00
    8   10   18    -27.35      0.00
    9   10   18     31.74      0.00
   10   10   18     -4.23      0.00
    1   11   18      3.24      0.00
    2   11   18     -3.48      0.00
    3   11   18      1.46      0.00
    4   11   18     28.54      0.00
    5   11   18     -4.91      0.00
    6   11   18      2.00      0.00
    7   11   18     17.23      0.00
    8   11   18     32.42      0.00
    9   11   18     27.19      0.00
   10   11   18    -27.20      0.00
   11   11   18    -25.68      0.00
    0   12   18     -0.73      0.00
    1   12   18    -21.55      0.00
    2   12   18     10.43      0.00
    3   12   18     -9.43      0.00
    4   12   18    -19.01      0.00
    5   12   18      7.59      0.00
    6   12   18      1.83      0.00
    7   12   18    -10.60      0.00
    8   12   18      9.31      0.00
    9   12   18    -10.03      0.00
   10   12   18    -22.37      0.00
   11   12   18    -28.45      0.00
    1   13   18     -0.41      0.00
    2   13   18    -11.33      0.00
    3   13   18     13.02      0.00
    4   13   18    -20.62      0.00
    5   13   18      6.40      0.00
    6   13   18    -13.51      0.00
    7   13   18      5.86      0.00
    8   13   18    -46.11      0.00
    9   13   18     18.81      0.00
   10   13   18     -1.30      0.00
   11   13   18     -9.01      0.00
    0   14   18     15.23      0.00
    1   14   18    -27.10      0.00
    2   14   18     18.20      0.00
    3   14   18     -0.84      0.00
    4   14   18     -1.09      0.00
    5   14   18    -14.81      0.00
    6   14   18     30.52      0.00
    7   14   18     27.15      0.00
    8   14   18    -70.25      0.00
    9   14   18     23.07      0.00
   10   14   18    -13.34      0.00
   11   14   18    -10.72      0.00
    1   15   18     25.80      0.00
    2   15   18     27.66      0.00
    3   15   18     -7.76      0.00
    4   15   18     26.37      0.00
    5   15   18     14.97      0.00
    6   15   18    -61.95      0.00
    7   15   18     42.45      0.00
    8   15   18     13.61      0.00
    9   15   18     26.35      0.00
   10   15   18     -6.87      0.00
   11   15   18      6.74      0.00
    0   16   18     10.50      0.00
    1   16   18     40.66      0.00
    2   16   18    -90.30      0.00
    3   16   18     -3.19      0.00
    4   16   18      8.16      0.00
    5   16   18     23.57      0.00
   10   16   18    -61.21      0.00
    1   17   18     -2.45      0.00
    2   17   18    -20.05      0.00
    3   17   18    -11.00      0.00
    4   17   18     21.50      0.00
    5   17   18      0.10      0.00
    0   18   18      5.07      0.00
    1   18   18     19.40      0.00
    2   18   18     19.02      0.00
    3   18   18    -31.07      0.00
    4   18   18    -36.31      0.00
    5   18   18     44.12      0.00
    0    1   19    -22.76      0.00
    1    2   19      5.65      0.00
    0    3   19     23.02      0.00
    1    3   19      4.00      0.00
    2    3   19     -0.48      0.00
    1    4   19      3.83      0.00
    2    4   19    -17.52      0.00
    3    4   19      4.61      0.00
    0    5   19     -8.52      0.00
    1    5   19      2.07      0.00
    2    5   19     -9.95      0.00
    3    5   19      3.87      0.00
    4    5   19      2.18      0.00
    1    6   19     -6.46      0.00
    2    6   19     -0.73      0.00
    3    6   19     -3.95      0.00
    4    6   19     17.43      0.00
    0    7   19    -20.52      0.00
    1    7   19      2.22      0.00
    2    7   19     14.59      0.00
    3    7   19      2.87      0.00
    5    7   19      0.03      0.00
    6    7   19      1.24      0.00
    1    8   19     -7.83      0.00
    2    8   19      0.89      0.00
    3    8   19     24.31      0.00
    4    8   19    -56.94      0.00
    5    8   19     -0.32      0.00
    6    8   19     -8.78      0.00
    7    8   19    -21.57      0.00
    0    9   19      4.74      0.00
    1    9   19     16.89      0.00
    2    9   19    -11.73      0.00
    3    9   19    -17.20      0.00
    4    9   19     18.00      0.00
    5    9   19     -3.36      0.00
    6    9   19      8.80      0.00
    7    9   19    -10.12      0.00
    8    9   19    -18.88      0.00
    1   10   19     14.02      0.00
    2   10   19      5.02      0.00
    3   10   19      2.28      0.00
    4   10   19     -8.68      0.00
    5   10   19     -6.12      0.00
    6   10   19     -4.55      0.00
    7   10   19    -12.36      0.00
    8   10   19    -12.96      0.00
    9   10   19     46.36      0.00
    0   11   19      3.55      0.00
    1   11   19    -34.57      0.00
    2   11   19     -1.31      0.00
    3   11   19      0.89      0.00
    4   11   19    -22.68      0.00
    5   11   19    -21.45      0.00
    6   11   19     27.00      0.00
    7   11   19     50.85      0.00
    8   11   19    -14.62      0.00
    9   11   19    -12.52      0.00
   10   11   19     -4.81      0.00
    1   12   19     -4.73      0.00
    2   12   19     -8.08      0.00
    3   12   19     -0.69      0.00
    4   12   19      8.47      0.00
    5   12   19    -51.14      0.00
    6   12   19     16.27      0.00
    7   12   19      5.18      0.00
    8   12   19     45.41      0.00
    9   12   19    -48.04      0.00
   10   12   19     36.95      0.00
   11   12   19     28.12      0.00
    0   13   19     -8.16      0.00
    1   13   19     15.44      0.00
    2   13   19    -25.91      0.00
    3   13   19     12.30      0.00
    4   13   19     11.35      0.00
    5   13   19      4.00      0.00
    6   13   19     35.74      0.00
    7   13   19    -18.69      0.00
    8   13   19     49.29      0.00
    9   13   19     59.32      0.00
   10   13   19     -9.46      0.00
   11   13   19     38.07      0.00
   12   13   19     57.18      0.00
    1   14   19     -9.65      0.00
    2   14   19     30.08      0.00
    3   14   19      1.26      0.00
    4   14   19     10.73      0.00
    5   14   19     29.36      0.00
    6   14   19     59.75      0.00
    7   14   19   -120.86      0.00
    8   14   19     43.29      0.00
    9   14   19      5.04      0.00
   10   14   19     -4.55      0.00
   11   14   19    -19.72      0.00
    0   15   19    -11.22      0.00
    1   15   19     -9.14      0.00
    2   15   19    -26.08      0.00
    3   15   19      5.55      0.00
    4   15   19     10.42      0.00
    5   15   19     20.08      0.00
    6   15   19     -4.27      0.00
    7   15   19     16.78      0.00
    8   15   19     -4.10      0.00
    9   15   19      7.36      0.00
   10   15   19     31.71      0.00
    1   16   19     20.66      0.00
    2   16   19      8.26      0.00
    3   16   19    -23.94      0.00
    4   16   19     -5.55      0.00
    8   16   19      1.41      0.00
    9   16   19    -63.18      0.00
    0   17   19    -58.04      0.00
    1   17   19     -2.97      0.00
    2   17   19     52.93      0.00
    3   17   19     44.26      0.00
    4   17   19    -32.92      0.00
    1   18   19    -21.93      0.00
    2   18   19     20.71      0.00
    3   18   19      9.12      0.00
    4   18   19     42.81      0.00
    1    1   20     -6.71      0.00
    0    2   20     35.92      0.00
    1    2   20     18.21      0.00
    2    2   20     -7.10      0.00
    1    3   20      3.89      0.00
    2    3   20     10.54      0.00
    3    3   20      5.12      0.00
    0    4   20    -19.56      0.00
    1    4   20     17.10      0.00
    2    4   20      4.63      0.00
    3    4   20     -2.42      0.00
    4    4   20     11.04      0.00
    1    5   20     -2.54      0.00
    2    5   20     12.59      0.00
    3    5   20      1.56      0.00
    4    5   20      5.58      0.00
    0    6   20     23.57      0.00
    1    6   20      6.38      0.00
    2    6   20     26.94      0.00
    3    6   20     14.62      0.00
    5    6   20    -31.27      0.00
    6    6   20    -24.29      0.00
    1    7   20      2.42      0.00
    2    7   20    -17.05      0.00
    3    7   20     17.00      0.00
    4    7   20     16.12      0.00
    5    7   20     12.38      0.00
    6    7   20    -14.83      0.00
    7    7   20     -9.40      0.00
    0    8   20     42.73      0.00
    1    8   20      5.18      0.00
    2    8   20    -17.68      0.00
    3    8   20     -9.50      0.00
    4    8   20     14.37      0.00
    5    8   20     20.77      0.00
    6    8   20     12.11      0.00
    7    8   20     -6.63      0.00
    8    8   20     -5.34      0.00
    1    9   20    -22.58      0.00
    2    9   20     13.64      0.00
    3    9   20     25.09      0.00
    4    9   20     18.81      0.00
    5    9   20     34.86      0.00
    6    9   20     -0.46      0.00
    7    9   20     -5.80      0.00
    8    9   20     -6.94      0.00
    9    9   20     35.23      0.00
    0   10   20     14.51      0.00
    1   10   20    -14.52      0.00
    2   10   20     19.17      0.00
    3   10   20    -32.46      0.00
    4   10   20    -18.82      0.00
    5   10   20     11.23      0.00
    6   10   20    -27.04      0.00
    7   10   20    -10.61      0.00
    8   10   20     11.29      0.00
    9   10   20    -24.52      0.00
   10   10   20      7.18      0.00
    1   11   20     -6.81      0.00
    2   11   20     22.60      0.00
    3   11   20     -3.01      0.00
    4   11   20     -4.86      0.00
    5   11   20     17.58      0.00
    6   11   20     54.69      0.00
    7   11   20     -2.57      0.00
    8   11   20      8.26      0.00
    9   11   20    -17.13      0.00
   10   11   20    -22.64      0.00
   11   11   20     -6.03      0.00
    0   12   20    -22.45      0.00
    1   12   20     17.12      0.00
    2   12   20    -21.55      0.00
    3   12   20      2.97      0.00
    4   12   20     24.12      0.00
    5   12   20     -6.84      0.00
    6   12   20     21.18      0.00
    7   12   20     63.91      0.00
    8   12   20    -39.12      0.00
    9   12   20    -50.84      0.00
   10   12   20     -8.35      0.00
   11   12   20    -30.19      0.00
   12   12   20    -17.43      0.00
    1   13   20    -12.29      0.00
    2   13   20     -2.02      0.00
    3   13   20     18.23      0.00
    4   13   20     39.38      0.00
    5   13   20    -25.69      0.00
    6   13   20     42.03      0.00
    7   13   20      0.25      0.00
    8   13   20   -139.90      0.00
    9   13   20     13.11      0.00
   10   13   20      7.28      0.00
   11   13   20     29.47      0.00
    0   14   20      5.49      0.00
    1   14   20      7.28      0.00
    2   14   20      5.11      0.00
    3   14   20     -7.51      0.00
    4   14   20     10.92      0.00
    5   14   20     19.66      0.00
    6   14   20   -185.14      0.00
    7   14   20     13.06      0.00
    8   14   20     24.84      0.00
    9   14   20     14.00      0.00
   10   14   20     -6.44      0.00
    1   15   20     28.16      0.00
    2   15   20    -18.27      0.00
    3   15   20    -17.90      0.00
    4   15   20    -19.56      0.00
    5   15   20    -24.21      0.00
    6   15   20    -16.88      0.00
    7   15   20     60.28      0.00
    8   15   20      4.92      0.00
    9   15   20     37.47      0.00
    0   16   20    -35.57      0.00
    1   16   20     -7.70      0.00
    2   16   20     20.52      0.00
    3   16   20    -14.67      0.00
    7   16   20     20.28      0.00
    8   16   20    -22.63      0.00
    1   17   20    -18.01      0.00
    2   17   20     30.19      0.00
    3   17   20     21.58      0.00
    2   18   20    -44.57      0.00
    3   18   20    -19.99      0.00
    0    1   21    -13.90      0.00
    1    2   21    -19.16      0.00
    0    3   21    -15.60      0.00
    1    3   21      2.48      0.00
    2    3   21      7.56      0.00
    1    4   21     -2.92      0.00
    2    4   21    -21.03      0.00
    3    4   21     10.85      0.00
    0    5   21     -5.97      0.00
    1    5   21     -6.77      0.00
    2    5   21      7.88      0.00
    3    5   21     14.42      0.00
    4    5   21     22.53      0.00
    1    6   21     16.02      0.00
    2    6   21     17.57      0.00
    3    6   21     10.78      0.00
    4    6   21    -35.35      0.00
    5    6   21      7.10      0.00
    0    7   21     36.65      0.00
    1    7   21     -6.33      0.00
    2    7   21      1.62      0.00
    3    7   21    -12.19      0.00
    4    7   21    -23.81      0.00
    5    7   21     16.99      0.00
    6    7   21     11.47      0.00
    1    8   21    -27.88      0.00
    2    8   21    -35.52      0.00
    3    8   21     -2.14      0.00
    4    8   21     -5.58      0.00
    5    8   21    -25.11      0.00
    6    8   21    -17.13      0.00
    7    8   21      6.52      0.00
    0    9   21     23.80      0.00
    1    9   21     -5.46      0.00
    2    9   21    -14.99      0.00
    3    9   21     33.37      0.00
    4    9   21    -15.36      0.00
    5    9   21    -26.00      0.00
    6    9   21    -15.79      0.00
    7    9   21     11.01      0.00
    8    9   21     23.82      0.00
    1   10   21    -12.32      0.00
    2   10   21     17.00      0.00
    3   10   21    -39.69      0.00
    4   10   21      1.43      0.00
    5   10   21     -3.42      0.00
    6   10   21    -27.84      0.00
    7   10   21      6.86      0.00
    8   10   21      7.79      0.00
    9   10   21     42.08      0.00
    0   11   21      7.41      0.00
    1   11   21     -4.61      0.00
    2   11   21     -7.77      0.00
    3   11   21     21.78      0.00
    4   11   21     28.24      0.00
    5   11   21    -26.01      0.00
    6   11   21    -28.21      0.00
    7   11   21     14.22      0.00
    8   11   21    -19.52      0.00
    9   11   21    -12.05      0.00
   10   11   21     44.22      0.00
    1   12   21     -0.88      0.00
    2   12   21     42.77      0.00
    3   12   21     10.13      0.00
    4   12   21    -30.49      0.00
    5   12   21      0.22      0.00
    6   12   21     -8.27      0.00
    7   12   21     16.91      0.00
    8   12   21     17.70      0.00
    9   12   21     35.05      0.00
   10   12   21      0.40      0.00
   11   12   21    -45.88      0.00
    0   13   21     30.13      0.00
    1   13   21    -11.86      0.00
    2   13   21     13.70      0.00
    3   13   21     -2.57      0.00
    4   13   21    -21.45      0.00
    5   13   21     22.95      0.00
    6   13   21     92.84      0.00
    7   13   21   -281.99      0.00
    8   13   21     36.33      0.00
    9   13   21     47.17      0.00
   10   13   21     -3.94      0.00
    1   14   21     -2.62      0.00
    2   14   21     20.35      0.00
    3   14   21    -16.61      0.00
    4   14   21     -7.35      0.00
    5   14   21      2.12      0.00
    6   14   21    -28.33      0.00
    7   14   21     35.91      0.00
    8   14   21     41.01      0.00
    9   14   21    -33.21      0.00
    0   15   21     22.62      0.00
    1   15   21    -20.75      0.00
    2   15   21     -4.47      0.00
    3   15   21    -15.51      0.00
    4   15   21    -61.89      0.00
    5   15   21     14.45      0.00
    6   15   21     34.50      0.00
    7   15   21     -7.90      0.00
    8   15   21      8.49      0.00
    1   16   21    -60.01      0.00
    6   16   21    -53.79      0.00
    7   16   21    -26.64      0.00
    1   17   21     -8.50      0.00
    2   17   21      5.49      0.00
    1    1   22     -8.90      0.00
    0    2   22     29.26      0.00
    1    2   22     21.11      0.00
    2    2   22    -58.30      0.00
    1    3   22      2.57      0.00
    2    3   22     42.22      0.00
    3    3   22     21.19      0.00
    0    4   22     12.29      0.00
    1    4   22      4.61      0.00
    2    4   22    -19.71      0.00
    3    4   22     33.64      0.00
    4    4   22    -19.15      0.00
    1    5   22     -7.77      0.00
    2    5   22      0.17      0.00
    3    5   22    -24.30      0.00
    4    5   22     28.10      0.00
    5    5   22    -52.07      0.00
    0    6   22     -0.86      0.00
    1    6   22    -13.14      0.00
    2    6   22     25.15      0.00
    3    6   22    -24.33      0.00
    4    6   22    -55.83      0.00
    5    6   22     -4.17      0.00
    6    6   22      4.52      0.00
    1    7   22    -42.75      0.00
    2    7   22    -29.83      0.00
    3    7   22      2.00      0.00
    4    7   22     11.65      0.00
    5    7   22     45.28      0.00
    6    7   22    -11.84      0.00
    7    7   22     -4.81      0.00
    0    8   22    -14.94      0.00
    1    8   22      4.89      0.00
    2    8   22     13.91      0.00
    3    8   22     16.17      0.00
    4    8   22      6.94      0.00
    5    8   22      9.66      0.00
    6    8   22      8.78      0.00
    7    8   22      9.33      0.00
    8    8   22    -39.06      0.00
    1    9   22    -15.90      0.00
    2    9   22    -17.68      0.00
    3    9   22     15.81      0.00
    4    9   22     23.32      0.00
    5    9   22     14.68      0.00
    6    9   22    -16.09      0.00
    7    9   22      9.88      0.00
    8    9   22     -1.23      0.00
    9    9   22     -4.12      0.00
    0   10   22    -12.81      0.00
    1   10   22    -23.39      0.00
    2   10   22      4.41      0.00
    3   10   22      7.84      0.00
    4   10   22      7.38      0.00
    5   10   22     45.96      0.00
    6   10   22     14.63      0.00
    7   10   22      4.29      0.00
    8   10   22     60.92      0.00
    9   10   22    -30.64      0.00
   10   10   22    -96.60      0.00
    1   11   22     21.73      0.00
    2   11   22      5.27      0.00
    3   11   22     10.87      0.00
    4   11   22    -10.74      0.00
    5   11   22     39.01      0.00
    6   11   22    -28.91      0.00
    7   11   22     40.93      0.00
    8   11   22    -16.56      0.00
    9   11   22    -51.93      0.00
   10   11   22     19.40      0.00
   11   11   22     25.87      0.00
    0   12   22     -2.06      0.00
    1   12   22     -2.22      0.00
    2   12   22     31.27      0.00
    3   12   22     -3.59      0.00
    4   12   22    -33.25      0.00
    5   12   22    -23.64      0.00
    6   12   22    -15.63      0.00
    7   12   22     43.66      0.00
    8   12   22     13.08      0.00
    9   12   22     33.30      0.00
   10   12   22     -3.67      0.00
    1   13   22    -14.87      0.00
    2   13   22    -37.58      0.00
    3   13   22     -3.28      0.00
    4   13   22    -58.59      0.00
    5   13   22      3.18      0.00
    6   13   22     52.24      0.00
    7   13   22     11.50      0.00
    8   13   22     12.42      0.00
    9   13   22     18.62      0.00
   10   13   22     -3.33      0.00
    1   14   22    -14.24      0.00
    2   14   22    -43.38      0.00
    3   14   22    -25.59      0.00
    4   14   22     22.51      0.00
    5   14   22     12.62      0.00
    6   14   22    -45.15      0.00
    7   14   22     55.85      0.00
    8   14   22    -28.66      0.00
    9   14   22      9.67      0.00
    1   15   22      0.97      0.00
    2   15   22    -27.43      0.00
    3   15   22     12.83      0.00
    4   15   22     16.77      0.00
    5   15   22      9.55      0.00
    6   15   22     21.90      0.00
    7   15   22     26.94      0.00
    5   16   22    -27.69      0.00
    6   16   22     24.83      0.00
    1    2   23     15.56      0.00
    0    3   23     -0.83      0.00
    1    3   23      4.37      0.00
    2    3   23     17.45      0.00
    1    4   23     -2.16      0.00
    2    4   23    -21.69      0.00
    3    4   23     24.86      0.00
    0    5   23    -14.83      0.00
    1    5   23      1.78      0.00
    2    5   23     20.94      0.00
    3    5   23    -20.81      0.00
    4    5   23     13.06      0.00
    1    6   23    -38.61      0.00
    2    6   23      5.42      0.00
    3    6   23    -12.18      0.00
    4    6   23      5.12      0.00
    5    6   23     -2.91      0.00
    0    7   23     -4.72      0.00
    1    7   23     19.75      0.00
    2    7   23     27.60      0.00
    3    7   23     33.42      0.00
    4    7   23     10.88      0.00
    5    7   23      4.71      0.00
    6    7   23    -14.61      0.00
    1    8   23     -5.20      0.00
    2    8   23     23.25      0.00
    3    8   23     10.84      0.00
    4    8   23     -9.99      0.00
    5    8   23    -20.15      0.00
    6    8   23    -14.13      0.00
    7    8   23     15.04      0.00
    0    9   23     45.97      0.00
    1    9   23     -1.95      0.00
    2    9   23    -15.61      0.00
    3    9   23      1.31      0.00
    4    9   23     17.81      0.00
    5    9   23    -12.88      0.00
    6    9   23    -27.27      0.00
    7    9   23    -24.38      0.00
    8    9   23    -12.94      0.00
    1   10   23     20.13      0.00
    2   10   23     -5.65      0.00
    3   10   23     11.96      0.00
    4   10   23    -30.80      0.00
    5   10   23    -13.66      0.00
    6   10   23     43.80      0.00
    7   10   23     -9.22      0.00
    8   10   23     -8.52      0.00
    9   10   23     25.35      0.00
    0   11   23      7.82      0.00
    1   11   23    -14.55      0.00
    2   11   23     -1.33      0.00
    3   11   23     -2.04      0.00
    4   11   23     -5.15      0.00
    5   11   23     -7.98      0.00
    6   11   23    -22.68      0.00
    7   11   23     18.07      0.00
    8   11   23   -251.44      0.00
    9   11   23     -6.77      0.00
   10   11   23     28.83      0.00
    1   12   23     -5.17      0.00
    2   12   23    -19.88      0.00
    3   12   23     -5.98      0.00
    4   12   23      0.41      0.00
    5   12   23     -5.17      0.00
    6   12   23     12.38      0.00
    7   12   23    -14.07      0.00
    8   12   23     28.52      0.00
    9   12   23     19.34      0.00
   10   12   23     17.17      0.00
    0   13   23     10.05      0.00
    1   13   23     13.80      0.00
    2   13   23     36.19      0.00
    3   13   23      3.90      0.00
    4   13   23     90.96      0.00
    5   13   23     -8.85      0.00
    6   13   23    -36.11      0.00
    7   13   23    -34.64      0.00
    8   13   23      5.45      0.00
    9   13   23     -5.90      0.00
    1   14   23    -18.54      0.00
    2   14   23     44.96      0.00
    3   14   23     -4.12      0.00
    4   14   23     -4.25      0.00
    5   14   23     21.92      0.00
    6   14   23      9.64      0.00
    7   14   23      7.93      0.00
    8   14   23     54.15      0.00
    2   15   23      8.50      0.00
    3   15   23      2.78      0.00
    4   15   23    -30.86      0.00
    5   15   23     32.55      0.00
    6   15   23    -13.07      0.00
    4   16   23    -27.02      0.00
    5   16   23     48.05      0.00
    1    2   24     -6.39      0.00
    2    2   24     -9.01      0.00
    1    3   24     11.86      0.00
    2    3   24     25.35      0.00
    3    3   24    -41.41      0.00
    1    4   24    -56.70      0.00
    2    4   24    -46.27      0.00
    3    4   24     15.34      0.00
    4    4   24    -19.65      0.00
    1    5   24    -29.12      0.00
    2    5   24      9.09      0.00
    3    5   24      2.69      0.00
    4    5   24      4.38      0.00
    5    5   24     10.12      0.00
    0    6   24     25.68      0.00
    1    6   24     15.01      0.00
    2    6   24      1.41      0.00
    3    6   24    -33.49      0.00
    4    6   24    -14.97      0.00
    5    6   24      2.01      0.00
    6    6   24     53.86      0.00
    1    7   24     -0.92      0.00
    2    7   24      6.79      0.00
    3    7   24    -13.17      0.00
    4    7   24     32.07      0.00
    5    7   24     38.51      0.00
    6    7   24     -0.73      0.00
    7    7   24     16.32      0.00
    0    8   24     38.45      0.00
    1    8   24     20.22      0.00
    2    8   24    -11.69      0.00
    3    8   24     10.41      0.00
    4    8   24    -29.70      0.00
    5    8   24      6.72      0.00
    6    8   24    -22.20      0.00
    7    8   24     25.13      0.00
    8    8   24     -7.23      0.00
    1    9   24     23.83      0.00
    2    9   24    -20.20      0.00
    3    9   24    -34.24      0.00
    4    9   24    -23.36      0.00
    5    9   24    -26.35      0.00
    6    9   24     -6.82      0.00
    7    9   24    -53.26      0.00
    8    9   24     25.70      0.00
    9    9   24     -0.39      0.00
    0   10   24     -5.35      0.00
    1   10   24      2.67      0.00
    2   10   24    -39.82      0.00
    3   10   24     -3.11      0.00
    4   10   24     -6.22      0.00
    5   10   24     -3.51      0.00
    6   10   24    -15.72      0.00
    7   10   24     12.39      0.00
    8   10   24     34.56      0.00
    9   10   24     10.10      0.00
   10   10   24    -15.28      0.00
    1   11   24    -27.14      0.00
    2   11   24    -20.01      0.00
    3   11   24    -13.81      0.00
    4   11   24     -4.65      0.00
    5   11   24     -9.22      0.00
    6   11   24    -12.92      0.00
    7   11   24    118.55      0.00
    8   11   24      2.68      0.00
    9   11   24      8.66      0.00
   10   11   24    -11.45      0.00
    0   12   24     -4.00      0.00
    1   12   24      2.23      0.00
    2   12   24    -16.70      0.00
    3   12   24     33.86      0.00
    4   12   24    -30.72      0.00
    5   12   24    135.40      0.00
    6   12   24    -16.24      0.00
    7   12   24    -12.24      0.00
    8   12   24     24.31      0.00
    9   12   24     -1.38      0.00
    1   13   24    -53.51      0.00
    2   13   24     -7.45      0.00
    3   13   24    -12.18      0.00
    4   13   24    -11.79      0.00
    5   13   24      7.67      0.00
    6   13   24    -31.46      0.00
    7   13   24    -16.08      0.00
    8   13   24     17.02      0.00
    2   14   24     21.69      0.00
    3   14   24     20.15      0.00
    4   14   24    -25.00      0.00
    5   14   24      0.06      0.00
    6   14   24      4.54      0.00
    2   15   24     29.27      0.00
    3   15   24    -26.28      0.00
    4   15   24    -42.40      0.00
    5   15   24     52.79      0.00
    3   16   24     79.95      0.00
    1    2   25    -25.54      0.00
    1    3   25    -65.07      0.00
    2    3   25     31.18      0.00
    1    4   25     10.50      0.00
    2    4   25    -11.64      0.00
    3    4   25     20.58      0.00
    0    5   25     70.55      0.00
    1    5   25    -24.83      0.00
    2    5   25     12.23      0.00
    3    5   25     -1.80      0.00
    4    5   25     16.01      0.00
    1    6   25     23.43      0.00
    2    6   25    -13.31      0.00
    3    6   25     -9.53      0.00
    4    6   25    -11.52      0.00
    5    6   25     -3.40      0.00
    0    7   25     15.98      0.00
    1    7   25      8.68      0.00
    2    7   25    -11.96      0.00
    3    7   25      7.10      0.00
    4    7   25      3.81      0.00
    5    7   25    -46.87      0.00
    6    7   25    -26.57      0.00
    1    8   25     13.74      0.00
    2    8   25     -4.60      0.00
    3    8   25     -8.34      0.00
    4    8   25     10.12      0.00
    5    8   25     13.33      0.00
    6    8   25     17.97      0.00
    7    8   25     -0.94      0.00
    0    9   25     -8.94      0.00
    1    9   25      3.42      0.00
    2    9   25     18.55      0.00
    3    9   25     16.49      0.00
    4    9   25     38.48      0.00
    5    9   25    -48.93      0.00
    6    9   25     -3.42      0.00
    7    9   25     25.28      0.00
    8    9   25    -15.58      0.00
    1   10   25      6.23      0.00
    2   10   25     33.68      0.00
    3   10   25     23.31      0.00
    4   10   25    -10.64      0.00
    5   10   25     23.06      0.00
    6   10   25     15.76      0.00
    7   10   25    116.22      0.00
    8   10   25      6.89      0.00
    9   10   25     10.26      0.00
    0   11   25    -15.36      0.00
    1   11   25      0.44      0.00
    2   11   25     14.39      0.00
    3   11   25     23.16      0.00
    4   11   25      6.39      0.00
    5   11   25     -8.80      0.00
    6   11   25    -21.84      0.00
    7   11   25    -18.28      0.00
    8   11   25     -5.69      0.00
    9   11   25    -19.16      0.00
    1   12   25     10.66      0.00
    2   12   25      0.14      0.00
    3   12   25     34.05      0.00
    4   12   25    -13.71      0.00
    5   12   25     12.43      0.00
    6   12   25    -24.10      0.00
    7   12   25     15.67      0.00
    8   12   25     14.03      0.00
    0   13   25     -5.83      0.00
    1   13   25     29.71      0.00
    2   13   25     63.34      0.00
    3   13   25     12.96      0.00
    4   13   25     16.68      0.00
    5   13   25    -22.27      0.00
    6   13   25    -34.86      0.00
    7   13   25    -33.71      0.00
    2   14   25    -19.97      0.00
    3   14   25    -19.24      0.00
    4   14   25    -15.43      0.00
    5   14   25    -28.01      0.00
    2   15   25    -22.48      0.00
    3   15   25     15.78      0.00
    0    2   26     -6.93      0.00
    1    2   26     27.39      0.00
    2    2   26     66.41      0.00
    1    3   26     18.77      0.00
    2    3   26     36.28      0.00
    3    3   26    -32.70      0.00
    0    4   26     14.47      0.00
    1    4   26    -24.22      0.00
    2    4   26      8.89      0.00
    3    4   26      6.20      0.00
    4    4   26    -21.08      0.00
    1    5   26    -19.99      0.00
    2    5   26     25.10      0.00
    3    5   26     -9.33      0.00
    4    5   26     15.66      0.00
    5    5   26    -18.29      0.00
    0    6   26    -35.50      0.00
    1    6   26     -2.44      0.00
    2    6   26    -13.86      0.00
    3    6   26     -6.48      0.00
    4    6   26     -6.82      0.00
    5    6   26     10.05      0.00
    6    6   26     36.29      0.00
    1    7   26    -27.40      0.00
    2    7   26      5.92      0.00
    3    7   26     66.89      0.00
    4    7   26     25.24      0.00
    5    7   26      6.84      0.00
    6    7   26      3.06      0.00
    7    7   26    -27.15      0.00
    0    8   26    -14.44      0.00
    1    8   26      6.42      0.00
    2    8   26      8.91      0.00
    3    8   26     -1.86      0.00
    4    8   26    -12.54      0.00
    5    8   26    -10.65      0.00
    6    8   26     10.04      0.00
    7    8   26     37.07      0.00
    8    8   26    -34.55      0.00
    1    9   26      4.55      0.00
    2    9   26    -24.33      0.00
    3    9   26    -31.54      0.00
    4    9   26     13.41      0.00
    5    9   26    -40.05      0.00
    6    9   26      6.85      0.00
    7    9   26     52.65      0.00
    8    9   26    -10.74      0.00
    9    9   26    -37.17      0.00
    0   10   26     11.71      0.00
    1   10   26     21.88      0.00
    2   10   26    -12.17      0.00
    3   10   26    -16.53      0.00
    4   10   26     25.86      0.00
    5   10   26    -18.14      0.00
    6   10   26    -10.82      0.00
    7   10   26    -18.57      0.00
    8   10   26      4.30      0.00
    9   10   26      7.50      0.00
    1   11   26      8.00      0.00
    2   11   26    -12.45      0.00
    3   11   26    -10.53      0.00
    4   11   26    -21.94      0.00
    5   11   26      5.30      0.00
    6   11   26    -22.54      0.00
    7   11   26    -18.32      0.00
    8   11   26     -1.95      0.00
    0   12   26      9.50      0.00
    1   12   26      5.30      0.00
    2   12   26    -43.98      0.00
    3   12   26      0.10      0.00
    4   12   26     -1.49      0.00
    5   12   26     43.26      0.00
    6   12   26    -36.86      0.00
    7   12   26      3.74      0.00
    1   13   26    -30.80      0.00
    2   13   26     -8.71      0.00
    3   13   26    -20.65      0.00
    4   13   26    -37.01      0.00
    5   13   26     23.19      0.00
    1   14   26      9.24      0.00
    2   14   26     -5.66      0.00
    3   14   26     14.35      0.00
    1    2   27    -40.68      0.00
    0    3   27    -23.49      0.00
    1    3   27     11.39      0.00
    2    3   27    -30.24      0.00
    1    4   27    -13.34      0.00
    2    4   27     18.05      0.00
    3    4   27    -45.57      0.00
    0    5   27    -52.81      0.00
    1    5   27     -4.43      0.00
    2    5   27      6.91      0.00
    3    5   27    -23.83      0.00
    4    5   27     25.29      0.00
    1    6   27     34.70      0.00
    2    6   27     -3.13      0.00
    3    6   27    -10.54      0.00
    4    6   27     12.02      0.00
    5    6   27     21.89      0.00
    0    7   27    -21.94      0.00
    1    7   27     14.57      0.00
    2    7   27    -26.53      0.00
    3    7   27    -15.47      0.00
    4    7   27     -2.52      0.00
    5    7   27    -18.55      0.00
    6    7   27    -28.23      0.00
    1    8   27      1.36      0.00
    2    8   27     13.03      0.00
    3    8   27     31.47      0.00
    4    8   27      6.71      0.00
    5    8   27      7.48      0.00
    6    8   27     30.12      0.00
    7    8   27     94.98      0.00
    0    9   27     21.38      0.00
    1    9   27    -18.47      0.00
    2    9   27     -3.00      0.00
    3    9   27      0.95      0.00
    4    9   27      7.38      0.00
    5    9   27    -12.01      0.00
    6    9   27    -21.22      0.00
    7    9   27    -35.93      0.00
    8    9   27    -17.05      0.00
    1   10   27     10.60      0.00
    2   10   27    -27.41      0.00
    3   10   27      3.54      0.00
    4   10   27     43.22      0.00
    5   10   27     -7.02      0.00
    6   10   27      3.61      0.00
    7   10   27    -16.37      0.00
    8   10   27     -0.86      0.00
    0   11   27      1.21      0.00
    1   11   27      4.00      0.00
    2   11   27     -2.74      0.00
    3   11   27    -22.53      0.00
    4   11   27    -12.96      0.00
    5   11   27     -2.09      0.00
    6   11   27      6.51      0.00
    7   11   27    -21.05      0.00
    1   12   27     -7.64      0.00
    2   12   27    -15.39      0.00
    3   12   27     -8.21      0.00
    4   12   27    -13.18      0.00
    5   12   27     31.43      0.00
    1   13   27     16.98      0.00
    2   13   27     42.54      0.00
    3   13   27     23.50      0.00
    4   13   27    -20.80      0.00
    1   14   27     55.34      0.00
    2   14   27     -9.95      0.00
    1    3   28     -0.75      0.00
    2    3   28     -5.73      0.00
    3    3   28     31.01      0.00
    0    4   28     32.22      0.00
    1    4   28    -25.61      0.00
    2    4   28     41.03      0.00
    3    4   28    -14.53      0.00
    4    4   28     45.10      0.00
    1    5   28    -18.76      0.00
    2    5   28     11.87      0.00
    3    5   28    -12.79      0.00
    4    5   28    -25.81      0.00
    5    5   28      6.92      0.00
    0    6   28      4.93      0.00
    1    6   28    -19.06      0.00
    2    6   28    -13.09      0.00
    3    6   28     28.62      0.00
    4    6   28    -25.10      0.00
    5    6   28    -11.95      0.00
    6    6   28     12.16      0.00
    1    7   28     -9.90      0.00
    2    7   28    -24.99      0.00
    3    7   28     -4.49      0.00
    4    7   28     -3.53      0.00
    5    7   28      1.37      0.00
    6    7   28      0.15      0.00
    7    7   28    -57.90      0.00
    0    8   28      0.03      0.00
    1    8   28     14.04      0.00
    2    8   28    -25.68      0.00
    3    8   28    -26.37      0.00
    4    8   28    -24.27      0.00
    5    8   28     16.19      0.00
    6    8   28    -32.49      0.00
    7    8   28     20.55      0.00
    8    8   28    -63.77      0.00
    1    9   28      1.97      0.00
    2    9   28     -6.95      0.00
    3    9   28    -38.24      0.00
    4    9   28     12.99      0.00
    5    9   28    -18.70      0.00
    6    9   28     35.16      0.00
    7    9   28     35.29      0.00
    8    9   28    -19.88      0.00
    0   10   28    -16.81      0.00
    1   10   28     -5.76      0.00
    2   10   28     -6.96      0.00
    3   10   28      4.27      0.00
    4   10   28     15.90      0.00
    5   10   28    -25.53      0.00
    6   10   28    -11.33      0.00
    7   10   28     35.08      0.00
    1   11   28     13.12      0.00
    2   11   28    -27.28      0.00
    3   11   28     18.98      0.00
    4   11   28     22.99      0.00
    5   11   28      4.82      0.00
    1   12   28     -0.62      0.00
    2   12   28     -7.97      0.00
    3   12   28     19.47      0.00
    4   12   28    -15.75      0.00
    1   13   28      5.66      0.00
    2   13   28     32.43      0.00
    3   13   28    -12.12      0.00
    0    3   29      2.16      0.00
    1    3   29      7.22      0.00
    2    3   29    -35.91      0.00
    1    4   29     35.16      0.00
    2    4   29     14.25      0.00
    3    4   29     -9.96      0.00
    0    5   29    -34.28      0.00
    1    5   29     20.86      0.00
    2    5   29      0.91      0.00
    3    5   29    -27.39      0.00
    4    5   29     12.54      0.00
    1    6   29     65.16      0.00
    2    6   29     46.53      0.00
    3    6   29     19.95      0.00
    4    6   29     12.25      0.00
    5    6   29     -8.98      0.00
    0    7   29     21.92      0.00
    1    7   29     15.66      0.00
    2    7   29     -6.30      0.00
    3    7   29      8.13      0.00
    4    7   29    -11.92      0.00
    5    7   29    -71.95      0.00
    6    7   29    -19.53      0.00
    1    8   29     -8.90      0.00
    2    8   29     35.59      0.00
    3    8   29    115.02      0.00
    4    8   29     -1.43      0.00
    5    8   29      7.60      0.00
    6    8   29     -8.29      0.00
    7    8   29     14.51      0.00
    0    9   29    -45.02      0.00
    1    9   29     37.59      0.00
    2    9   29    -10.27      0.00
    3    9   29     -2.25      0.00
    4    9   29     14.19      0.00
    5    9   29    -32.08      0.00
    6    9   29     40.87      0.00
    7    9   29    -24.93      0.00
    1   10   29      8.36      0.00
    2   10   29     31.02      0.00
    3   10   29     -8.94      0.00
    4   10   29     64.44      0.00
    5   10   29     11.75      0.00
    1   11   29     -8.01      0.00
    2   11   29     46.87      0.00
    3   11   29     20.56      0.00
    4   11   29    -20.39      0.00
    1   12   29     -9.75      0.00
    2   12   29    -18.73      0.00
    3   12   29      0.65      0.00
    1    3   30    -25.94      0.00
    2    3   30      8.72      0.00
    3    3   30      0.92      0.00
    0    4   30    -42.05      0.00
    1    4   30     22.83      0.00
    2    4   30     12.59      0.00
    3    4   30    -22.41      0.00
    4    4   30     20.46      0.00
    1    5   30    -32.48      0.00
    2    5   30     39.87      0.00
    3    5   30     12.14      0.00
    4    5   30      2.05      0.00
    5    5   30      1.74      0.00
    0    6   30     -2.45      0.00
    1    6   30     17.20      0.00
    2    6   30     52.28      0.00
    3    6   30     21.94      0.00
    4    6   30   -100.65      0.00
    5    6   30     49.81      0.00
    6    6   30     17.58      0.00
    1    7   30      4.01      0.00
    2    7   30   -152.14      0.00
    3    7   30    -35.28      0.00
    4    7   30     25.89      0.00
    5    7   30     36.21      0.00
    6    7   30     19.31      0.00
    7    7   30     17.65      0.00
    1    8   30     -4.83      0.00
    2    8   30    -14.11      0.00
    3    8   30    -36.97      0.00
    4    8   30     23.90      0.00
    5    8   30     27.72      0.00
    6    8   30    -57.70      0.00
    1    9   30      2.91      0.00
    2    9   30    -19.23      0.00
    3    9   30    -28.59      0.00
    4    9   30     -5.48      0.00
    5    9   30      0.17      0.00
    1   10   30      0.19      0.00
    2   10   30      4.39      0.00
    3   10   30     -1.36      0.00
    4   10   30     -9.71      0.00
    1   11   30     27.48      0.00
    2   11   30     -7.94      0.00
    3   11   30     -9.94      0.00
    2   12   30    -37.97      0.00
    1    4   31     30.96      0.00
    2    4   31     25.84      0.00
    3    4   31     37.21      0.00
    0    5   31      2.25      0.00
    1    5   31      5.53      0.00
    2    5   31    -76.37      0.00
    3    5   31    -54.07      0.00
    4    5   31     47.05      0.00
    1    6   31     26.06      0.00
    2    6   31     14.82      0.00
    3    6   31     -1.35      0.00
    4    6   31    -23.58      0.00
    5    6   31     -5.47      0.00
    1    7   31    -35.83      0.00
    2    7   31    -18.59      0.00
    3    7   31     20.31      0.00
    4    7   31      0.03      0.00
    5    7   31     10.11      0.00
    6    7   31     17.42      0.00
    1    8   31     11.56      0.00
    2    8   31     24.35      0.00
    3    8   31     34.30      0.00
    4    8   31     23.82      0.00
    5    8   31      9.94      0.00
    1    9   31      5.61      0.00
    2    9   31    -20.19      0.00
    3    9   31     -3.07      0.00
    4    9   31    -20.34      0.00
    1   10   31      3.61      0.00
    2   10   31     36.70      0.00
    3   10   31     26.63      0.00
    2   11   31     19.67      0.00
    0    4   32    -28.88      0.00
    1    4   32     15.79      0.00
    2    4   32     21.71      0.00
    3    4   32    -43.78      0.00
    4    4   32    -35.62      0.00
    1    5   32    -12.50      0.00
    2    5   32      7.61      0.00
    3    5   32     41.44      0.00
    4    5   32     -1.65      0.00
    5    5   32    -22.22      0.00
    1    6   32     26.14      0.00
    2    6   32     22.60      0.00
    3    6   32     30.47      0.00
    4    6   32    -73.70      0.00
    5    6   32      9.55      0.00
    1    7   32    -16.93      0.00
    2    7   32    -30.63      0.00
    3    7   32    -34.47      0.00
    4    7   32     13.38      0.00
    5    7   32     20.31      0.00
    1    8   32     21.07      0.00
    2    8   32      2.36      0.00
    3    8   32     20.92      0.00
    4    8   32     -0.80      0.00
    1    9   32      2.65      0.00
    2    9   32    -24.63      0.00
    3    9   32    -17.63      0.00
    2   10   32      1.74      0.00
    1    4   33     17.08      0.00
    2    4   33    -21.20      0.00
    3    4   33     21.01      0.00
    1    5   33     -6.94      0.00
    2    5   33     25.36      0.00
    3    5   33    -27.00      0.00
    4    5   33    -24.26      0.00
    1    6   33     26.20      0.00
    2    6   33     12.40      0.00
    3    6   33     -8.61      0.00
    4    6   33    -15.62      0.00
    1    7   33    -54.88      0.00
    2    7   33      9.51      0.00
    3    7   33      5.74      0.00
    2    8   33     -0.79      0.00
    1    5   34     25.10      0.00
    2    5   34     24.50      0.00
    1    6   34    -17.09      0.00
    2    6   34    -18.65      0.00
    3    6   34     21.52      0.00
    2    7   34     35.57      0.00
    1    5   35    -55.91      0.00
    1    1    0     25.80      0.00
    2    2    0    205.77      0.00
    3    3    0    161.80      0.00
    3    4    0      6.81      0.00
    4    4    0    -45.55      0.00
    4    5    0    -12.51      0.00
    5    5    0      2.00      0.00
    4    6    0     35.89      0.00
    5    6    0    -11.61      0.00
    6    6    0    -36.60      0.00
    5    7    0    -19.07      0.00
    6    7    0    -48.20      0.00
    7    7    0      2.75      0.00
    5    8    0     -8.69      0.00
    6    8    0      0.18      0.00
    7    8    0    -14.11      0.00
    8    8    0      6.82      0.00
    6    9    0     23.38      0.00
    7    9    0    -12.33      0.00
    8    9    0    -42.68      0.00
    9    9    0     35.12      0.00
    6   10    0     -1.72      0.00
    7   10    0     19.79      0.00
    8   10    0     22.11      0.00
    9   10    0    -23.94      0.00
   10   10    0     -5.88      0.00
    6   11    0     37.89      0.00
    7   11    0    -38.65      0.00
    8   11    0     45.65      0.00
    9   11    0      5.43      0.00
   10   11    0     36.28      0.00
   11   11    0     28.17      0.00
    7   12    0    -12.48      0.00
    8   12    0     25.91      0.00
    9   12    0     -9.95      0.00
   10   12    0    -26.40      0.00
   11   12    0      0.28      0.00
   12   12    0     -1.78      0.00
    6   13    0     -8.93      0.00
    7   13    0     19.06      0.00
    8   13    0    -13.66      0.00
    9   13    0      0.98      0.00
   10   13    0     17.61      0.00
   11   13    0      8.53      0.00
   12   13    0     42.26      0.00
   13   13    0     -1.53      0.00
    0   14    0    -48.04      0.00
    1   14    0    -33.16      0.00
    7   14    0      3.64      0.00
    8   14    0    -32.20      0.00
    9   14    0    -13.88      0.00
   10   14    0     34.26      0.00
   11   14    0      8.85      0.00
   12   14    0      3.26      0.00
   13   14    0     -5.96      0.00
   14   14    0     25.99      0.00
    7   15    0      8.54      0.00
    8   15    0     13.49      0.00
    9   15    0    -18.29      0.00
   10   15    0    -14.50      0.00
   11   15    0     -1.71      0.00
   12   15    0     10.82      0.00
   13   15    0     -7.75      0.00
   14   15    0      7.46      0.00
   15   15    0     16.78      0.00
    7   16    0    -13.47      0.00
    8   16    0    -12.09      0.00
    9   16    0    -12.42      0.00
   10   16    0    -13.23      0.00
   11   16    0    -12.35      0.00
   12   16    0     27.18      0.00
   13   16    0     15.73      0.00
   14   16    0     12.08      0.00
   15   16    0     21.21      0.00
    7   17    0     58.26      0.00
    8   17    0      0.25      0.00
    9   17    0     15.73      0.00
   10   17    0    -21.92      0.00
   11   17    0      5.31      0.00
   12   17    0     -9.16      0.00
   13   17    0     -2.51      0.00
    7   18    0     36.28      0.00
    8   18    0      3.89      0.00
    9   18    0     -0.38      0.00
   10   18    0     -5.80      0.00
   11   18    0     -2.38      0.00
   12   18    0     12.74      0.00
    7   19    0    -14.35      0.00
    8   19    0     -0.88      0.00
    9   19    0     26.27      0.00
   10   19    0     -5.46      0.00
   11   19    0    -27.03      0.00
    7   20    0     -7.49      0.00
    8   20    0     26.91      0.00
    9   20    0      0.89      0.00
    4   21    0    -20.95      0.00
    5   21    0     -9.51      0.00
    6   21    0     43.58      0.00
    0    1    1   -608.19      0.00
    4    5    1    -12.59      0.00
    5    6    1     -8.51      0.00
    5    7    1     25.51      0.00
    6    7    1     13.34      0.00
    6    8    1    -37.53      0.00
    7    8    1     -8.57      0.00
    6    9    1     10.22      0.00
    7    9    1    -11.60      0.00
    8    9    1    -15.54      0.00
    6   10    1     44.21      0.00
    7   10    1    -24.30      0.00
    8   10    1    -26.23      0.00
    9   10    1     12.03      0.00
    7   11    1    -35.13      0.00
    8   11    1     -4.74      0.00
    9   11    1     11.26      0.00
   10   11    1     -6.46      0.00
    7   12    1     -4.36      0.00
    8   12    1    -11.91      0.00
    9   12    1    -29.18      0.00
   10   12    1     11.42      0.00
   11   12    1    -11.97      0.00
    7   13    1      8.16      0.00
    8   13    1     20.82      0.00
    9   13    1     -6.04      0.00
   10   13    1      6.32      0.00
   11   13    1      8.58      0.00
   12   13    1     21.90      0.00
    1   14    1    -16.07      0.00
    7   14    1    -28.82      0.00
    8   14    1     12.80      0.00
    9   14    1    -17.03      0.00
   10   14    1    -14.41      0.00
   11   14    1    -23.09      0.00
   12   14    1    -10.70      0.00
   13   14    1     -6.46      0.00
    7   15    1    -56.44      0.00
    8   15    1    -18.98      0.00
    9   15    1     15.40      0.00
   10   15    1     27.24      0.00
   11   15    1     -3.62      0.00
   12   15    1      7.81      0.00
   13   15    1      5.39      0.00
   14   15    1    -19.41      0.00
    7   16    1      2.71      0.00
    8   16    1     22.38      0.00
    9   16    1     14.17      0.00
   10   16    1     15.10      0.00
   11   16    1      1.06      0.00
   12   16    1      0.15      0.00
   13   16    1      8.85      0.00
   14   16    1     -5.67      0.00
   15   16    1     -0.56      0.00
    7   17    1     14.54      0.00
    8   17    1    -19.68      0.00
    9   17    1      7.96      0.00
   10   17    1     -6.99      0.00
   11   17    1      1.15      0.00
   12   17    1      2.39      0.00
   13   17    1     10.10      0.00
    7   18    1      9.61      0.00
    8   18    1     -9.82      0.00
    9   18    1     -4.09      0.00
   10   18    1      1.39      0.00
   11   18    1     10.22      0.00
   12   18    1      9.87      0.00
    7   19    1    -19.41      0.00
    8   19    1    -10.05      0.00
    9   19    1      2.47      0.00
   10   19    1     -7.96      0.00
   11   19    1     15.91      0.00
    7   20    1     10.84      0.00
    8   20    1     10.31      0.00
    9   20    1     -7.03      0.00
    5   21    1     17.58      0.00
    6   21    1     12.48      0.00
    0    0    2    575.98      0.00
    4    4    2    -56.15      0.00
    5    5    2    -16.18      0.00
    5    6    2      4.06      0.00
    6    6    2     -4.85      0.00
    6    7    2     24.14      0.00
    7    7    2    -19.78      0.00
    6    8    2    -10.78      0.00
    7    8    2     11.77      0.00
    8    8    2     -0.43      0.00
    6    9    2     27.16      0.00
    7    9    2     26.96      0.00
    8    9    2    -11.43      0.00
    9    9    2      0.41      0.00
    7   10    2     -2.98      0.00
    8   10    2     18.28      0.00
    9   10    2      0.98      0.00
   10   10    2    -10.65      0.00
    7   11    2     -7.68      0.00
    8   11    2     10.77      0.00
    9   11    2     11.70      0.00
   10   11    2      6.46      0.00
   11   11    2     31.68      0.00
    7   12    2    -10.08      0.00
    8   12    2     21.27      0.00
    9   12    2    -21.33      0.00
   10   12    2      6.66      0.00
   11   12    2    -38.10      0.00
   12   12    2     -2.10      0.00
    7   13    2     -8.00      0.00
    8   13    2     15.03      0.00
    9   13    2     -3.96      0.00
   10   13    2    -32.05      0.00
   11   13    2      3.07      0.00
   12   13    2     14.91      0.00
   13   13    2     -2.60      0.00
    0   14    2    -13.69      0.00
    8   14    2      1.25      0.00
    9   14    2     28.05      0.00
   10   14    2     -5.76      0.00
   11   14    2    -17.79      0.00
   12   14    2    -15.33      0.00
   13   14    2      4.79      0.00
   14   14    2     15.57      0.00
    8   15    2    -26.51      0.00
    9   15    2     24.38      0.00
   10   15    2     13.27      0.00
   11   15    2    -14.49      0.00
   12   15    2     10.47      0.00
   13   15    2      8.37      0.00
   14   15    2    -22.80      0.00
   15   15    2     -3.98      0.00
    8   16    2    -13.90      0.00
    9   16    2      6.04      0.00
   10   16    2     31.47      0.00
   11   16    2    -13.77      0.00
   12   16    2    -28.05      0.00
   13   16    2    -12.43      0.00
   14   16    2      6.75      0.00
   15   16    2     -3.81      0.00
    8   17    2    -15.25      0.00
    9   17    2     14.14      0.00
   10   17    2      2.73      0.00
   11   17    2    -16.88      0.00
   12   17    2     -1.86      0.00
   13   17    2    -14.48      0.00
    8   18    2    -20.52      0.00
    9   18    2    -10.24      0.00
   10   18    2      3.64      0.00
   11   18    2      7.75      0.00
   12   18    2     15.33      0.00
    8   19    2     18.31      0.00
    9   19    2      3.47      0.00
   10   19    2     -7.09      0.00
   11   19    2     -4.19      0.00
    7   20    2     16.13      0.00
    8   20    2     -5.38      0.00
    9   20    2     18.23      0.00
    6   21    2     18.63      0.00
    5    6    3    -12.09      0.00
    6    7    3     11.70      0.00
    6    8    3    -21.87      0.00
    7    8    3     20.58      0.00
    7    9    3     -0.50      0.00
    8    9    3    -13.66      0.00
    7   10    3    -29.74      0.00
    8   10    3    -32.91      0.00
    9   10    3     -4.72      0.00
    7   11    3     11.42      0.00
    8   11    3     11.35      0.00
    9   11    3     -7.24      0.00
   10   11    3    -33.33      0.00
    8   12    3     16.42      0.00
    9   12    3    -27.30      0.00
   10   12    3     29.50      0.00
   11   12    3     26.16      0.00
    8   13    3      0.80      0.00
    9   13    3     13.42      0.00
   10   13    3      5.97      0.00
   11   13    3     20.99      0.00
   12   13    3     -7.51      0.00
    8   14    3     23.52      0.00
    9   14    3     -2.67      0.00
   10   14    3    -19.22      0.00
   11   14    3    -34.53      0.00
   12   14    3     -6.10      0.00
   13   14    3     13.47      0.00
    8   15    3    -24.48      0.00
    9   15    3      2.64      0.00
   10   15    3    -13.18      0.00
   11   15    3     12.34      0.00
   12   15    3      8.23      0.00
   13   15    3      5.60      0.00
   14   15    3    -10.03      0.00
    8   16    3     -7.18      0.00
    9   16    3     -5.78      0.00
   10   16    3      7.62      0.00
   11   16    3    -17.34      0.00
   12   16    3    -18.14      0.00
   13   16    3    -10.41      0.00
   14   16    3      0.23      0.00
    8   17    3     -5.45      0.00
    9   17    3      7.35      0.00
   10   17    3    -14.49      0.00
   11   17    3    -17.19      0.00
   12   17    3     19.57      0.00
   13   17    3      0.17      0.00
    8   18    3     -4.29      0.00
    9   18    3    -35.72      0.00
   10   18    3    -24.34      0.00
   11   18    3     -5.92      0.00
   12   18    3      2.60      0.00
    8   19    3      6.62      0.00
    9   19    3     -7.96      0.00
   10   19    3      0.18      0.00
    7   20    3     12.52      0.00
    8   20    3      7.38      0.00
    6   21    3     -6.43      0.00
    4    4    4     18.77      0.00
    6    6    4     44.68      0.00
    7    7    4    -17.26      0.00
    7    8    4     13.90      0.00
    8    8    4     -1.00      0.00
    7    9    4     -2.16      0.00
    8    9    4     29.32      0.00
    9    9    4     10.19      0.00
    7   10    4     24.35      0.00
    8   10    4     -2.59      0.00
    9   10    4      5.71      0.00
   10   10    4      7.54      0.00
    8   11    4     10.44      0.00
    9   11    4     15.15      0.00
   10   11    4      1.30      0.00
   11   11    4     22.62      0.00
    8   12    4     11.34      0.00
    9   12    4      0.86      0.00
   10   12    4     -5.91      0.00
   11   12    4     10.48      0.00
   12   12    4      9.49      0.00
    8   13    4    -16.25      0.00
    9   13    4     12.53      0.00
   10   13    4    -21.31      0.00
   11   13    4     -5.45      0.00
   12   13    4     10.15      0.00
   13   13    4     -2.92      0.00
    8   14    4      8.03      0.00
    9   14    4      1.20      0.00
   10   14    4     11.12      0.00
   11   14    4     -6.09      0.00
   12   14    4     -6.47      0.00
   13   14    4      4.55      0.00
   14   14    4    -20.75      0.00
    8   15    4     -0.68      0.00
    9   15    4     16.45      0.00
   10   15    4     -9.26      0.00
   11   15    4     21.16      0.00
   12   15    4     28.86      0.00
   13   15    4      9.88      0.00
   14   15    4      2.63      0.00
   15   15    4     -7.38      0.00
    8   16    4    -10.92      0.00
    9   16    4      7.66      0.00
   10   16    4      0.20      0.00
   11   16    4      2.14      0.00
   12   16    4      9.89      0.00
   13   16    4     -4.91      0.00
   14   16    4    -20.60      0.00
    8   17    4     -9.39      0.00
    9   17    4     25.40      0.00
   10   17    4     18.73      0.00
   11   17    4     -5.38      0.00
   12   17    4      0.11      0.00
   13   17    4     -6.95      0.00
    8   18    4     -3.09      0.00
    9   18    4      0.85      0.00
   10   18    4     -0.98      0.00
   11   18    4     -9.44      0.00
   12   18    4     -3.12      0.00
    8   19    4    -17.20      0.00
    9   19    4      1.71      0.00
   10   19    4     -2.59      0.00
    6   20    4     18.95      0.00
    7   20    4     -1.97      0.00
    8   20    4      1.30      0.00
    5   21    4    -23.38      0.00
    6   21    4      8.71      0.00
    7    8    5     32.18      0.00
    8    9    5      4.31      0.00
    8   10    5     10.83      0.00
    9   10    5     -0.75      0.00
    8   11    5    -12.41      0.00
    9   11    5     13.37      0.00
   10   11    5    -14.48      0.00
    8   12    5      8.29      0.00
    9   12    5     -8.68      0.00
   10   12    5     -6.65      0.00
   11   12    5    -13.12      0.00
    8   13    5    -24.07      0.00
    9   13    5     -4.34      0.00
   10   13    5     41.82      0.00
   11   13    5     22.61      0.00
   12   13    5     -4.97      0.00
    8   14    5     -9.20      0.00
    9   14    5     -8.48      0.00
   10   14    5      5.69      0.00
   11   14    5      5.04      0.00
   12   14    5     -8.49      0.00
   13   14    5     11.99      0.00
    8   15    5     -1.05      0.00
    9   15    5    -14.71      0.00
   10   15    5     -9.20      0.00
   11   15    5    -26.53      0.00
   12   15    5      3.33      0.00
   13   15    5     -7.25      0.00
   14   15    5     22.88      0.00
    8   16    5    -27.63      0.00
    9   16    5     -5.17      0.00
   10   16    5    -23.10      0.00
   11   16    5    -12.69      0.00
   12   16    5      3.24      0.00
   13   16    5     16.87      0.00
   14   16    5    -10.02      0.00
    8   17    5    -11.06      0.00
    9   17    5     21.43      0.00
   10   17    5     14.50      0.00
   11   17    5     -4.96      0.00
   12   17    5     24.20      0.00
   13   17    5     12.19      0.00
    8   18    5     -6.24      0.00
    9   18    5      4.86      0.00
   10   18    5     14.07      0.00
   11   18    5    -17.35      0.00
   12   18    5      0.56      0.00
    8   19    5     -5.69      0.00
    9   19    5    -14.94      0.00
   10   19    5     14.01      0.00
    5   20    5    -35.34      0.00
    6   20    5      0.10      0.00
    7   20    5      3.01      0.00
    8   20    5      7.32      0.00
    4   21    5    -34.05      0.00
    5   21    5      4.34      0.00
    8    8    6    -15.69      0.00
    8    9    6     19.44      0.00
    9    9    6    -35.36      0.00
    8   10    6    -15.24      0.00
    9   10    6    -14.97      0.00
   10   10    6    -30.02      0.00
    8   11    6      5.44      0.00
    9   11    6     46.61      0.00
   10   11    6      2.91      0.00
   11   11    6     -7.52      0.00
    9   12    6    -16.67      0.00
   10   12    6     -7.84      0.00
   11   12    6     -0.09      0.00
   12   12    6     -6.17      0.00
    8   13    6    -59.20      0.00
    9   13    6     -1.53      0.00
   10   13    6     -7.68      0.00
   11   13    6    -20.13      0.00
   12   13    6    -22.82      0.00
   13   13    6    -11.10      0.00
    9   14    6     11.90      0.00
   10   14    6     14.36      0.00
   11   14    6     -6.18      0.00
   12   14    6     -5.90      0.00
   13   14    6    -10.51      0.00
   14   14    6    -11.31      0.00
    9   15    6      2.81      0.00
   10   15    6     13.24      0.00
   11   15    6     11.12      0.00
   12   15    6     25.79      0.00
   13   15    6      7.57      0.00
   14   15    6     -6.11      0.00
   15   15    6     16.64      0.00
    9   16    6     19.80      0.00
   10   16    6     -3.04      0.00
   11   16    6     37.96      0.00
   12   16    6     -9.06      0.00
   13   16    6    -23.71      0.00
   14   16    6    -14.73      0.00
    9   17    6      5.71      0.00
   10   17    6     25.15      0.00
   11   17    6     12.27      0.00
   12   17    6      8.12      0.00
   13   17    6      1.37      0.00
    8   18    6     21.48      0.00
    9   18    6     -0.20      0.00
   10   18    6      3.93      0.00
   11   18    6     12.84      0.00
   12   18    6     -0.25      0.00
    8   19    6      1.51      0.00
    9   19    6      8.34      0.00
   10   19    6      8.47      0.00
    5   20    6    -18.25      0.00
    6   20    6     29.10      0.00
    7   20    6    -13.82      0.00
    8   20    6      1.68      0.00
    3   21    6    -45.71      0.00
    4   21    6     -6.68      0.00
    5   21    6     12.15      0.00
    9   10    7     34.25      0.00
    9   11    7    -18.41      0.00
   10   11    7      3.36      0.00
    9   12    7     22.34      0.00
   10   12    7    -17.27      0.00
   11   12    7      2.55      0.00
    9   13    7     15.81      0.00
   10   13    7     -2.57      0.00
   11   13    7      5.48      0.00
   12   13    7     11.07      0.00
    9   14    7    -17.50      0.00
   10   14    7     -3.50      0.00
   11   14    7    -11.47      0.00
   12   14    7    -16.74      0.00
   13   14    7     -0.32      0.00
    9   15    7      1.76      0.00
   10   15    7      4.32      0.00
   11   15    7    -13.42      0.00
   12   15    7     -9.85      0.00
   13   15    7     -3.18      0.00
   14   15    7     -4.04      0.00
    9   16    7      4.67      0.00
   10   16    7      3.53      0.00
   11   16    7    -17.00      0.00
   12   16    7     -7.79      0.00
   13   16    7     -8.32      0.00
   14   16    7     21.68      0.00
    9   17    7    -16.81      0.00
   10   17    7    -14.15      0.00
   11   17    7    -33.56      0.00
   12   17    7     17.95      0.00
   13   17    7      5.88      0.00
    9   18    7    -13.17      0.00
   10   18    7      0.48      0.00
   11   18    7     -3.43      0.00
    8   19    7      1.23      0.00
    9   19    7     -6.57      0.00
   10   19    7      4.04      0.00
    4   20    7    -31.48      0.00
    5   20    7    -12.67      0.00
    6   20    7    -14.81      0.00
    7   20    7     -6.18      0.00
    8   20    7      9.78      0.00
    3   21    7    -25.02      0.00
    4   21    7    -28.98      0.00
    5   21    7     -5.25      0.00
    9    9    8    -10.77      0.00
    9   10    8      8.83      0.00
   10   10    8    -31.17      0.00
    9   11    8    -23.82      0.00
   10   11    8    -18.99      0.00
   11   11    8    -23.77      0.00
    9   12    8      2.03      0.00
   10   12    8     -0.31      0.00
   11   12    8    -18.64      0.00
   12   12    8     -9.43      0.00
    9   13    8    -16.90      0.00
   10   13    8     30.70      0.00
   11   13    8      4.33      0.00
   12   13    8     22.95      0.00
   13   13    8      8.93      0.00
    9   14    8     21.13      0.00
   10   14    8     18.34      0.00
   11   14    8     20.85      0.00
   12   14    8     -6.58      0.00
   13   14    8     20.30      0.00
   14   14    8     15.90      0.00
    9   15    8      5.69      0.00
   10   15    8     -5.54      0.00
   11   15    8    -11.08      0.00
   12   15    8      3.35      0.00
   13   15    8      2.30      0.00
   14   15    8    -13.64      0.00
   15   15    8     -4.25      0.00
    9   16    8     10.95      0.00
   10   16    8      9.82      0.00
   11   16    8      4.10      0.00
   12   16    8    -25.01      0.00
   13   16    8    -16.94      0.00
   14   16    8      4.23      0.00
    9   17    8     -3.09      0.00
   10   17    8    -25.02      0.00
   11   17    8      6.87      0.00
   12   17    8     12.61      0.00
   13   17    8     -0.19      0.00
    9   18    8     -3.41      0.00
   10   18    8     -5.17      0.00
   11   18    8     -0.34      0.00
    8   19    8     -8.89      0.00
    9   19    8      1.50      0.00
   10   19    8     -8.62      0.00
    4   20    8    -12.14      0.00
    5   20    8      1.76      0.00
    6   20    8     26.12      0.00
    7   20    8      3.05      0.00
    3   21    8    -18.86      0.00
    4   21    8     -0.53      0.00
    9   10    9    -24.46      0.00
    9   11    9     15.24      0.00
   10   11    9     35.72      0.00
   10   12    9    -15.59      0.00
   11   12    9    -14.73      0.00
   10   13    9     -8.01      0.00
   11   13    9     38.77      0.00
   12   13    9      8.57      0.00
   10   14    9    -13.67      0.00
   11   14    9     12.40      0.00
   12   14    9    -24.32      0.00
   13   14    9      2.67      0.00
   10   15    9    -14.85      0.00
   11   15    9     -0.56      0.00
   12   15    9     24.17      0.00
   13   15    9      9.15      0.00
   14   15    9    -12.38      0.00
    9   16    9    -29.59      0.00
   10   16    9    -31.05      0.00
   11   16    9     -1.05      0.00
   12   16    9      9.54      0.00
   13   16    9      9.96      0.00
   14   16    9     12.30      0.00
    9   17    9    -39.19      0.00
   10   17    9     13.71      0.00
   11   17    9      9.01      0.00
   12   17    9     -1.18      0.00
    9   18    9    -10.42      0.00
   10   18    9     13.88      0.00
   11   18    9    -12.06      0.00
    8   19    9     10.58      0.00
    9   19    9     -4.85      0.00
    4   20    9    -10.47      0.00
    5   20    9    -14.79      0.00
    6   20    9      9.19      0.00
    7   20    9    -12.38      0.00
    0   21    9    -12.58      0.00
    1   21    9      1.34      0.00
    3   21    9     -5.32      0.00
    9    9   10     70.92      0.00
   10   10   10      0.11      0.00
   10   11   10    -13.81      0.00
   11   11   10     -4.07      0.00
   10   12   10     42.80      0.00
   11   12   10    -18.32      0.00
   12   12   10    -17.13      0.00
   10   13   10     14.58      0.00
   11   13   10     22.90      0.00
   12   13   10    -20.34      0.00
   13   13   10    -36.80      0.00
   10   14   10    -34.83      0.00
   11   14   10    -11.21      0.00
   12   14   10      2.17      0.00
   13   14   10     -5.70      0.00
   14   14   10     19.68      0.00
   10   15   10    -20.62      0.00
   11   15   10     15.19      0.00
   12   15   10      1.23      0.00
   13   15   10    -10.66      0.00
   14   15   10    -23.17      0.00
   10   16   10     14.63      0.00
   11   16   10      2.96      0.00
   12   16   10      0.81      0.00
   13   16   10     -0.34      0.00
   10   17   10      0.84      0.00
   11   17   10    -23.05      0.00
   12   17   10      2.86      0.00
   10   18   10      5.02      0.00
   11   18   10      6.55      0.00
    7   19   10     19.74      0.00
    8   19   10    -20.71      0.00
    9   19   10     -2.05      0.00
    0   20   10     -5.86      0.00
    1   20   10     -3.24      0.00
    2   20   10      6.46      0.00
    3   20   10     21.34      0.00
    4   20   10    -17.60      0.00
    5   20   10     -2.70      0.00
    6   20   10      6.80      0.00
    1   21   10      8.52      0.00
    2   21   10     -9.43      0.00
   10   11   11    -29.83      0.00
   10   12   11     -7.37      0.00
   11   12   11     15.16      0.00
   10   13   11     37.43      0.00
   11   13   11    -13.38      0.00
   12   13   11    -19.81      0.00
   10   14   11    -44.29      0.00
   11   14   11      2.25      0.00
   12   14   11      5.37      0.00
   13   14   11     12.41      0.00
   10   15   11      1.95      0.00
   11   15   11     11.55      0.00
   12   15   11     -3.74      0.00
   13   15   11     11.47      0.00
   14   15   11      9.06      0.00
   10   16   11    -60.14      0.00
   11   16   11     -3.74      0.00
   12   16   11     17.78      0.00
   13   16   11      5.56      0.00
   10   17   11     32.57      0.00
   11   17   11     17.74      0.00
   12   17   11     -1.12      0.00
   10   18   11     -1.74      0.00
    7   19   11    -15.60      0.00
    8   19   11     -5.11      0.00
    1   20   11     30.17      0.00
    2   20   11     11.79      0.00
    3   20   11     25.26      0.00
    4   20   11     19.07      0.00
    5   20   11     -5.13      0.00
    6   20   11     29.26      0.00
   11   11   12     38.97      0.00
    6   12   12      3.67      0.00
   11   12   12      0.08      0.00
   12   12   12     21.28      0.00
   11   13   12    -19.46      0.00
   12   13   12     11.76      0.00
   13   13   12    -15.28      0.00
   11   14   12     20.43      0.00
   12   14   12    -10.55      0.00
   13   14   12      4.01      0.00
   14   14   12     -6.81      0.00
   10   15   12      3.30      0.00
   11   15   12     20.69      0.00
   12   15   12     -5.75      0.00
   13   15   12    -11.42      0.00
   14   15   12     -3.72      0.00
   10   16   12    -14.07      0.00
   11   16   12     11.04      0.00
   12   16   12      6.64      0.00
   13   16   12     -8.65      0.00
   10   17   12    -18.33      0.00
   11   17   12     -7.58      0.00
   10   18   12     -6.97      0.00
    6   19   12    -25.21      0.00
    7   19   12    -12.76      0.00
    8   19   12     12.40      0.00
    0   20   12      4.85      0.00
    1   20   12    -13.15      0.00
    2   20   12      4.11      0.00
    3   20   12     -2.08      0.00
    4   20   12    -16.55      0.00
    5   20   12      1.61      0.00
    5   12   13     19.56      0.00
   11   12   13     -6.73      0.00
   11   13   13    -28.16      0.00
   12   13   13    -29.14      0.00
   11   14   13     20.96      0.00
   12   14   13     -2.03      0.00
   13   14   13      6.34      0.00
   11   15   13     25.09      0.00
   12   15   13      9.56      0.00
   13   15   13     -7.71      0.00
   14   15   13      8.84      0.00
   11   16   13     -8.89      0.00
   12   16   13      7.89      0.00
   10   17   13      0.45      0.00
   11   17   13    -13.22      0.00
    6   19   13     20.46      0.00
    7   19   13    -10.66      0.00
    1   20   13    -19.95      0.00
    2   20   13      5.27      0.00
    3   20   13    -17.33      0.00
    4   20   13    -15.93      0.00
    8    8   14     -8.74      0.00
   11   11   14    -15.59      0.00
    4   12   14     -4.72      0.00
   11   12   14    -24.05      0.00
   12   12   14     45.49      0.00
   11   13   14    -12.45      0.00
   12   13   14     15.10      0.00
   13   13   14     22.95      0.00
   11   14   14    -32.92      0.00
   12   14   14    -15.42      0.00
   13   14   14      2.13      0.00
   14   14   14     -2.50      0.00
   11   15   14    -22.63      0.00
   12   15   14      7.97      0.00
   13   15   14      2.66      0.00
   10   16   14    -10.38      0.00
   11   16   14     10.21      0.00
   12   16   14     -9.30      0.00
   10   17   14      6.98      0.00
   11   17   14     13.66      0.00
    9   18   14    -28.69      0.00
    5   19   14     11.23      0.00
    6   19   14     -9.02      0.00
    7   19   14    -41.80      0.00
    0   20   14     24.94      0.00
    1   20   14     13.35      0.00
    2   20   14     -3.99      0.00
    3   20   14     33.49      0.00
    7    8   15      9.45      0.00
    2   12   15     25.61      0.00
    3   12   15      9.60      0.00
   12   13   15     33.78      0.00
   12   14   15    -13.75      0.00
   13   14   15    -14.17      0.00
   11   15   15    -31.00      0.00
   12   15   15     -9.58      0.00
   13   15   15     18.76      0.00
    9   16   15      5.08      0.00
   10   16   15    -11.89      0.00
   11   16   15     12.05      0.00
   12   16   15    -17.37      0.00
    9   17   15    -17.38      0.00
   10   17   15    -10.24      0.00
    0   19   15     70.30      0.00
    1   19   15     19.45      0.00
    2   19   15    -11.53      0.00
    3   19   15     30.25      0.00
    4   19   15     12.19      0.00
    5   19   15    -44.58      0.00
    6   19   15      8.51      0.00
    1   20   15     -2.50      0.00
    0    0   16    -13.78      0.00
    7    7   16    -25.17      0.00
    6    8   16     32.09      0.00
   12   12   16     21.01      0.00
   12   13   16     24.71      0.00
   13   13   16     32.44      0.00
   12   14   16      0.08      0.00
   13   14   16      4.83      0.00
   14   14   16    -11.83      0.00
   12   15   16     14.03      0.00
    8   16   16     -0.80      0.00
    9   16   16     14.57      0.00
   10   16   16    -32.37      0.00
   11   16   16     12.97      0.00
    9   17   16     23.20      0.00
   10   17   16     12.82      0.00
    8   18   16    -11.10      0.00
    1   19   16     -5.24      0.00
    2   19   16     10.73      0.00
    3   19   16      9.37      0.00
    4   19   16     -0.66      0.00
    5   19   16     19.40      0.00
    6    7   17    -13.96      0.00
    5    8   17    -30.38      0.00
    0   11   17    -26.38      0.00
   12   13   17      7.40      0.00
   12   14   17    -13.71      0.00
   13   14   17     -1.42      0.00
   12   15   17     -3.05      0.00
    7   16   17     10.24      0.00
    8   16   17    -19.63      0.00
    9   16   17     15.58      0.00
   10   16   17     18.73      0.00
   11   16   17     -4.39      0.00
    7   17   17     21.23      0.00
    8   17   17    -12.71      0.00
    9   17   17      5.31      0.00
    7   18   17      6.60      0.00
    0   19   17     33.62      0.00
    1   19   17      4.12      0.00
    2   19   17     29.63      0.00
    3   19   17    -31.68      0.00
    4   19   17      8.23      0.00
    0    0   18     83.87      0.00
    6    6   18     -7.18      0.00
    5    7   18      5.44      0.00
    4    8   18    -32.68      0.00
   12   12   18    -12.61      0.00
   12   13   18     -6.56      0.00
   13   13   18    -54.56      0.00
   12   14   18    -16.26      0.00
   13   14   18      8.05      0.00
    6   16   18    -35.58      0.00
    7   16   18     18.28      0.00
    8   16   18     17.96      0.00
    9   16   18    -29.23      0.00
    6   17   18     11.39      0.00
    7   17   18     -8.36      0.00
    8   17   18    -28.11      0.00
    6   18   18      2.36      0.00
    1   19   18     -4.81      0.00
    2   19   18     27.51      0.00
    5    6   19     -1.70      0.00
    4    7   19     -2.97      0.00
   12   14   19     14.74      0.00
   11   15   19    -12.32      0.00
    5   16   19     -3.03      0.00
    6   16   19      9.05      0.00
    7   16   19     36.08      0.00
    5   17   19     26.01      0.00
    6   17   19     -1.51      0.00
    7   17   19     -3.64      0.00
    8   17   19    -18.68      0.00
    5   18   19    -10.36      0.00
    0    0   20     94.35      0.00
    5    5   20     22.97      0.00
    4    6   20     -7.32      0.00
   12   13   20     -3.66      0.00
   13   13   20    -10.48      0.00
   11   14   20      0.93      0.00
   12   14   20     19.92      0.00
   10   15   20    -14.56      0.00
    4   16   20     37.16      0.00
    5   16   20     -6.85      0.00
    6   16   20     38.95      0.00
    9   16   20     31.93      0.00
    4   17   20    -23.50      0.00
    5   17   20     25.46      0.00
    6   17   20      1.20      0.00
    7   17   20    -19.47      0.00
    0   18   20     57.39      0.00
    1   18   20     13.57      0.00
    4   18   20     -6.47      0.00
   11   13   21     -6.06      0.00
   12   13   21     15.88      0.00
   10   14   21    -18.77      0.00
   11   14   21     15.74      0.00
    9   15   21    -15.64      0.00
   10   15   21     21.60      0.00
    2   16   21    -17.30      0.00
    3   16   21     -0.48      0.00
    4   16   21    -15.55      0.00
    5   16   21     27.59      0.00
    8   16   21     24.15      0.00
    0   17   21      1.24      0.00
    3   17   21     17.21      0.00
    4   17   21    -35.63      0.00
    5   17   21     -3.92      0.00
    6   17   21      3.20      0.00
    1   18   21     26.13      0.00
    0    0   22     89.90      0.00
   11   12   22      0.60      0.00
   12   12   22    -43.03      0.00
   11   13   22     -9.40      0.00
    0   14   22     59.18      0.00
   10   14   22    -26.74      0.00
    8   15   22    -33.22      0.00
    9   15   22     -1.21      0.00
    0   16   22     -7.52      0.00
    1   16   22      3.15      0.00
    2   16   22     61.45      0.00
    3   16   22     28.95      0.00
    4   16   22     -7.69      0.00
    7   16   22     39.08      0.00
    1   17   22      3.30      0.00
    2   17   22     -4.28      0.00
    3   17   22      0.43      0.00
    4   17   22      4.49      0.00
    0    1   23    -22.21      0.00
   11   12   23    -17.57      0.00
   10   13   23     13.45      0.00
   11   13   23     11.94      0.00
    9   14   23    -35.64      0.00
    0   15   23     36.22      0.00
    1   15   23     16.18      0.00
    7   15   23     -7.88      0.00
    8   15   23     25.42      0.00
    1   16   23     -6.62      0.00
    2   16   23    -24.85      0.00
    3   16   23     46.68      0.00
    6   16   23     -1.80      0.00
    0   17   23     27.88      0.00
    1   17   23      5.32      0.00
    2   17   23    -10.99      0.00
    0    0   24    -60.88      0.00
    1    1   24     27.70      0.00
    0    2   24     -3.63      0.00
    0    4   24      1.86      0.00
   11   11   24     27.58      0.00
   10   12   24      6.81      0.00
   11   12   24     14.57      0.00
    9   13   24      8.90      0.00
   10   13   24    -27.26      0.00
    0   14   24     -0.63      0.00
    1   14   24     22.35      0.00
    7   14   24     -3.12      0.00
    8   14   24     -4.11      0.00
    9   14   24     -0.71      0.00
    1   15   24      2.71      0.00
    6   15   24     33.03      0.00
    7   15   24    -15.62      0.00
    0   16   24    -16.18      0.00
    1   16   24    -29.91      0.00
    2   16   24     -2.34      0.00
    4   16   24    -15.36      0.00
    0    1   25    -38.98      0.00
    0    3   25     36.40      0.00
   10   11   25    -16.07      0.00
    9   12   25     59.53      0.00
   10   12   25    -30.93      0.00
    8   13   25     -1.07      0.00
    9   13   25     14.19      0.00
    1   14   25      8.87      0.00
    6   14   25    -32.39      0.00
    7   14   25     17.02      0.00
    8   14   25     -5.02      0.00
    0   15   25     -8.86      0.00
    1   15   25    -13.14      0.00
    4   15   25    -80.18      0.00
    5   15   25     22.56      0.00
    6   15   25     -5.74      0.00
    1   16   25     -5.73      0.00
    2   16   25    -37.78      0.00
    0    0   26    -43.91      0.00
    1    1   26     48.47      0.00
   10   10   26      4.54      0.00
    9   11   26     25.03      0.00
   10   11   26    -40.35      0.00
   11   11   26    -30.92      0.00
    8   12   26    -37.92      0.00
    9   12   26     -8.33      0.00
    6   13   26      8.20      0.00
    7   13   26     12.33      0.00
    8   13   26     33.26      0.00
    0   14   26      1.65      0.00
    4   14   26     18.26      0.00
    5   14   26     29.91      0.00
    6   14   26      6.66      0.00
    1   15   26     10.38      0.00
    2   15   26    -16.84      0.00
    3   15   26     10.09      0.00
    4   15   26    -29.23      0.00
    0    1   27    -19.66      0.00
    9   10   27    -31.23      0.00
    8   11   27    -25.15      0.00
    9   11   27      8.59      0.00
   10   11   27      7.59      0.00
    6   12   27     -6.95      0.00
    7   12   27     22.97      0.00
    8   12   27     22.75      0.00
    0   13   27    -19.80      0.00
    5   13   27     19.93      0.00
    6   13   27     -0.87      0.00
    7   13   27    -11.05      0.00
    3   14   27      9.81      0.00
    4   14   27    -40.71      0.00
    5   14   27     12.09      0.00
    0    0   28     79.59      0.00
    1    1   28     19.72      0.00
    0    2   28     42.43      0.00
    1    2   28    -16.92      0.00
    2    2   28     14.80      0.00
    9    9   28    -22.24      0.00
    8   10   28      7.26      0.00
    9   10   28     18.46      0.00
   10   10   28      7.19      0.00
    6   11   28      3.23      0.00
    7   11   28    -18.18      0.00
    8   11   28     18.34      0.00
    9   11   28     11.66      0.00
    0   12   28    -12.11      0.00
    5   12   28     -4.85      0.00
    6   12   28    -22.30      0.00
    7   12   28     10.52      0.00
    4   13   28     -6.36      0.00
    5   13   28      6.37      0.00
    0   14   28    -21.05      0.00
    1   14   28      1.96      0.00
    2   14   28     -3.74      0.00
    0    1   29    -21.78      0.00
    1    2   29     19.38      0.00
    8    9   29     -5.92      0.00
    6   10   29     -2.14      0.00
    7   10   29    -12.09      0.00
    8   10   29    -23.82      0.00
    9   10   29     -3.41      0.00
    0   11   29     -0.53      0.00
    5   11   29     13.72      0.00
    6   11   29     10.71      0.00
    7   11   29    -40.06      0.00
    4   12   29    -20.72      0.00
    5   12   29      7.70      0.00
    6   12   29      9.88      0.00
    0   13   29      2.41      0.00
    1   13   29     -0.25      0.00
    2   13   29    -19.49      0.00
    3   13   29    -14.03      0.00
    0    0   30     57.04      0.00
    1    1   30    -29.49      0.00
    0    2   30     -6.98      0.00
    1    2   30    -20.37      0.00
    2    2   30     22.34      0.00
    0    8   30    -30.17      0.00
    7    8   30     15.01      0.00
    8    8   30     35.67      0.00
    6    9   30     10.00      0.00
    7    9   30     19.21      0.00
    8    9   30    -15.52      0.00
    9    9   30      5.01      0.00
    0   10   30    -19.11      0.00
    5   10   30    -21.80      0.00
    6   10   30    -33.50      0.00
    7   10   30     10.47      0.00
    4   11   30    -14.13      0.00
    5   11   30     15.02      0.00
    6   11   30     -0.97      0.00
    0   12   30     32.80      0.00
    1   12   30      0.00      0.00
    3   12   30    -20.24      0.00
    4   12   30    -11.00      0.00
    0    1   31     11.18      0.00
    1    2   31     -3.90      0.00
    0    3   31     -3.45      0.00
    1    3   31    -26.11      0.00
    2    3   31    -50.24      0.00
    0    7   31      4.87      0.00
    6    8   31      8.43      0.00
    7    8   31    -16.78      0.00
    0    9   31     11.55      0.00
    5    9   31    -18.73      0.00
    6    9   31     42.89      0.00
    7    9   31     -5.52      0.00
    4   10   31     -8.77      0.00
    5   10   31    -11.24      0.00
    6   10   31     23.34      0.00
    0   11   31     -8.11      0.00
    1   11   31     -5.43      0.00
    3   11   31      9.20      0.00
    4   11   31      1.58      0.00
    0    0   32     29.39      0.00
    1    1   32     -2.74      0.00
    0    2   32    -14.76      0.00
    1    2   32    -28.76      0.00
    2    2   32     13.72      0.00
    1    3   32      1.76      0.00
    2    3   32     33.56      0.00
    3    3   32    -18.81      0.00
    0    6   32    -49.31      0.00
    6    6   32     15.79      0.00
    6    7   32    -26.65      0.00
    7    7   32     23.31      0.00
    0    8   32     15.88      0.00
    5    8   32     -8.77      0.00
    6    8   32    -14.72      0.00
    7    8   32     -1.66      0.00
    4    9   32     -7.13      0.00
    5    9   32      9.12      0.00
    6    9   32     -1.17      0.00
    0   10   32     -3.91      0.00
    1   10   32    -12.78      0.00
    3   10   32     -0.84      0.00
    4   10   32    -11.49      0.00
    0    1   33     20.05      0.00
    1    2   33     14.66      0.00
    0    3   33     18.14      0.00
    1    3   33      5.86      0.00
    2    3   33      1.69      0.00
    0    5   33    -47.52      0.00
    5    6   33     39.90      0.00
    0    7   33     25.38      0.00
    4    7   33     26.08      0.00
    5    7   33    -17.97      0.00
    6    7   33     -8.99      0.00
    1    8   33    -21.39      0.00
    3    8   33     33.83      0.00
    4    8   33      0.82      0.00
    5    8   33    -15.38      0.00
    0    9   33      4.19      0.00
    1    9   33     22.44      0.00
    2    9   33    -13.67      0.00
    3    9   33     -4.64      0.00
    0    0   34     50.42      0.00
    1    1   34    -12.48      0.00
    0    2   34    -21.34      0.00
    1    2   34    -19.26      0.00
    2    2   34    -12.94      0.00
    1    3   34     23.24      0.00
    2    3   34     29.29      0.00
    3    3   34    -15.31      0.00
    0    4   34      8.51      0.00
    1    4   34     14.29      0.00
    2    4   34      0.02      0.00
    3    4   34     -7.75      0.00
    4    4   34     11.87      0.00
    3    5   34     -4.49      0.00
    4    5   34     -4.11      0.00
    5    5   34      9.64      0.00
    0    6   34     15.39      0.00
    4    6   34     23.51      0.00
    5    6   34     -0.51      0.00
    6    6   34    -26.41      0.00
    1    7   34      1.78      0.00
    3    7   34     -4.25      0.00
    4    7   34     -1.70      0.00
    0    8   34     23.25      0.00
    1    8   34     21.65      0.00
    2    8   34     -4.67      0.00
    0    1   35    -44.64      0.00
    1    2   35     -2.78      0.00
    0    3   35      8.89      0.00
    1    3   35     14.03      0.00
    2    3   35      0.69      0.00
    1    4   35      4.37      0.00
    2    4   35    -27.15      0.00
    3    4   35    -40.08      0.00
    0    5   35    -31.66      0.00
    2    5   35      9.68      0.00
    3    5   35     -0.15      0.00
    4    5   35    -22.21      0.00
    1    6   35    -33.17      0.00
    2    6   35     -1.84      0.00
    3    6   35      7.05      0.00
    0    0    0      0.00      0.00
# SQUEEZE RESULTS (Version =  70515)
# Note: Data are Listed for all Voids in the P1 Unit Cell
# i.e. Centre of Gravity, Solvent Accessible Volume,
# Recovered number of Electrons in the Void and
# Details about the Squeezed Material
loop_
  _platon_squeeze_void_nr
  _platon_squeeze_void_average_x
  _platon_squeeze_void_average_y
  _platon_squeeze_void_average_z
  _platon_squeeze_void_volume
  _platon_squeeze_void_count_electrons
  _platon_squeeze_void_content
   1 -0.010  0.397 -0.004      8807      3497 ' '
# Missing Reflections Below sin(th)/lambda = 0.25
loop_
  _platon_missing_refln_index_h
  _platon_missing_refln_index_k
  _platon_missing_refln_index_l
  _platon_missing_refln_theta
    1    1    0     1.435
    2    2    0     2.871
    3    3    0     4.309
    3    4    0     5.081
    4    4    0     5.750
    4    5    0     6.512
    5    5    0     7.194
    4    6    0     7.338
    5    6    0     7.951
    6    6    0     8.643
    5    7    0     8.764
    6    7    0     9.398
    5    8    0     9.619
    0    1    1     1.182
    4    5    1     6.540
    5    6    1     7.975
    5    7    1     8.785
    6    7    1     9.418
    0    0    2     1.212
    4    4    2     5.877
    5    5    2     7.297
    5    6    2     8.044
    6    6    2     8.729
    6    7    2     9.477
    5    6    3     8.159
    6    7    3     9.575
    4    4    4     6.243
    6    6    4     8.982
    0    0   16     9.740
_platon_squeeze_void_probe_radius                  1.20
_platon_squeeze_details
)
TITL g2yy_2xwitP 4/m n c    R = 0.34
CELL   19.4481   19.4481   32.5750     90.00     90.00     90.00
SPGR P4/mnc
# Solvent Accessible Volume =    8890.7
# Electrons Found in S.A.V. =    3420.0
# Note: Atoms in Void as Cxxx and Qxxx all others
Q101 0.825 0.251 0.021 !       3.97 eA-3
C102 0.500 0.497 0.312 !       3.90 eA-3
Q103 0.927 0.094-0.002 !       3.85 eA-3
Q104 0.678 0.941 0.024 !       3.60 eA-3
C105 0.938 0.359 0.000 !       3.48 eA-3
C106 0.051 0.425 0.053 !       3.46 eA-3
C107 0.216 0.886 0.091 !       3.42 eA-3
C108 0.343 0.233 0.092 !       3.39 eA-3
C109 0.381 0.735 0.320 !       3.36 eA-3
C110 0.394 0.411 0.070 !       3.36 eA-3
C111 0.265 0.338 0.359 !       3.35 eA-3
Q112 0.750 0.152 0.054 !       3.32 eA-3
Q113 0.250 0.848 0.946 !       3.32 eA-3
C114 0.346 0.754 0.445 !       3.32 eA-3
C115 0.897 0.328 0.002 !       3.30 eA-3
C116 0.668 0.172 0.499 !       3.23 eA-3
C117 0.967 0.012 0.213 !       3.22 eA-3
Q118 0.738 0.171 0.044 !       3.14 eA-3
C119 0.923 0.715 0.101 !       3.12 eA-3
C120 0.582 0.359 0.001 !       3.04 eA-3
C121 0.717 0.976 0.321 !       3.04 eA-3
C122 0.050 0.484 0.003 !       3.01 eA-3
Q123 0.371 0.297 0.502 !       3.00 eA-3
C124 0.687 0.573 0.237 !       2.99 eA-3
Q125 0.091 0.631 0.062 !       2.99 eA-3
C126 0.689 0.701 0.023 !       2.97 eA-3
C127 0.893 0.484-0.003 !       2.96 eA-3
C128 0.567 0.266 0.004 !       2.91 eA-3
C129 0.425 1.002 0.398 !       2.90 eA-3
C130 0.923 0.263 0.460 !       2.89 eA-3
C131 0.892 0.438 0.470 !       2.87 eA-3
C132 1.000 0.498 0.023 !       2.86 eA-3
C133 0.748 0.751 0.165 !       2.83 eA-3
C134 0.328 0.391 0.001 !       2.82 eA-3
C135 0.907 0.746 0.282 !       2.81 eA-3
Q136 0.284 0.250 0.500 !       2.78 eA-3
C137 0.296 0.123 0.035 !       2.76 eA-3
C138 0.764 0.266 0.032 !       2.75 eA-3
C139 0.232 0.734 0.470 !       2.75 eA-3
C140 0.024 0.313 0.311 !       2.74 eA-3
C141 0.120 0.020 0.452 !       2.73 eA-3
C142 0.216 0.376 0.351 !       2.73 eA-3
C143 0.830 0.628 0.465 !       2.72 eA-3
C144 0.410 0.109 0.000 !       2.72 eA-3
C145 0.297 0.266-0.002 !       2.72 eA-3
C146 0.189 0.266 0.499 !       2.70 eA-3
C147 0.284 0.677 0.109 !       2.69 eA-3
C148 0.787 0.780 0.414 !       2.69 eA-3
Q149 0.426 0.686 0.321 !       2.69 eA-3
C150 0.411 0.234-0.001 !       2.68 eA-3
C151 0.441 0.075 0.084 !       2.67 eA-3
C152 0.233 0.440 0.190 !       2.66 eA-3
C153 0.754 0.244 0.438 !       2.66 eA-3
C154 0.870 0.702 0.487 !       2.66 eA-3
Q155 0.765 0.360 0.204 !       2.65 eA-3
C156 0.629 0.421 0.220 !       2.65 eA-3
C157 0.550 0.070 0.485 !       2.64 eA-3
C158 0.212 0.844 0.078 !       2.60 eA-3
C159 0.212 0.843 0.922 !       2.60 eA-3
Q160 0.381 0.438 0.478 !       2.60 eA-3
C161 0.367 0.297-0.004 !       2.60 eA-3
C162 0.967 0.481 0.448 !       2.60 eA-3
Q163 0.292 0.298 0.444 !       2.60 eA-3
C164 0.174 0.238 0.186 !       2.59 eA-3
Q165 0.271 0.932 0.063 !       2.58 eA-3
C166 0.500 0.200 0.147 !       2.57 eA-3
C167 0.235 0.864 0.349 !       2.56 eA-3
C168 0.558 0.452 0.076 !       2.56 eA-3
C169 0.159 0.484 0.002 !       2.55 eA-3
C170 0.749 0.682 0.123 !       2.54 eA-3
C171 0.500 0.511 0.016 !       2.53 eA-3
C172 0.721 0.754 0.102 !       2.53 eA-3
C173 0.409 0.514 0.190 !       2.53 eA-3
C174 0.843 0.313 0.470 !       2.53 eA-3
C175 0.221 0.246 0.134 !       2.52 eA-3
C176 0.783 0.236 0.094 !       2.51 eA-3
C177 0.229 0.330 0.413 !       2.50 eA-3
C178 0.040 0.500 0.499 !       2.50 eA-3
C179 0.634 0.469-0.001 !       2.50 eA-3
C180 0.500 0.493 0.148 !       2.49 eA-3
C181 0.154 0.172 0.501 !       2.48 eA-3
C182 0.958 0.466 0.400 !       2.48 eA-3
Q183 0.670 0.578 0.398 !       2.48 eA-3
Q184 0.077 0.062 0.101 !       2.46 eA-3
C185 0.865 0.170 0.328 !       2.46 eA-3
C186 0.859 0.735 0.398 !       2.45 eA-3
C187 0.857 0.902 0.454 !       2.44 eA-3
C188 0.728 0.465 0.025 !       2.44 eA-3
C189 0.739 0.142 0.212 !       2.44 eA-3
C190 0.888 0.043 0.414 !       2.43 eA-3
C191 1.005 0.391 0.003 !       2.43 eA-3
C192 0.088 0.268 0.467 !       2.42 eA-3
C193 0.149 0.488 0.047 !       2.41 eA-3
C194 0.874 0.097 0.254 !       2.41 eA-3
Q195 0.720 0.437 0.504 !       2.41 eA-3
C196 0.246 0.011 0.359 !       2.40 eA-3
C197 0.515 0.745 0.857 !       2.40 eA-3
C198 0.425 0.600 0.236 !       2.40 eA-3
C199 0.532 0.045 0.071 !       2.39 eA-3
)
;
_shelx_shelxl_version_number     2014/7
_olex2_submission_special_instructions 'No special instructions were received'
loop_
_space_group_symop_operation_xyz
'x, y, z'
'-x, -y, z'
'-y, x, z'
'y, -x, z'
'-x+1/2, y+1/2, -z+1/2'
'x+1/2, -y+1/2, -z+1/2'
'y+1/2, x+1/2, -z+1/2'
'-y+1/2, -x+1/2, -z+1/2'
'-x, -y, -z'
'x, y, -z'
'y, -x, -z'
'-y, x, -z'
'x-1/2, -y-1/2, z-1/2'
'-x-1/2, y-1/2, z-1/2'
'-y-1/2, -x-1/2, z-1/2'
'y-1/2, x-1/2, z-1/2'
loop_
_atom_site_label
_atom_site_type_symbol
_atom_site_fract_x
_atom_site_fract_y
_atom_site_fract_z
_atom_site_U_iso_or_equiv
_atom_site_adp_type
_atom_site_occupancy
_atom_site_site_symmetry_order
_atom_site_calc_flag
_atom_site_refinement_flags_posn
_atom_site_refinement_flags_adp
_atom_site_refinement_flags_occupancy
_atom_site_disorder_assembly
_atom_site_disorder_group
Zr1 Zr 0.4547(2) 0.37853(19) 0.5000 0.0149(15) Uiso 1 2 d S TU P . .
Zr2 Zr 0.5000 0.5000 0.42410(15) 0.0063(18) Uiso 1 4 d S TU P . .
O5 O 0.4093(7) 0.5235(7) 0.3877(4) 0.062(5) Uiso 1 1 d . U . . .
O2 O 0.4373(7) 0.3278(8) 0.5617(5) 0.082(6) Uiso 1 1 d . U . . .
O4 O 0.4151(7) 0.4629(7) 0.4621(4) 0.076(5) Uiso 1 1 d . U . . .
O3 O 0.3484(12) 0.3390(11) 0.5000 0.097(8) Uiso 1 2 d S TU P . .
O1 O 0.5192(12) 0.2751(12) 0.5000 0.111(9) Uiso 1 2 d S TU P . .
C11 C 0.0823(8) 0.5218(11) 0.2775(6) 0.089(8) Uiso 1 1 d D U . . .
C3 C 0.3059(14) 0.5413(10) 0.3271(9) 0.137(10) Uiso 1 1 d D U . . .
H3 H 0.3496 0.5264 0.3196 0.165 Uiso 1 1 calc R . . . .
C12 C 0.02735(19) 0.52735(19) 0.2500 0.109(13) Uiso 1 2 d DS TU P . .
C1 C 0.3528(14) 0.5529(8) 0.3987(8) 0.082(8) Uiso 1 1 d . U . . .
C4 C 0.2550(14) 0.5452(11) 0.2966(8) 0.126(10) Uiso 1 1 d D U . . .
H4 H 0.2647 0.5326 0.2696 0.151 Uiso 1 1 calc R . . . .
C8 C 0.1294(12) 0.5760(9) 0.2775(7) 0.097(8) Uiso 1 1 d D U . . .
C13 C 0.0877(10) 0.4589(10) 0.3072(6) 0.097(9) Uiso 1 1 d D U . . .
H13A H 0.0867 0.4747 0.3351 0.145 Uiso 1 1 calc GR . . . .
H13B H 0.1300 0.4349 0.3021 0.145 Uiso 1 1 calc GR . . . .
H13C H 0.0497 0.4284 0.3025 0.145 Uiso 1 1 calc GR . . . .
C2 C 0.2942(14) 0.5586(7) 0.3684(9) 0.115(9) Uiso 1 1 d D U . . .
C5 C 0.1888(13) 0.5688(11) 0.3076(8) 0.123(9) Uiso 1 1 d D U . . .
C7 C 0.2295(14) 0.5811(10) 0.3815(9) 0.138(10) Uiso 1 1 d D U . . .
H7 H 0.2191 0.5912 0.4087 0.166 Uiso 1 1 calc R . . . .
C9 C 0.1313(11) 0.6313(11) 0.2500 0.091(11) Uiso 1 2 d DS TU P . .
C6 C 0.1816(14) 0.5870(11) 0.3492(8) 0.140(10) Uiso 1 1 d D U . . .
H6 H 0.1392 0.6055 0.3564 0.168 Uiso 1 1 calc R . . . .
C10 C 0.1862(12) 0.6862(12) 0.2500 0.125(15) Uiso 1 2 d DS TU P . .
H10A H 0.2187 0.6769 0.2715 0.187 Uiso 0.5 1 calc R . . A -1
H10B H 0.2094 0.6862 0.2240 0.187 Uiso 0.5 1 calc R . . A -1
H10C H 0.1653 0.7303 0.2545 0.187 Uiso 0.5 1 calc R . . A -1
loop_
_atom_type_symbol
_atom_type_description
_atom_type_scat_dispersion_real
_atom_type_scat_dispersion_imag
_atom_type_scat_source
C C 0.0030 0.0010 'International Tables Vol C Tables 4.2.6.8 and 6.1.1.4'
H H 0.0000 0.0000 'International Tables Vol C Tables 4.2.6.8 and 6.1.1.4'
O O 0.0110 0.0060 'International Tables Vol C Tables 4.2.6.8 and 6.1.1.4'
Zr Zr -11.6050 0.5510 'International Tables Vol C Tables 4.2.6.8 and 6.1.1.4'
loop_
_geom_angle_atom_site_label_1
_geom_angle_atom_site_label_2
_geom_angle_atom_site_label_3
_geom_angle
_geom_angle_site_symmetry_1
_geom_angle_site_symmetry_3
Zr1 Zr1 Zr1 89.999(1) 11_566 3_655
Zr2 Zr1 Zr1 59.68(4) 9_666 11_566
Zr2 Zr1 Zr1 59.68(4) 9_666 3_655
Zr2 Zr1 Zr1 59.68(4) . 3_655
Zr2 Zr1 Zr1 59.68(4) . 11_566
Zr2 Zr1 Zr2 88.88(14) 9_666 .
O2 Zr1 Zr1 109.5(4) 10_556 11_566
O2 Zr1 Zr1 108.5(4) . 3_655
O2 Zr1 Zr1 108.5(4) 10_556 3_655
O2 Zr1 Zr1 109.5(4) . 11_566
O2 Zr1 Zr2 73.0(4) 10_556 .
O2 Zr1 Zr2 161.9(4) . .
O2 Zr1 Zr2 161.9(4) 10_556 9_666
O2 Zr1 Zr2 73.0(4) . 9_666
O2 Zr1 O2 125.1(8) 10_556 .
O2 Zr1 O1 73.1(4) . .
O2 Zr1 O1 73.1(4) 10_556 .
O4 Zr1 Zr1 90.5(4) 12_656 11_566
O4 Zr1 Zr1 35.2(4) 3_655 3_655
O4 Zr1 Zr1 34.3(4) 10_556 11_566
O4 Zr1 Zr1 35.2(4) 12_656 3_655
O4 Zr1 Zr1 90.5(4) . 3_655
O4 Zr1 Zr1 34.3(4) . 11_566
O4 Zr1 Zr1 90.5(4) 10_556 3_655
O4 Zr1 Zr1 90.5(4) 3_655 11_566
O4 Zr1 Zr2 36.2(4) 10_556 9_666
O4 Zr1 Zr2 35.7(4) 12_656 9_666
O4 Zr1 Zr2 88.9(4) 10_556 .
O4 Zr1 Zr2 89.7(4) 12_656 .
O4 Zr1 Zr2 35.7(4) 3_655 .
O4 Zr1 Zr2 88.9(4) . 9_666
O4 Zr1 Zr2 89.7(4) 3_655 9_666
O4 Zr1 Zr2 36.2(4) . .
O4 Zr1 O2 140.1(6) 12_656 10_556
O4 Zr1 O2 76.9(5) . 10_556
O4 Zr1 O2 140.6(5) 10_556 10_556
O4 Zr1 O2 75.2(5) 12_656 .
O4 Zr1 O2 76.9(5) 10_556 .
O4 Zr1 O2 75.2(5) 3_655 10_556
O4 Zr1 O2 140.1(6) 3_655 .
O4 Zr1 O2 140.6(5) . .
O4 Zr1 O4 71.9(7) 12_656 10_556
O4 Zr1 O4 109.8(7) 12_656 .
O4 Zr1 O4 70.3(7) 12_656 3_655
O4 Zr1 O4 68.5(7) . 10_556
O4 Zr1 O4 71.9(7) 3_655 .
O4 Zr1 O4 109.8(7) 3_655 10_556
O4 Zr1 O3 86.1(6) 10_556 .
O4 Zr1 O3 144.7(4) 3_655 .
O4 Zr1 O3 144.7(4) 12_656 .
O4 Zr1 O3 86.1(6) . .
O4 Zr1 O1 145.2(4) . .
O4 Zr1 O1 83.5(6) 3_655 .
O4 Zr1 O1 145.2(4) 10_556 .
O4 Zr1 O1 83.5(6) 12_656 .
O3 Zr1 Zr1 85.9(6) . 11_566
O3 Zr1 Zr1 175.9(6) . 3_655
O3 Zr1 Zr2 117.8(4) . .
O3 Zr1 Zr2 117.8(4) . 9_666
O3 Zr1 O2 73.0(4) . .
O3 Zr1 O2 73.0(4) . 10_556
O3 Zr1 O1 101.5(8) . .
O1 Zr1 Zr1 172.6(6) . 11_566
O1 Zr1 Zr1 82.6(6) . 3_655
O1 Zr1 Zr2 115.8(4) . 9_666
O1 Zr1 Zr2 115.8(4) . .
Zr1 Zr2 Zr1 60.64(8) 11_566 .
Zr1 Zr2 Zr1 60.64(8) 9_666 11_566
Zr1 Zr2 Zr1 60.64(8) 3_655 .
Zr1 Zr2 Zr1 60.64(8) 9_666 3_655
Zr1 Zr2 Zr1 91.11(14) 3_655 11_566
Zr1 Zr2 Zr1 91.12(14) 9_666 .
O5 Zr2 Zr1 108.7(3) 2_665 9_666
O5 Zr2 Zr1 167.7(4) 2_665 11_566
O5 Zr2 Zr1 108.7(3) 3_655 3_655
O5 Zr2 Zr1 108.7(3) 4_565 11_566
O5 Zr2 Zr1 116.3(4) . 9_666
O5 Zr2 Zr1 167.7(4) 3_655 9_666
O5 Zr2 Zr1 108.7(3) . .
O5 Zr2 Zr1 77.7(4) . 11_566
O5 Zr2 Zr1 77.7(4) 2_665 3_655
O5 Zr2 Zr1 77.7(4) 4_565 9_666
O5 Zr2 Zr1 77.7(4) 3_655 .
O5 Zr2 Zr1 116.3(4) 2_665 .
O5 Zr2 Zr1 116.3(4) 4_565 3_655
O5 Zr2 Zr1 116.3(4) 3_655 11_566
O5 Zr2 Zr1 167.7(4) 4_565 .
O5 Zr2 Zr1 167.7(4) . 3_655
O5 Zr2 O5 113.9(8) 2_665 .
O5 Zr2 O5 113.9(8) 3_655 4_565
O5 Zr2 O5 72.7(4) 3_655 .
O5 Zr2 O5 72.7(4) 3_655 2_665
O5 Zr2 O5 72.7(4) 4_565 2_665
O5 Zr2 O5 72.7(4) 4_565 .
O5 Zr2 O4 137.3(5) . 3_655
O5 Zr2 O4 148.5(5) 2_665 .
O5 Zr2 O4 137.3(5) 4_565 .
O5 Zr2 O4 148.5(5) . 2_665
O5 Zr2 O4 83.2(5) . 4_565
O5 Zr2 O4 148.5(5) 3_655 4_565
O5 Zr2 O4 148.5(5) 4_565 3_655
O5 Zr2 O4 83.2(5) 4_565 2_665
O5 Zr2 O4 137.3(5) 2_665 4_565
O5 Zr2 O4 83.2(5) 2_665 3_655
O5 Zr2 O4 83.2(5) 3_655 .
O5 Zr2 O4 137.3(5) 3_655 2_665
O5 Zr2 O4 76.4(5) 4_565 4_565
O5 Zr2 O4 76.4(5) 3_655 3_655
O5 Zr2 O4 76.4(5) 2_665 2_665
O5 Zr2 O4 76.4(5) . .
O4 Zr2 Zr1 36.3(3) 2_665 9_666
O4 Zr2 Zr1 90.7(4) 3_655 11_566
O4 Zr2 Zr1 91.5(4) 3_655 9_666
O4 Zr2 Zr1 90.7(4) 2_665 .
O4 Zr2 Zr1 35.0(4) . 11_566
O4 Zr2 Zr1 35.0(4) 2_665 3_655
O4 Zr2 Zr1 36.3(3) . .
O4 Zr2 Zr1 35.0(4) 4_565 9_666
O4 Zr2 Zr1 91.5(4) . 3_655
O4 Zr2 Zr1 35.0(4) 3_655 .
O4 Zr2 Zr1 90.7(4) 4_565 3_655
O4 Zr2 Zr1 36.3(3) 3_655 3_655
O4 Zr2 Zr1 90.7(4) . 9_666
O4 Zr2 Zr1 36.3(3) 4_565 11_566
O4 Zr2 Zr1 91.5(4) 4_565 .
O4 Zr2 Zr1 91.5(4) 2_665 11_566
O4 Zr2 O4 111.0(8) 2_665 .
O4 Zr2 O4 71.3(4) 3_655 .
O4 Zr2 O4 71.3(4) 4_565 .
O4 Zr2 O4 111.0(8) 4_565 3_655
O4 Zr2 O4 71.3(4) 2_665 4_565
O4 Zr2 O4 71.3(4) 2_665 3_655
C1 O5 Zr2 129.3(16) . .
C1 O2 Zr1 130.5(15) 12_656 .
Zr1 O4 Zr1 110.6(6) 11_566 .
Zr1 O4 Zr2 109.3(6) 11_566 .
Zr2 O4 Zr1 107.5(5) . .
C12 C11 C13 120.5(13) . .
C8 C11 C12 116.2(18) . .
C8 C11 C13 123.2(13) . .
C4 C3 H3 118.3 . .
C2 C3 H3 118.3 . .
C2 C3 C4 123(3) . .
C11 C12 C11 121.9(17) . 7_455
C11 C12 C12 119.0(9) . 2_565
C11 C12 C12 119.0(9) 7_455 2_565
O5 C1 O2 128(2) . 11_566
O5 C1 C2 120(2) . .
O2 C1 C2 109(2) 11_566 .
C3 C4 H4 120.7 . .
C3 C4 C5 119(3) . .
C5 C4 H4 120.7 . .
C11 C8 C5 115.4(15) . .
C11 C8 C9 127(3) . .
C9 C8 C5 117.6(17) . .
C11 C13 H13A 109.5 . .
C11 C13 H13B 109.5 . .
C11 C13 H13C 109.5 . .
H13A C13 H13B 109.5 . .
H13A C13 H13C 109.5 . .
H13B C13 H13C 109.5 . .
C3 C2 C1 119(3) . .
C7 C2 C3 121(3) . .
C7 C2 C1 120(3) . .
C4 C5 C8 124(3) . .
C6 C5 C4 115(2) . .
C6 C5 C8 121(3) . .
C2 C7 H7 123.4 . .
C2 C7 C6 113(3) . .
C6 C7 H7 123.4 . .
C8 C9 C8 112(3) 7_455 .
C8 C9 C10 124.1(16) . .
C8 C9 C10 124.1(16) 7_455 .
C5 C6 C7 129(3) . .
C5 C6 H6 115.4 . .
C7 C6 H6 115.4 . .
C9 C10 H10A 109.5 . .
C9 C10 H10B 109.5 . .
C9 C10 H10C 109.5 . .
H10A C10 H10B 109.5 . .
H10A C10 H10C 109.5 . .
H10B C10 H10C 109.5 . .
loop_
_geom_bond_atom_site_label_1
_geom_bond_atom_site_label_2
_geom_bond_distance
_geom_bond_site_symmetry_2
Zr1 Zr1 3.565(5) 3_655
Zr1 Zr1 3.565(5) 11_566
Zr1 Zr2 3.531(4) 9_666
Zr1 Zr2 3.531(4) .
Zr1 O2 2.265(15) .
Zr1 O2 2.265(15) 10_556
Zr1 O4 2.194(13) 10_556
Zr1 O4 2.144(14) 3_655
Zr1 O4 2.144(14) 12_656
Zr1 O4 2.194(13) .
Zr1 O3 2.21(2) .
Zr1 O1 2.37(2) .
Zr2 Zr1 3.531(4) 11_566
Zr2 Zr1 3.531(4) 3_655
Zr2 Zr1 3.531(4) 9_666
Zr2 O5 2.173(14) .
Zr2 O5 2.173(14) 2_665
Zr2 O5 2.173(14) 3_655
Zr2 O5 2.173(14) 4_565
Zr2 O4 2.186(14) .
Zr2 O4 2.186(14) 4_565
Zr2 O4 2.186(14) 2_665
Zr2 O4 2.186(14) 3_655
O5 C1 1.29(2) .
O2 C1 1.39(2) 12_656
O4 Zr1 2.144(14) 11_566
C11 C12 1.399(8) .
C11 C8 1.397(8) .
C11 C13 1.562(15) .
C3 H3 0.9300 .
C3 C4 1.408(12) .
C3 C2 1.405(12) .
C12 C11 1.399(8) 7_455
C12 C12 1.504(10) 2_565
C1 O2 1.39(2) 11_566
C1 C2 1.51(3) .
C4 H4 0.9300 .
C4 C5 1.413(12) .
C8 C5 1.521(10) .
C8 C9 1.400(8) .
C13 H13A 0.9600 .
C13 H13B 0.9600 .
C13 H13C 0.9600 .
C2 C7 1.400(12) .
C5 C6 1.408(12) .
C7 H7 0.9300 .
C7 C6 1.408(12) .
C9 C8 1.400(8) 7_455
C9 C10 1.510(18) .
C6 H6 0.9300 .
C10 H10A 0.9600 .
C10 H10B 0.9600 .
C10 H10C 0.9600 .
loop_
_geom_torsion_atom_site_label_1
_geom_torsion_atom_site_label_2
_geom_torsion_atom_site_label_3
_geom_torsion_atom_site_label_4
_geom_torsion
_geom_torsion_site_symmetry_1
_geom_torsion_site_symmetry_4
Zr2 O5 C1 O2 -17(3) . 11_566
Zr2 O5 C1 C2 -175.1(7) . .
O5 C1 C2 C3 -9.5(13) . .
O5 C1 C2 C7 170.7(15) . .
O2 C1 C2 C3 -171.5(14) 11_566 .
O2 C1 C2 C7 8.8(12) 11_566 .
C11 C8 C5 C4 99(3) . .
C11 C8 C5 C6 -82(3) . .
C11 C8 C9 C8 3.8(18) . 7_455
C11 C8 C9 C10 -176.2(18) . .
C3 C4 C5 C8 179.6(16) . .
C3 C4 C5 C6 1(3) . .
C3 C2 C7 C6 -2.8(17) . .
C12 C11 C8 C5 -180(2) . .
C12 C11 C8 C9 -7(3) . .
C1 C2 C7 C6 176.9(11) . .
C4 C3 C2 C1 -179.6(12) . .
C4 C3 C2 C7 0.1(19) . .
C4 C5 C6 C7 -4(3) . .
C8 C11 C12 C11 3.2(15) . 7_455
C8 C11 C12 C12 -176.8(15) . 2_565
C8 C5 C6 C7 177.0(17) . .
C13 C11 C12 C11 -179(2) . 7_455
C13 C11 C12 C12 1(2) . 2_565
C13 C11 C8 C5 2(4) . .
C13 C11 C8 C9 175(2) . .
C2 C3 C4 C5 1(3) . .
C2 C7 C6 C5 5(3) . .
C5 C8 C9 C8 176(3) . 7_455
C5 C8 C9 C10 -4(3) . .
C9 C8 C5 C4 -75(3) . .
C9 C8 C5 C6 104(2) . .
