#------------------------------------------------------------------------------
#$Date: 2019-11-25 22:32:00 +0200 (Mon, 25 Nov 2019) $
#$Revision: 241968 $
#$URL: file:///home/coder/svn-repositories/cod/cif/4/13/18/4131852.cif $
#------------------------------------------------------------------------------
#
# This file is available in the Crystallography Open Database (COD),
# http://www.crystallography.net/
#
# All data on this site have been placed in the public domain by the
# contributors.
#
data_4131852
loop_
_publ_author_name
'Yan, Yong'
'O'Connor, Alice E'
'Kanthasamy, Gopikkaa'
'Atkinson, George'
'Allan, David R.'
'Blake, Alexander J.'
'Schr\"oder, Martin'
_publ_section_title
;
 Unusual and Tunable Negative Linear Compressibility in the Metal-Organic
 Framework MFM-133(M) (M = Zr, Hf).
;
_journal_issue                   11
_journal_name_full               'Journal of the American Chemical Society'
_journal_page_first              3952
_journal_page_last               3958
_journal_paper_doi               10.1021/jacs.7b11747
_journal_volume                  140
_journal_year                    2018
_chemical_formula_moiety         '0.25(C184 H136 O64 Zr12)'
_chemical_formula_sum            'C46 H34 O16 Zr3'
_chemical_formula_weight         1116.39
_space_group_crystal_system      tetragonal
_space_group_IT_number           128
_space_group_name_Hall           '-P 4 2n'
_space_group_name_H-M_alt        'P 4/m n c'
_atom_sites_solution_hydrogens   geom
_atom_sites_solution_primary     direct
_audit_creation_date             2016-08-31
_audit_creation_method
;
Olex2 1.2
(compiled 2016.08.25 svn.r3337 for OlexSys, GUI svn.r5221)
;
_cell_angle_alpha                90
_cell_angle_beta                 90
_cell_angle_gamma                90
_cell_formula_units_Z            4
_cell_length_a                   19.1326(13)
_cell_length_b                   19.1326(13)
_cell_length_c                   33.039(6)
_cell_measurement_reflns_used    2032
_cell_measurement_temperature    293.15
_cell_measurement_theta_max      22.1500
_cell_measurement_theta_min      2.0500
_cell_volume                     12094(2)
_computing_cell_refinement
;
CrysAlisPro, Agilent Technologies,
Version 1.171.37.34 (release 22-05-2014 CrysAlis171 .NET)
(compiled May 22 2014,16:03:01)
;
_computing_data_collection
;
CrysAlisPro, Agilent Technologies,
Version 1.171.37.34 (release 22-05-2014 CrysAlis171 .NET)
(compiled May 22 2014,16:03:01)
;
_computing_data_reduction
;
CrysAlisPro, Agilent Technologies,
Version 1.171.37.34 (release 22-05-2014 CrysAlis171 .NET)
(compiled May 22 2014,16:03:01)
;
_computing_molecular_graphics    'Olex2 (Dolomanov et al., 2009)'
_computing_publication_material  'Olex2 (Dolomanov et al., 2009)'
_computing_structure_refinement  'ShelXL (Sheldrick, 2015)'
_computing_structure_solution    'SIR2004 (Burla et al., 2007)'
_diffrn_ambient_temperature      293.15
_diffrn_detector                 Dectris
_diffrn_detector_area_resol_mean 5.81395
_diffrn_detector_type            'Pilatus 300K detector'
_diffrn_measured_fraction_theta_full 0.766
_diffrn_measured_fraction_theta_max 0.766
_diffrn_measurement_details
;
#__ type_ start__ end____ width___ exp.time_
  1 omega -105.00  -74.00   0.2000    0.9970
omega____ theta____ kappa____ phi______ frames
    -       20.0000   70.0000  155.7700 155

#__ type_ start__ end____ width___ exp.time_
  2 omega -105.00  -74.00   0.2000    0.9970
omega____ theta____ kappa____ phi______ frames
    -       20.0000   70.0000  -24.2300 155

#__ type_ start__ end____ width___ exp.time_
  3 omega -106.00  -66.00   0.2000    0.9970
omega____ theta____ kappa____ phi______ frames
    -      -20.0000  -70.0000 -155.7700 200

#__ type_ start__ end____ width___ exp.time_
  4 omega -106.00  -66.00   0.2000    0.9970
omega____ theta____ kappa____ phi______ frames
    -      -20.0000  -70.0000   24.2300 200

#__ type_ start__ end____ width___ exp.time_
  5 omega -150.00  -94.00   0.2000    0.9970
omega____ theta____ kappa____ phi______ frames
    -      -20.0000   70.0000  -24.2319 280

#__ type_ start__ end____ width___ exp.time_
  6 omega -150.00  -94.00   0.2000    0.9970
omega____ theta____ kappa____ phi______ frames
    -      -20.0000   70.0000  155.7681 280

#__ type_ start__ end____ width___ exp.time_
  7 omega  -96.00  -30.00   0.2000    0.9970
omega____ theta____ kappa____ phi______ frames
    -       20.0000  -70.0000   24.2300 330

#__ type_ start__ end____ width___ exp.time_
  8 omega  -96.00  -30.00   0.2000    0.9970
omega____ theta____ kappa____ phi______ frames
    -       20.0000  -70.0000 -155.7700 330
;
_diffrn_measurement_device       'k-geometry diffractometer'
_diffrn_measurement_device_type
'dectris-CrysAlisPro-abstract goniometer imported dectris images'
_diffrn_measurement_method       'oscillation method'
_diffrn_orient_matrix_UB_11      0.0016433000
_diffrn_orient_matrix_UB_12      -0.0320444000
_diffrn_orient_matrix_UB_13      -0.0094132000
_diffrn_orient_matrix_UB_21      -0.0166569000
_diffrn_orient_matrix_UB_22      0.0137336000
_diffrn_orient_matrix_UB_23      -0.0167098000
_diffrn_orient_matrix_UB_31      0.0318854000
_diffrn_orient_matrix_UB_32      0.0087772000
_diffrn_orient_matrix_UB_33      -0.0082488000
_diffrn_radiation_collimation    '0.5 mm pinhole'
_diffrn_radiation_monochromator  'Si 111 double-crystal monochromator'
_diffrn_radiation_probe          x-ray
_diffrn_radiation_wavelength     0.6889
_diffrn_reflns_av_R_equivalents  0.7783
_diffrn_reflns_av_unetI/netI     0.5632
_diffrn_reflns_Laue_measured_fraction_full 0.766
_diffrn_reflns_Laue_measured_fraction_max 0.766
_diffrn_reflns_limit_h_max       21
_diffrn_reflns_limit_h_min       -20
_diffrn_reflns_limit_k_max       14
_diffrn_reflns_limit_k_min       -14
_diffrn_reflns_limit_l_max       35
_diffrn_reflns_limit_l_min       -35
_diffrn_reflns_number            24047
_diffrn_reflns_point_group_measured_fraction_full 0.766
_diffrn_reflns_point_group_measured_fraction_max 0.766
_diffrn_reflns_theta_full        22.673
_diffrn_reflns_theta_max         22.673
_diffrn_reflns_theta_min         1.886
_diffrn_source                   'Synchrotron U21 undulator'
_diffrn_source_type              'Synchrotron Diamond Light Source'
_exptl_absorpt_coefficient_mu    0.259
_exptl_absorpt_correction_T_max  0.4268
_exptl_absorpt_correction_T_min  0.2487
_exptl_absorpt_correction_type   multi-scan
_exptl_absorpt_process_details
;
SADABS-2014/5 (Bruker,2014/5) was used for absorption correction. 
wR2(int) was 0.1686 before and 0.1276 after correction. 
The Ratio of minimum to maximum transmission is 0.5827. 
The \l/2 correction factor is Not present.
;
_exptl_crystal_colour            'clear colourless'
_exptl_crystal_colour_lustre     clear
_exptl_crystal_colour_primary    colourless
_exptl_crystal_density_diffrn    0.613
_exptl_crystal_description       octahedral
_exptl_crystal_F_000             2232
_exptl_crystal_size_max          0.046
_exptl_crystal_size_mid          0.046
_exptl_crystal_size_min          0.033
_refine_diff_density_max         1.664
_refine_diff_density_min         -1.244
_refine_diff_density_rms         0.166
_refine_ls_extinction_method     none
_refine_ls_goodness_of_fit_ref   1.296
_refine_ls_hydrogen_treatment    constr
_refine_ls_matrix_type           full
_refine_ls_number_parameters     75
_refine_ls_number_reflns         3486
_refine_ls_number_restraints     59
_refine_ls_restrained_S_all      1.296
_refine_ls_R_factor_all          0.3791
_refine_ls_R_factor_gt           0.2042
_refine_ls_shift/su_max          0.001
_refine_ls_shift/su_mean         0.000
_refine_ls_structure_factor_coef Fsqd
_refine_ls_weighting_details
'w=1/[\s^2^(Fo^2^)+(0.2000P)^2^] where P=(Fo^2^+2Fc^2^)/3'
_refine_ls_weighting_scheme      calc
_refine_ls_wR_factor_gt          0.4157
_refine_ls_wR_factor_ref         0.5289
_reflns_Friedel_coverage         0.000
_reflns_number_gt                1070
_reflns_number_total             3486
_reflns_threshold_expression     'I > 2\s(I)'
_cod_data_source_file            ZrMOF_All.cif
_cod_data_source_block           26.3kbar
_cod_original_cell_volume        12094(3)
_cod_database_code               4131852
_chemical_oxdiff_formula         'C46 H42 O16 Zr3'
_shelx_space_group_comment
;
The symmetry employed for this shelxl refinement is uniquely defined
by the following loop, which should always be used as a source of
symmetry information in preference to the above space-group names.
They are only intended as comments.
;
_reflns_odcompleteness_completeness 74.66
_reflns_odcompleteness_iscentric 1
_reflns_odcompleteness_theta     22.88
_olex2_refinement_description
;
1. Fixed Uiso
 At 1.2 times of:
  All C(H) groups
 At 1.5 times of:
  All C(H,H,H) groups
2. Restrained distances
 C7-C6 = C7-C2 = C3-C2 = C4-C3 = C5-C4 = C6-C5
 1.39 with sigma of 0.01
 C9-C8_$1 = C8_$1-C11_$1 = C12-C11_$1
 1.39 with sigma of 0.01
 C9-C10 = C13_$1-C11_$1
 1.5 with sigma of 0.01
 C2-C1 = C8-C5
 1.5 with sigma of 0.01
 C12-C12_$3
 1.5 with sigma of 0.01
3. Restrained planarity
 C1_$1, C2_$1, C3_$1, C4_$1, C5_$1, C6_$1, C7_$1, C8_$1, C11, C13
 with sigma of 0.1
 C1, C2, C3, C4, C5, C7, C6, C8, C11_$1, C13_$1
 with sigma of 0.1
 C1_$2, C2_$2, C7_$2, C6_$2, C5_$2, C4_$2, C3_$2, C8_$2, C11_$3, C13_$3
 with sigma of 0.1
 C1_$3, C2_$3, C7_$3, C6_$3, C5_$3, C4_$3, C3_$3, C8_$3, C11_$2, C13_$2
 with sigma of 0.1
 C10_$3, C9_$3, C12_$3, C12, C9, C10
 with sigma of 0.1
4. Uiso/Uaniso restraints and constraints
All non-hydrogen atoms have similar U: within 2A with sigma of 0.02 and sigma
for terminal atoms of 0.04
5. Others
 Fixed Sof: H10A(0.5) H10B(0.5) H10C(0.5)
6.a Me refined with riding coordinates:
 C10(H10A,H10B,H10C)
6.b Aromatic/amide H refined with riding coordinates:
 C3(H3), C4(H4), C7(H7), C6(H6)
6.c Idealised Me refined as rotating group:
 C13(H13A,H13B,H13C)
;
_shelx_res_file
;
    26.3kbar.res created by SHELXL-2014/7

TITL g2yy_5xnew in P4/mnc
CELL 0.6889 19.13256 19.13256 33.03917 90 90 90
ZERR 4 0.00132 0.00132 0.00567 0 0 0
LATT 1
SYMM -X,-Y,+Z
SYMM -Y,+X,+Z
SYMM +Y,-X,+Z
SYMM 0.5-X,0.5+Y,0.5-Z
SYMM 0.5+X,0.5-Y,0.5-Z
SYMM 0.5+Y,0.5+X,0.5-Z
SYMM 0.5-Y,0.5-X,0.5-Z
SFAC C H O Zr
DISP C 0.003 0.001 10.848
DISP H -0 0 0.623
DISP O 0.011 0.006 30.192
DISP Zr -11.605 0.551 2275.752
UNIT 184 136 64 12
EQIV $1 -0.5+Y,0.5+X,0.5-Z
EQIV $2 0.5-Y,0.5-X,0.5-Z
EQIV $3 -X,1-Y,+Z
DFIX 1.39 0.01 C7 C6 C7 C2 C3 C2 C4 C3 C5 C4 C6 C5
DFIX 1.39 0.01 C9 C8_$1 C8_$1 C11_$1 C12 C11_$1
DFIX 1.5 0.01 C9 C10 C13_$1 C11_$1
DFIX 1.5 0.01 C2 C1 C8 C5
DFIX 1.5 0.01 C12 C12_$3
FLAT C1_$1 C2_$1 C3_$1 C4_$1 C5_$1 C6_$1 C7_$1 C8_$1 C11 C13
FLAT C1 C2 C3 C4 C5 C7 C6 C8 C11_$1 C13_$1
FLAT C1_$2 C2_$2 C7_$2 C6_$2 C5_$2 C4_$2 C3_$2 C8_$2 C11_$3 C13_$3
FLAT C1_$3 C2_$3 C7_$3 C6_$3 C5_$3 C4_$3 C3_$3 C8_$3 C11_$2 C13_$2
FLAT C10_$3 C9_$3 C12_$3 C12 C9 C10
SIMU 0.02 0.04 2

L.S. 5 0 299
PLAN  20
TEMP 20
BOND
MORE -1
BOND $H
CONF
ABIN
fmap 2
acta
REM <olex2.extras>
REM <HklSrc "%.\\26.3kbar.hkl">
REM </olex2.extras>

WGHT    0.200000
FVAR       0.04027
ZR1   4    0.454136    0.377265    0.500000    10.50000    0.02846    0.01858 =
         0.01534    0.00000    0.00000   -0.00355
ZR2   4    0.500000    0.500000    0.426100    10.25000    0.01124    0.01124 =
         0.00788    0.00000    0.00000    0.00000
O5    3    0.407835    0.528799    0.390024    11.00000    0.07652
O2    3    0.438514    0.326129    0.561083    11.00000    0.08244
O4    3    0.415392    0.463039    0.463779    11.00000    0.09244
O3    3    0.350140    0.331857    0.500000    10.50000    0.10671
O1    3    0.520389    0.275072    0.500000    10.50000    0.13189
C11   1    0.084420    0.525249    0.276743    11.00000    0.09842
C3    1    0.303197    0.543530    0.331331    11.00000    0.14641
AFIX  43
H3    2    0.347415    0.524839    0.326913    11.00000   -1.20000
AFIX   0
C12   1    0.027796    0.527796    0.250000    10.50000    0.10231
C1    1    0.349325    0.557859    0.400658    11.00000    0.10433
C4    1    0.260315    0.546499    0.297426    11.00000    0.14976
AFIX  43
H4    2    0.273058    0.533459    0.271333    11.00000   -1.20000
AFIX   0
C8    1    0.133989    0.578760    0.279530    11.00000    0.10424
C13   1    0.087818    0.467495    0.308108    11.00000    0.13975
AFIX 137
H13A  2    0.072780    0.485323    0.333835    11.00000   -1.50000
H13B  2    0.135003    0.450848    0.310287    11.00000   -1.50000
H13C  2    0.057823    0.429748    0.300062    11.00000   -1.50000
AFIX   0
C2    1    0.289681    0.564480    0.371065    11.00000    0.14356
C5    1    0.194572    0.572408    0.308991    11.00000    0.13910
C7    1    0.224468    0.590319    0.382057    11.00000    0.16472
AFIX  43
H7    2    0.211916    0.603155    0.408215    11.00000   -1.20000
AFIX   0
C9    1    0.131641    0.631641    0.250000    10.50000    0.11323
C6    1    0.180608    0.594344    0.348611    11.00000    0.16414
AFIX  43
H6    2    0.136789    0.613925    0.353068    11.00000   -1.20000
AFIX   0
C10   1    0.187147    0.687147    0.250000    10.50000    0.12441
PART -1
AFIX  33
H10A  2    0.219312    0.678635    0.271749    10.50000   -1.50000
H10B  2    0.211804    0.686143    0.224701    10.50000   -1.50000
H10C  2    0.165805    0.732142    0.253550    10.50000   -1.50000
AFIX   0
HKLF 4

REM  g2yy_5xnew in P4/mnc
REM R1 =  0.2042 for    1070 Fo > 4sig(Fo)  and  0.3791 for all    3486 data
REM     75 parameters refined using     59 restraints

END

WGHT      0.2000      0.0000

REM Highest difference peak  1.664,  deepest hole -1.244,  1-sigma level  0.166
Q1    1   0.5007  0.3783  0.5000  10.50000  0.05    1.66
Q2    1   0.4814  0.3883  0.5000  10.50000  0.05    1.54
Q3    1   0.4977  0.5394  0.4230  11.00000  0.05    1.26
Q4    1   0.4687  0.3435  0.5000  10.50000  0.05    1.16
Q5    1   0.4586  0.3056  0.5000  10.50000  0.05    0.94
Q6    1   0.3748  0.4425  0.4547  11.00000  0.05    0.92
Q7    1   0.3399  0.3310  0.5199  11.00000  0.05    0.87
Q8    1   0.4015  0.3719  0.5000  10.50000  0.05    0.84
Q9    1   0.4729  0.2835  0.5000  10.50000  0.05    0.83
Q10   1   0.3819  0.5436  0.4021  11.00000  0.05    0.83
Q11   1   0.3928  0.5292  0.3989  11.00000  0.05    0.81
Q12   1   0.3184  0.3788  0.5000  10.50000  0.05    0.81
Q13   1   0.3695  0.2903  0.5000  10.50000  0.05    0.79
Q14   1   0.3405  0.3789  0.5000  10.50000  0.05    0.75
Q15   1   0.4454  0.4794  0.4737  11.00000  0.05    0.74
Q16   1   0.5000  0.5000  0.3495  10.25000  0.05    0.73
Q17   1   0.3884  0.4554  0.4527  11.00000  0.05    0.73
Q18   1   0.2897  0.3702  0.5000  10.50000  0.05    0.68
Q19   1   0.5148  0.2298  0.4810  11.00000  0.05    0.67
Q20   1   0.5612  0.3179  0.4807  11.00000  0.05    0.64
;
_shelx_res_checksum              87878
_shelx_hkl_file
;
   2   1   0   13.19    4.97
  -2  -1   0   11.58    3.48
   2   1   0   15.12    4.58
  -2  -1   0   18.79    4.29
   2   0   0  113.82   34.89
   3   2   0    0.62    0.51
   3   2   0    0.49    0.69
  -3  -2   0    0.43    0.55
  -3  -1   0    2.15    0.91
   3   1   0    1.22    1.25
   3   1   0    2.56    0.93
   3   1   0    2.66    0.79
  -3  -1   0    2.28    0.61
   3   1   0    2.97    0.65
   3   0   0    0.02    0.73
   3   0   0   -0.02    0.58
   3  -1   0    2.41    1.06
   4   2   0   12.41    4.37
   4   2   0   10.66    3.95
  -4  -2   0   13.91    3.84
   4   1   0   75.24   19.55
   4   1   0   93.14   23.69
   4   1   0   52.95   22.70
  -4  -1   0   85.70   22.43
   4   1   0   72.63   27.89
  -4   0   0    5.37    2.12
   4   0   0    3.63    2.31
   4   0   0    6.01    1.45
   4   0   0    5.94    1.89
   4   0   0    6.64    1.90
  -4   0   0    6.19    1.97
   4  -1   0   79.32   23.40
  -5  -3   0    0.57    1.30
   5   3   0    0.48    1.20
   5   2   0   90.63   36.26
   5   2   0  114.76   31.41
   5   2   0   91.65   32.34
  -5  -2   0   95.98   25.49
  -5  -2   0  128.67   30.91
   5   1   0    1.81    1.99
   5   1   0    1.91    1.23
   5   1   0    2.38    0.56
   5   1   0    2.83    0.77
  -5  -1   0    2.25    1.21
  -5  -1   0    1.22    0.52
   5   0   0    0.02    0.15
  -5   0   0   -0.68    1.33
   5   0   0   -0.06    1.54
   5   0   0   -0.09    0.51
   5   0   0    0.26    1.16
  -5   0   0    0.05    0.76
   5  -1   0    2.59    1.35
   5  -1   0    1.66    1.52
   5  -1   0    1.96    0.60
   5  -2   0   91.83   28.37
   6   4   0    0.59    2.04
   6   3   0   11.42    3.16
  -6  -3   0   10.02    3.25
   6   3   0    4.72    3.76
  -6  -2   0   16.33    4.12
   6   2   0   15.63    6.55
   6   2   0   18.23    5.25
   6   1   0   97.60   29.38
   6   1   0   92.78   24.18
  -6  -1   0   94.07   23.42
   6   0   0    0.49    0.25
  -6   0   0    0.67    1.13
   6   0   0    0.79    0.77
   6  -1   0   44.01   30.74
  -6   1   0  122.59   24.72
   6  -1   0  110.07   24.22
   6  -2   0   19.01    5.62
   6  -3   0    7.88    3.30
  -7  -4   0    8.14    4.50
   7   4   0   17.54    4.43
   7   4   0   12.18    4.94
  -7  -3   0   29.51   10.33
   7   3   0   44.99   11.75
   7   3   0   43.95   10.41
   7   3   0   27.37   10.37
  -7  -2   0   30.62    7.30
   7   2   0   28.49    7.74
   7   2   0   26.88    8.65
   7   2   0   31.29   10.74
  -7  -2   0   35.53    8.51
   7   2   0   28.44    9.03
  -7  -1   0   12.32    3.90
   7   1   0   10.77    3.85
  -7  -1   0   14.10    3.04
   7   1   0   16.86    5.14
   7   1   0   11.80    3.88
  -7  -1   0    9.77    4.27
   7   1   0   10.07    3.15
  -7   0   0    0.16    1.34
  -7   0   0   -0.18    0.28
   7   0   0    0.37    1.95
   7   0   0   -0.20    0.92
   7   0   0    0.33    2.48
   7   0   0   -0.25    0.24
  -7   0   0   -0.51    2.19
  -7   0   0   -0.36    2.24
   7  -1   0   14.41    4.17
   7  -1   0   12.54    3.03
  -7   1   0   14.23    4.03
   7  -1   0    7.83    4.30
   7  -2   0   21.78    7.19
   7  -2   0   31.60    8.28
   7  -3   0   34.46    9.67
   8   5   0   -0.90    2.93
   8   4   0   30.43   13.20
  -8  -4   0   38.26   12.23
  -8  -3   0    9.42    3.92
   8   2   0   35.41    8.74
  -8  -2   0   32.80    8.23
   8   2   0   39.09   12.10
   8   2   0   30.09   10.27
  -8  -2   0   38.93    9.46
   8   2   0   27.34    9.53
   8   1   0    3.88    3.31
  -8  -1   0    2.05    2.22
  -8  -1   0    1.76    1.35
   8   1   0    1.39    1.04
  -8  -1   0    0.99    0.43
   8   1   0    0.63    2.19
   8   1   0    1.13    0.55
  -8   0   0    8.00    3.34
  -8   0   0    9.98    3.38
   8   0   0    5.89    2.00
   8   0   0    9.81    3.77
   8   0   0   10.68    3.24
   8   0   0    9.69    2.74
  -8   0   0    7.03    3.37
  -8   0   0    8.12    2.03
   8  -1   0    2.46    2.60
  -8   1   0    1.05    2.84
   8  -1   0    1.13    0.46
   8  -1   0    3.33    2.22
  -8   2   0   31.16    8.60
   8  -2   0   35.56    9.26
   8  -2   0   29.43    7.92
   8  -2   0   25.07   10.76
   8  -3   0    7.45    4.09
   8  -4   0   44.94   12.23
  -8   4   0   42.61   12.19
  -9  -5   0   16.84    8.21
   9   5   0   28.43    8.71
   9   5   0   26.91    7.58
   9   4   0    8.75    3.36
   9   4   0   13.46    3.92
   9   4   0   12.92    5.31
  -9  -4   0   10.90    4.19
  -9  -3   0   76.53   21.33
   9   3   0   64.07   21.52
  -9  -2   0    1.21    2.38
   9   2   0    1.65    2.16
   9   2   0    1.48    1.25
  -9  -2   0    1.42    1.53
   9   2   0    4.32    4.40
  -9  -2   0    2.96    0.68
   9   1   0    4.72    1.80
  -9  -1   0    4.01    2.18
  -9  -1   0    5.42    1.19
   9   1   0    5.59    4.19
   9   1   0    6.65    2.75
   9   1   0    2.71    1.28
  -9  -1   0    5.42    2.87
   9   0   0    3.98    3.31
   9   0   0    0.80    1.32
  -9   0   0    1.46    3.03
  -9   0   0    0.25    0.38
  -9   0   0   -0.87    1.96
  -9   0   0   -0.39    3.11
   9   0   0    2.13    2.77
   9   0   0    0.67    0.40
   9  -1   0    5.60    2.89
   9  -1   0    3.76    1.15
  -9   1   0    4.74    3.47
   9  -1   0    5.68    3.31
  -9   1   0    8.69    4.01
  -9   2   0    0.12    3.52
   9  -2   0    1.57    3.34
   9  -2   0    2.73    3.43
   9  -4   0    9.88    4.49
  10   5   0    2.37    2.82
 -10  -5   0    2.81    3.34
  10   5   0    2.80    1.54
  10   5   0    4.19    4.50
  10   4   0   56.45   17.72
  10   4   0   46.06   15.60
  10   4   0   58.81   14.89
 -10  -4   0   46.93   15.37
 -10  -3   0    0.09    2.63
  10   3   0    2.96    4.96
  10   3   0    0.38    2.21
  10   2   0   18.70    6.97
 -10  -2   0   27.38    7.14
  10   2   0   21.89    9.81
 -10  -1   0    5.21    3.07
  10   1   0    1.23    4.65
  10   1   0    1.64    2.96
 -10   0   0   -1.26    3.74
  10   0   0    1.53    2.98
  10   0   0   -2.10    3.50
 -10   0   0    0.89    3.43
  10  -1   0    1.60    3.15
 -10   1   0    1.31    4.37
 -10   1   0    3.26    3.92
  10  -1   0    4.13    3.57
 -10   2   0   30.32    7.16
  10  -2   0   25.26    7.37
  10  -2   0    8.16    8.46
  10  -3   0    5.90    3.91
  10  -3   0   -4.08    5.09
  10  -4   0   52.43   14.38
  11   6   0    9.64    6.07
 -11  -5   0    7.86    6.74
  11   5   0   19.82    8.17
  11   5   0   12.12    6.16
 -11  -4   0    4.14    3.32
  11   4   0   -4.63    5.88
  11   4   0    1.76    2.77
 -11  -3   0   37.89   10.28
  11   3   0   27.71   13.77
  11   3   0   36.12   10.16
  11   2   0    3.67    2.89
  11   2   0    4.80    5.64
 -11  -2   0    2.66    3.22
 -11  -1   0    2.38    4.58
  11   1   0    2.36    3.30
 -11  -1   0   -0.87    3.49
  11   1   0    3.34    4.96
  11   0   0    0.91    3.60
 -11   0   0    1.58    4.34
 -11   0   0    1.65    3.90
  11   0   0    0.06    3.88
  11  -1   0    4.22    3.73
 -11   1   0    3.14    4.54
  11  -1   0   -2.50    3.81
 -11   1   0    0.80    4.87
  11  -2   0    0.11    4.18
 -11   2   0    2.10    4.52
  11  -2   0    0.38    4.53
  11  -3   0   21.90    9.01
  11  -3   0    8.83   11.23
 -11   3   0   30.42    8.62
  11  -4   0   -5.62    4.38
  11  -5   0   63.80   14.41
  12   6   0    4.94    6.11
 -12  -5   0   -0.28    4.16
  12   5   0    3.86    3.40
  12   5   0   -1.11    6.12
 -12  -4   0   21.78    8.58
  12   4   0   30.90    8.04
  12   4   0   16.31   11.51
  12   3   0    4.54    2.90
  12   3   0   -4.94    6.87
 -12  -3   0    2.99    3.48
 -12  -2   0   -2.79    4.08
  12   2   0  -16.68    6.80
 -12  -1   0    9.04   10.40
 -12  -1   0    8.05    9.98
  12   1   0   60.92   13.67
 -12   0   0   13.01    7.34
 -12   0   0    7.86    7.46
  12   0   0   26.47    6.92
  12  -1   0   26.33   12.55
 -12   1   0   17.38   10.26
 -12   1   0    8.82   11.59
  12  -1   0   52.51   10.70
  12  -2   0   -2.83    5.94
 -12   2   0   -5.31    5.35
  12  -2   0   -9.43    5.27
 -12   2   0    1.32    6.50
  12  -3   0    0.12    5.10
  12  -3   0    0.11    6.15
 -12   3   0    5.52    5.09
  12  -4   0   25.72    9.00
  12  -5   0    0.14    5.07
  13   5   0   22.26    6.81
 -13  -5   0   14.31    7.60
  13   3   0   -2.73    7.42
  13   3   0    8.23    3.58
 -13  -3   0    5.74    4.20
  13   2   0   -4.06    3.48
 -13  -2   0    2.09    4.07
  13   2   0    0.79    7.15
  13   1   0   -1.06    5.74
 -13  -1   0   -5.80    6.03
  13   1   0    0.71    3.98
 -13  -1   0    1.50    4.45
 -13   0   0  -11.08    6.36
  13   0   0  -11.59    4.93
 -13   0   0   -3.73    5.51
  13   0   0    2.70    4.93
  13  -1   0   -9.39    5.48
 -13   1   0   22.23    5.93
  13  -1   0   -4.15    5.09
 -13   1   0    5.82    6.05
  13  -2   0   -1.04    5.17
  13  -2   0   -0.10    5.37
 -13   2   0    4.92    6.78
 -14  -6   0    1.29    5.53
  14   6   0    7.68    8.01
 -14  -5   0    4.34    5.96
  14   5   0   10.26    4.53
  14   5   0   11.21    8.48
  14   4   0    9.36    8.44
  14   3   0   -0.11    7.79
 -14   1   0   -2.25    6.76
  14  -1   0   -6.33    6.28
 -14   2   0   10.28    8.16
  14  -2   0    0.11   10.10
 -14   2   0    7.58    9.22
 -14   3   0   -1.07    8.26
  14  -3   0    0.13    7.56
  14  -3   0    1.19    6.05
 -14   3   0    8.51    6.28
 -14   4   0    2.30    6.13
  14  -4   0    0.15    6.23
  14  -4   0    0.14    7.90
  14  -5   0  -12.13    6.53
  15   7   0    0.72    8.26
  15   6   0   11.96    9.05
 -15  -6   0    3.18    6.04
 -15  -5   0   -0.18    5.75
  15   5   0    8.76    4.46
  15   5   0   -3.74    8.48
  15   4   0   -0.43    3.90
 -15  -4   0    5.05    5.18
  15   4   0   -6.56    8.54
 -15  -3   0   -0.87    5.13
  15   3   0   12.65    8.48
  15   3   0   -0.52    3.98
 -15  -2   0   -0.58    5.21
  15   2   0    1.07    4.29
  15   2   0    3.29    7.48
 -15  -2   0    4.57    7.77
 -15  -1   0    0.16    5.84
 -15  -1   0   -0.22    7.77
  15   1   0    0.12    4.96
  15   1   0  -16.11    6.62
 -15   0   0   -3.01    7.79
  15   0   0   -2.92    6.00
 -15   0   0    0.17    6.47
  15   0   0  -10.49    6.61
  15  -1   0    6.78    7.57
 -15   1   0   -0.56    7.16
 -15   1   0   15.41    7.50
  15  -1   0   -4.57    6.53
 -15   2   0    4.19    7.18
  15  -2   0   -6.38    7.96
  15  -2   0    2.48    6.31
 -15   2   0    0.21    8.16
 -15   3   0    0.24    7.07
 -15   3   0   -0.70    8.96
  15  -3   0    2.74    6.50
  15  -3   0    7.67    8.71
  15  -4   0    0.31    8.48
 -15   4   0    7.85    7.11
  15  -4   0   -7.83    6.73
  15  -5   0    5.30    6.94
  16   7   0   12.23   10.23
  16   6   0   47.48   12.34
 -16  -6   0    1.29    9.22
  16   5   0    2.90    4.65
 -16  -5   0   -1.19    6.21
  16   5   0    8.55    9.29
 -16  -4   0   -1.92    5.74
  16   4   0  -14.09    8.96
  16   4   0    0.12    4.32
  16   3   0   -3.05    8.90
  16   3   0    7.17    4.44
 -16  -3   0   11.80    8.84
 -16  -3   0    1.14    5.51
 -16  -2   0  -15.43    8.82
  16   2   0   -5.30    7.43
 -16  -2   0    0.16    5.69
  16   2   0    4.29    4.62
 -16  -1   0    1.42    6.38
  16   1   0    0.13    5.23
  16   1   0    2.92    6.39
 -16  -1   0    3.14    8.75
  16   0   0    4.65    5.87
 -16   0   0   12.57    8.85
  16   0   0   -5.30    6.77
 -16   0   0    0.76    7.08
 -16   1   0    0.21    7.86
  16  -1   0   -0.13    7.93
 -16   1   0  -12.22    8.47
  16  -1   0    9.30    6.59
  16  -2   0  -14.30    6.94
  16  -2   0   16.51    9.14
 -16   2   0   -0.45    8.64
 -16   2   0    5.24    7.79
  16  -3   0   -2.62    6.99
 -16   3   0   -0.25    9.49
 -16   3   0   15.52    7.98
  16  -3   0  -10.11    9.74
  16  -4   0  -15.20    9.73
  16  -4   0    3.07    7.44
 -16   4   0    6.99    7.78
 -16   4   0   -0.26   10.30
  16  -5   0   -0.19    7.48
 -16   5   0   -0.29    7.18
  17   7   0   -5.49   10.07
 -17  -6   0    7.68    7.61
  17   6   0   16.40   10.90
  17   5   0    7.17    4.96
  17   5   0   -4.27   10.11
 -17  -5   0  -10.85    6.77
  17   4   0   -2.48    4.72
 -17  -4   0    0.19    6.08
  17   4   0   -4.90    9.84
 -17  -3   0   -8.03    9.74
 -17  -3   0   -0.18    6.56
  17   3   0   -7.78    5.12
 -17  -2   0    2.19    9.07
 -17  -2   0   15.43   11.73
  17   2   0   36.29    8.22
 -17  -1   0    3.16   17.91
 -17  -1   0   51.69   19.28
  17   1   0   71.35   22.84
 -17   0   0    0.63   10.29
  17   0   0   34.71    9.21
 -17   0   0   20.01   11.75
 -17   1   0    3.17   20.15
  17  -1   0   58.83   24.31
  17  -1   0   67.96   18.13
 -17   1   0   65.56   19.55
  17  -2   0   15.03    9.17
  17  -2   0   41.01   12.55
 -17   2   0   -4.73   10.32
 -17   2   0   -0.25   11.07
 -17   3   0   -8.99    8.58
  17  -3   0    1.99   10.67
  17  -3   0    2.27    7.90
 -17   3   0    2.63   10.48
  17  -4   0   16.36    8.28
 -17   4   0   12.64    8.62
  17  -4   0    1.49   10.30
 -17   4   0   -3.46   11.70
  17  -5   0    5.02    8.09
 -17   5   0    0.30   11.86
 -17   5   0    3.57    8.23
  18   7   0  -20.54   12.33
 -18  -6   0   13.16    8.18
  18   6   0  -18.95   11.07
  18   5   0    6.35    5.54
 -18  -5   0   -3.10    7.44
  18   5   0   -0.45   10.68
  18   4   0  -12.99    5.46
 -18  -4   0    6.23    7.13
  18   4   0   -9.27    9.80
 -18  -4   0   -0.29   10.55
  18   3   0   -9.39    9.11
  18   3   0    3.29    5.32
 -18  -3   0    4.68    6.73
 -18  -3   0  -10.48   10.84
 -18  -2   0  -12.66   11.38
  18   2   0    9.20    8.49
 -18  -2   0    5.32    7.40
  18   2   0    7.50    5.64
 -18  -1   0   -0.43    7.91
  18   1   0    0.16    6.18
 -18  -1   0   -6.56   11.06
  18   1   0    4.52    8.09
 -18   0   0   -5.85   10.82
  18   0   0   -2.71    6.88
  18   0   0  -13.15   10.39
 -18   0   0   -0.47    8.60
  18  -1   0   -0.51   10.40
 -18   1   0   -0.25    9.46
 -18   1   0    0.98   10.20
  18  -1   0   -9.07    7.82
  18  -2   0  -10.19   11.64
 -18   2   0    0.53   10.40
 -18   2   0    4.93   10.02
  18  -2   0   16.35    8.37
 -18   3   0    1.13   10.88
 -18   3   0   19.48    9.61
  18  -3   0   -3.06    8.40
  18  -3   0    5.22   11.88
  18  -4   0   -0.82   11.53
 -18   4   0    0.34    9.71
  18  -4   0   -2.31    8.52
 -18   4   0    0.61   12.16
 -18   5   0    0.32   12.69
  18  -5   0    0.22    8.91
 -18   5   0   -9.67    9.16
  19   7   0  -21.67   13.27
 -19  -6   0    2.21    7.92
  19   6   0    1.43   11.34
 -19  -5   0   14.82   11.32
  19   5   0    3.94   11.47
  19   5   0    0.18    6.20
 -19  -5   0   11.06    8.45
  19   4   0   -1.97    6.04
 -19  -4   0  -10.23    8.15
  19   4   0    2.44   10.51
 -19  -4   0  -10.97   11.99
  19   2   0 1000.00  162.74
 -19  -2   0  191.16  170.23
 -19  -1   0   97.15   62.94
 -19  -1   0  367.48   62.16
  19  -1   0  134.51   42.22
 -19   1   0   59.33   46.03
 -19   1   0  141.53   47.64
  19  -2   0  786.85  160.90
 -19   2   0   21.10  128.87
 -19   2   0   81.00  121.02
 -19   3   0    4.25   12.22
 -19   3   0  -26.15   11.67
  19  -4   0    7.26    9.43
 -19   4   0   12.27   12.64
  19  -4   0  -32.30   12.97
 -19   4   0   -8.84   10.45
  19  -5   0   -8.18    9.87
 -19   5   0    0.40   10.18
 -19   5   0    0.68   13.30
 -20  -6   0    5.75    8.64
  20   6   0    5.49   11.87
 -20  -6   0   -1.64   10.07
  20   5   0   11.48   11.37
 -20  -5   0   12.54    9.18
 -20  -5   0  -18.06   12.55
  20   5   0   -4.51    6.72
 -20  -4   0    6.69    9.13
  20   4   0    1.08    6.52
  20   4   0    5.28   10.77
 -20  -4   0  -17.53   13.10
 -20  -3   0   -4.31   13.65
 -20  -3   0  -11.28    9.13
  20   3   0    1.61    9.53
  20   3   0  -11.34    7.07
 -20  -2   0   10.49    9.32
  20   2   0    0.60   10.24
  20   2   0    8.61    6.90
 -20  -2   0  -11.25   13.77
  20   1   0    7.16    7.18
 -20  -1   0    6.70    9.55
  20   1   0  -27.80   11.89
 -20  -1   0   16.99   13.69
 -20   0   0   -3.69   10.30
  20   0   0  -17.00    8.27
  20   0   0   15.95   13.72
 -20   0   0  -14.30   13.68
  20  -1   0  -10.92    8.73
 -20   1   0  -22.37   13.37
 -20   1   0    5.15   11.10
  20  -1   0   -0.23   14.46
 -20   2   0   -7.87   12.51
 -20   2   0   10.73   11.59
  20  -2   0  -14.64    9.93
  20  -2   0    3.16   14.81
  20  -3   0  -27.03   14.60
 -20   3   0   10.60   12.94
  20  -3   0   -7.08   10.44
   1   1  -1    0.01    0.01
   1   1  -1    0.02    0.03
  -1  -1   1   -0.01    0.03
  -1  -1   1    0.01    0.02
  -2  -1  -1   45.50    9.43
   2   1  -1   47.94    9.30
   2   1  -1   46.69    9.57
   2   1   1   44.28    9.45
  -2  -1   1   43.35    9.42
  -2  -1   1   46.32    9.29
  -2   0  -1    0.21    0.30
   2   0  -1    0.03    0.36
   2   0  -1   -0.18    0.24
   2   0   1    0.07    0.31
  -2   0   1    0.06    0.37
  -2   1  -1   45.58    8.59
   2  -1   1   37.02    8.65
  -2  -2   1   -0.01    0.09
   3   2  -1    0.04    0.72
   3   2  -1    0.17    0.47
  -3  -2  -1    0.21    0.50
   3   2  -1    0.04    0.18
  -3  -2   1    0.15    0.12
  -3  -2   1    0.41    0.54
   3   2   1   -0.08    0.62
   3   1  -1   11.52    5.12
   3   1  -1   10.41    3.63
  -3  -1  -1   19.44    4.37
   3   1  -1   15.14    4.32
   3   1  -1   16.16    4.31
   3   1   1   17.33    4.60
   3   1   1   16.04    5.04
  -3  -1   1   13.76    4.24
  -3  -1   1   13.32    3.58
  -3   0  -1    6.75    2.22
   3   0  -1    4.56    2.64
   3   0  -1    5.44    2.25
   3   0  -1    8.36    1.85
   3   0  -1    9.19    2.34
  -3   0   1    7.61    2.59
  -3   0   1    6.71    2.02
   3   0   1    7.35    2.21
  -3   1  -1   19.80    4.12
   3  -1  -1   15.71    5.58
   3  -1   1   11.47    4.53
  -3   1   1   15.80    4.24
  -3   2  -1    0.05    0.89
   3  -2   1   -0.04    1.33
   4   3  -1    0.70    1.10
   4   2  -1   14.57    8.23
   4   2  -1   23.52    5.92
   4   2  -1   23.99    6.98
   4   2  -1   19.27    7.39
  -4  -2  -1   16.10    7.14
  -4  -2   1   25.44    5.61
   4   2   1   23.74    7.71
  -4  -2   1   29.91    7.02
   4   2   1   29.73    7.27
   4   1  -1    3.41    1.57
  -4  -1  -1    2.44    1.04
   4   1  -1    1.98    0.64
   4   1  -1    2.51    1.07
   4   1  -1    2.78    0.83
   4   1   1    3.08    1.03
  -4  -1   1    3.36    1.04
   4   1   1    2.43    1.50
  -4  -1   1    2.01    0.62
   4   0  -1    0.02    1.05
   4   0  -1    0.05    0.15
   4   0  -1    0.13    0.43
  -4   0  -1    0.37    0.90
   4   0  -1    0.21    0.88
   4   0   1   -0.31    0.79
  -4   0   1    0.17    0.61
  -4   0   1    0.64    0.91
   4  -1  -1    2.44    1.35
   4  -1  -1    1.66    1.49
  -4   1   1    2.76    1.27
   4  -1   1    2.46    1.19
  -4   2  -1   21.82    5.60
   4  -2   1   14.87    6.18
   4  -2   1   12.34    7.88
   5   3  -1   40.18   10.40
  -5  -3   1   26.47   10.31
   5   2  -1   20.41    6.72
  -5  -2  -1   24.10    6.60
   5   2  -1   17.51    7.96
   5   2  -1   19.51    5.49
   5   2  -1   20.27    6.61
  -5  -2   1   23.35    6.44
  -5  -2   1   23.15    5.22
   5   2   1   21.89    6.78
   5   1  -1   59.91   18.47
   5   1  -1   63.08   16.26
  -5  -1  -1   50.68   15.93
   5   1  -1   49.39   22.80
  -5  -1  -1   70.55   18.73
   5   1  -1   69.80   20.05
   5   1   1   65.88   18.90
   5   1   1   63.69   23.42
  -5  -1   1   77.21   21.49
   5   1   1   79.81   20.26
  -5  -1   1   64.98   18.48
  -5   0  -1    2.47    1.43
   5   0  -1    1.51    1.42
   5   0  -1    1.42    1.61
  -5   0  -1    2.13    1.01
   5   0  -1    2.27    0.61
   5   0  -1    2.99    0.96
  -5   0  -1    2.35    0.59
   5   0   1    2.32    0.84
  -5   0   1    2.72    1.41
   5   0   1    2.32    0.60
  -5   0   1    1.83    1.21
   5   0   1    2.54    1.32
   5  -1  -1   55.78   18.52
   5  -1  -1   74.67   16.13
   5  -1  -1   35.60   22.06
   5  -1   1   69.95   16.05
  -5   1   1   56.99   16.49
   5  -1   1   73.12   18.35
   5  -2  -1   19.93    6.28
   5  -2   1   22.08    6.45
   6   4  -1    0.28    2.02
  -6  -4   1    2.00    1.55
   6   3  -1    0.75    0.71
  -6  -3  -1    1.16    1.70
   6   3  -1   -1.48    2.40
  -6  -3   1    1.05    0.38
   6   3   1    1.08    2.03
   6   3   1    0.43    1.49
   6   2  -1   90.86   25.78
   6   2  -1   51.27   21.48
  -6  -2   1   91.64   20.54
   6   2   1  101.05   25.51
   6   2   1   90.40   29.14
   6   1  -1    6.59    1.90
   6   1  -1    5.46    1.42
  -6  -1  -1    6.62    1.38
   6   1   1    4.24    3.26
  -6  -1   1    5.79    1.41
  -6  -1   1    4.25    2.09
   6   1   1    5.39    1.83
   6   1   1    4.32    1.50
  -6   0  -1    0.11    0.91
   6   0  -1   -0.34    0.27
  -6   0  -1    0.08    0.18
   6   0  -1    0.54    0.86
   6   0   1    0.03    0.19
  -6   0   1    0.43    1.30
   6   0   1    0.12    0.63
   6   0   1   -0.82    2.36
   6  -1  -1    6.81    1.50
   6  -1  -1    3.80    2.75
  -6   1   1    5.78    2.59
   6  -1   1    5.34    1.43
   6  -2  -1   90.65   24.19
   6  -2  -1   82.37   29.58
  -6   2   1   84.28   22.82
   6  -2   1   84.99   24.51
  -6   3  -1    0.30    2.37
   6  -3   1    3.11    3.37
   6  -3   1    0.07    2.27
   7   4  -1   22.55    6.24
  -7  -4  -1   10.44    6.29
   7   4  -1   10.63    6.95
   7   4   1   28.44    6.53
  -7  -4   1   20.22    6.35
   7   3  -1    1.56    2.96
   7   3  -1   -0.37    1.51
   7   3  -1    0.69    0.85
  -7  -3  -1   -0.75    1.94
   7   3   1    0.10    2.60
  -7  -3   1    0.06    1.80
   7   3   1    1.20    1.69
  -7  -3   1    1.30    0.40
   7   2  -1   20.99    6.75
   7   2  -1   28.13    6.44
   7   2  -1   15.44    5.65
   7   2  -1   16.84    8.17
  -7  -2  -1   26.37    6.48
   7   2   1   26.35    8.05
  -7  -2   1   22.89    6.40
  -7  -2   1   22.32    5.43
   7   2   1   24.33    6.73
   7   2   1   22.97    6.51
   7   1  -1    4.13    2.25
   7   1  -1    5.37    1.27
  -7  -1  -1    3.85    1.85
   7   1  -1    6.34    3.26
  -7  -1  -1    6.01    1.23
  -7  -1  -1    6.46    2.24
   7   1  -1    5.34    1.77
   7   1   1    5.45    3.50
   7   1   1    3.99    1.34
  -7  -1   1    3.55    1.26
   7   1   1    6.32    2.11
  -7  -1   1    5.02    1.98
  -7  -1   1    3.73    2.33
   7   1   1    4.60    1.65
   7   0  -1    1.02    1.05
   7   0  -1    1.15    2.29
  -7   0  -1    0.89    0.33
   7   0  -1    3.42    2.08
  -7   0  -1    1.56    1.24
   7   0  -1    0.70    0.36
  -7   0  -1    1.85    2.08
  -7   0   1    2.78    2.32
   7   0   1    1.24    0.84
   7   0   1    0.77    0.34
   7   0   1   -0.22    2.67
  -7   0   1    2.38    2.22
   7   0   1    2.80    1.94
  -7   0   1    0.82    1.60
   7  -1  -1    7.27    2.67
   7  -1  -1    3.47    2.53
   7  -1  -1    4.19    1.27
   7  -1   1    4.33    1.20
   7  -1   1    7.00    2.58
  -7   1   1    6.75    2.66
   7  -2  -1   15.39    5.19
   7  -2  -1   25.32    6.16
   7  -2  -1   19.11    7.52
   7  -2   1   17.46    5.14
   7  -2   1   24.53    6.18
  -7   2   1   14.26    5.82
  -7   3  -1    2.31    2.78
   7  -3  -1    2.38    2.53
   7  -3   1   -2.45    3.78
   7  -3   1    0.08    2.60
  -7   4  -1   13.05    5.55
   7  -4   1   16.77    5.61
   8   5  -1   12.35    5.43
   8   4  -1    6.63    2.28
   8   4  -1    4.61    4.12
   8   4  -1    5.99    2.83
  -8  -4  -1    5.05    3.19
   8   4   1    6.78    3.66
  -8  -4   1   10.95    3.31
   8   4   1    7.03    2.92
   8   3  -1   68.39   18.73
  -8  -3  -1   51.79   18.74
   8   3   1   44.72   19.35
  -8  -3   1   69.11   18.40
   8   3   1   91.31   18.79
   8   2  -1    3.19    1.54
   8   2  -1    3.84    1.09
   8   2  -1    4.76    2.30
  -8  -2  -1    3.95    2.37
   8   2  -1   -4.29    4.22
  -8  -2   1    1.06    2.46
   8   2   1    4.38    1.39
  -8  -2   1    3.76    0.97
   8   2   1    2.19    2.24
   8   2   1    5.18    3.73
   8   1  -1    7.42    3.44
  -8  -1  -1    0.70    2.09
  -8  -1  -1    0.93    0.34
  -8  -1  -1    0.54    1.13
   8   1  -1    0.95    1.07
   8   1  -1    0.81    0.47
   8   1  -1    0.63    2.24
   8   1   1    0.68    0.51
   8   1   1    1.02    2.12
  -8  -1   1    0.89    0.42
  -8  -1   1    0.71    2.31
   8   1   1   -1.89    3.65
  -8  -1   1    0.79    1.41
   8   1   1    0.74    0.83
   8   0  -1   -0.32    1.18
   8   0  -1   -0.92    2.60
   8   0  -1    0.44    2.50
   8   0  -1   -0.27    0.32
  -8   0  -1   -0.22    2.50
  -8   0  -1   -0.08    0.27
  -8   0  -1    0.72    1.54
   8   0   1   -0.21    3.19
   8   0   1   -0.84    0.98
  -8   0   1   -0.27    1.81
  -8   0   1   -0.24    2.76
  -8   0   1    1.25    2.61
   8   0   1    0.42    2.32
   8   0   1    0.35    0.31
   8  -1  -1    0.14    2.74
  -8   1  -1    0.18    2.94
   8  -1  -1    0.75    0.42
   8  -1  -1    1.11    2.38
   8  -1   1    0.39    0.29
   8  -1   1    1.73    2.60
  -8   1   1    1.16    2.82
   8  -1   1    0.68    2.38
   8  -2  -1    4.86    1.17
   8  -2  -1    1.98    3.72
   8  -2  -1    1.04    3.19
  -8   2   1    3.28    3.05
   8  -2   1    0.92    3.27
   8  -2   1    3.86    1.04
  -8   3  -1   33.15   12.79
   8  -3  -1   28.20   13.68
   8  -3   1   38.61   14.00
  -8   3   1   40.50   13.19
  -8   4  -1    6.23    3.83
   8  -4   1    9.71    5.26
   8  -4   1    4.84    3.69
   9   5  -1    6.02    4.36
   9   5  -1    6.54    2.22
  -9  -5   1    3.07    3.34
   9   5   1    7.45    3.87
   9   4  -1   82.08   18.83
   9   4  -1   53.93   22.18
  -9  -4  -1   48.33   19.47
   9   4  -1   55.18   19.49
   9   4   1   68.75   18.83
  -9  -4   1   80.54   19.22
   9   4   1   49.34   20.75
   9   3  -1   -1.41    1.98
   9   3  -1    3.97    4.36
  -9  -3  -1    0.49    2.46
   9   3   1    0.26    0.94
   9   3   1   -0.36    1.98
  -9  -3   1   -1.24    2.26
   9   3   1    2.98    3.95
   9   2  -1   29.58    7.53
   9   2  -1   25.49    6.81
   9   2  -1   21.16    8.14
   9   2  -1   30.68   10.09
  -9  -2  -1   27.41    7.62
  -9  -2   1   28.75    7.59
  -9  -2   1   29.69    6.51
   9   2   1   22.26   10.16
  -9  -2   1   20.82    9.03
   9   2   1   22.56    7.55
   9   1  -1    1.74    3.73
   9   1  -1    0.93    2.50
   9   1  -1   -0.05    0.46
   9   1  -1    0.22    1.19
  -9  -1  -1    0.13    0.33
  -9  -1  -1    0.15    2.43
  -9  -1  -1    0.02    1.37
   9   1   1    1.48    2.24
  -9  -1   1    0.10    1.69
  -9  -1   1   -0.75    2.66
  -9  -1   1    0.49    0.40
   9   1   1   -0.27    0.51
   9   1   1   -0.67    1.01
   9   1   1    2.97    4.01
  -9   0  -1    0.30    1.80
  -9   0  -1    1.24    2.96
   9   0  -1   -0.09    1.41
   9   0  -1    1.45    2.90
   9   0  -1    1.59    2.81
  -9   0  -1    0.26    0.32
  -9   0  -1    0.10    3.21
   9   0  -1    0.04    0.37
  -9   0   1   -2.31    3.07
  -9   0   1    0.30    0.42
  -9   0   1    0.68    2.16
   9   0   1    0.91    2.70
   9   0   1    7.66    3.63
  -9   0   1    0.68    3.07
   9  -1  -1   -0.73    3.05
   9  -1  -1   -0.08    0.43
  -9   1  -1    0.31    3.57
  -9   1  -1   -1.50    3.23
   9  -1  -1    2.19    2.71
   9  -1   1   -1.65    3.03
   9  -1   1    5.27    2.84
  -9   1   1   -1.43    3.26
   9  -2  -1   28.64    8.06
   9  -2  -1   13.47    9.32
   9  -2  -1   25.69    6.72
   9  -2   1   31.64    8.17
  -9   2   1   33.93    7.74
   9  -3  -1    1.01    4.53
   9  -3  -1    0.77    3.38
  -9   3   1    0.14    3.45
   9  -3   1   -0.93    3.46
   9  -4  -1   60.48   17.62
  -9   4  -1   66.63   17.46
   9  -4   1   59.13   21.77
   9  -4   1   68.27   17.82
  10   6  -1   11.93    6.05
 -10  -5  -1    6.39    5.48
  10   5  -1   23.87    5.23
  10   5  -1   22.69    6.75
  10   5  -1   11.83    4.66
  10   5   1   14.32    6.18
 -10  -5   1   10.02    5.59
  10   4  -1    2.61    2.60
  10   4  -1    2.19    1.53
 -10  -4  -1    3.55    3.08
  10   4  -1    1.82    5.15
  10   4   1    4.14    4.53
 -10  -4   1    0.97    2.87
  10   4   1    2.29    2.62
  10   3  -1   53.67   14.87
  10   3  -1   50.69   17.67
  10   3  -1   40.77   13.63
 -10  -3  -1   56.37   13.72
  10   3   1   46.37   17.04
  10   3   1   47.21   13.63
 -10  -3   1   43.20   13.52
 -10  -3   1   43.16   11.99
 -10  -2  -1   -1.31    2.72
  10   2  -1    0.44    4.66
  10   2  -1    1.46    2.48
  10   2   1    3.65    4.94
 -10  -2   1    0.41    2.69
  10   2   1   -0.62    2.21
 -10  -1  -1    0.60    3.06
  10   1  -1    0.95    4.04
  10   1  -1    0.76    2.92
  10   1   1    5.76    4.65
 -10  -1   1    0.77    3.14
  10   1   1    3.24    2.62
 -10  -1   1   -0.78    3.77
 -10   0  -1   -2.10    3.32
  10   0  -1    0.05    2.90
  10   0  -1    0.65    3.16
 -10   0  -1    0.59    3.81
 -10   0   1    0.40    3.61
 -10   0   1    0.34    3.72
  10   0   1   -3.00    3.86
  10   0   1   -2.47    3.12
 -10   1  -1    1.79    3.86
  10  -1  -1   -0.09    3.41
  10  -1  -1    1.53    3.16
 -10   1  -1   -0.47    4.20
 -10   1   1    1.96    3.64
 -10   1   1    2.05    4.27
  10  -1   1   -1.12    2.97
  10  -1   1    4.68    3.33
  10  -2  -1   -4.83    3.80
  10  -2  -1    2.33    4.12
  10  -2   1   -0.68    3.68
 -10   2   1   -1.62    3.88
  10  -3  -1   28.40   15.76
  10  -3  -1   55.85   12.96
  10  -3   1   49.75   13.10
 -10   3   1   37.18   12.46
  10  -4  -1   -2.94    4.13
 -10   4  -1    0.82    4.15
  10  -4  -1    4.63    5.52
  10  -4   1    8.48    4.19
 -10   5  -1   19.41    6.78
  10  -5   1   23.14    6.56
  11   6  -1    5.30    5.50
  11   5  -1    8.19    5.95
 -11  -5  -1   -0.14    4.36
  11   5  -1    4.07    3.77
  11   5   1    6.88    3.86
  11   5   1   22.72    5.69
 -11  -5   1   -0.76    4.33
  11   4  -1   33.95   12.36
 -11  -4  -1   31.81    9.68
  11   4  -1   27.14    9.07
 -11  -4   1   23.91    9.42
  11   4   1   14.41   11.56
  11   4   1   41.58    9.05
 -11  -3  -1    1.65    3.14
  11   3  -1    0.09    5.65
  11   3  -1   -1.01    2.45
  11   3   1   -3.01    5.93
  11   3   1    2.32    2.48
 -11  -3   1    0.45    3.00
  11   2  -1    5.23    2.92
 -11  -2  -1    0.37    3.22
  11   2  -1    3.11    5.38
 -11  -2   1   -0.83    3.24
  11   2   1    2.73    5.58
  11   2   1    1.33    2.60
  11   1  -1    4.14    3.42
  11   1  -1    7.69    4.60
 -11  -1  -1    5.44    3.64
 -11  -1   1    0.38    4.41
 -11  -1   1    2.92    3.69
  11   1   1    2.40    3.24
  11   0  -1    6.61    3.94
  11   0  -1    0.73    3.92
 -11   0  -1    3.55    4.23
 -11   0  -1    6.79    4.77
 -11   0   1    2.10    4.44
  11   0   1   10.61    3.81
  11   0   1   10.50    4.89
 -11   0   1   -2.71    4.42
  11  -1  -1    7.90    4.16
  11  -1  -1   -3.30    4.25
 -11   1  -1    7.01    4.72
 -11   1  -1    5.23    4.81
 -11   1   1    3.51    5.12
  11  -1   1    1.38    3.98
  11  -1   1    0.06    3.59
 -11   1   1    7.36    4.41
  11  -2  -1    5.25    4.22
  11  -2  -1   -0.08    4.70
 -11   2  -1    2.39    4.61
 -11   2  -1   -1.77    5.60
 -11   2   1    0.90    4.28
  11  -2   1    2.47    4.29
  11  -2   1    3.41    4.68
  11  -3  -1   -2.18    4.27
  11  -3  -1   -0.10    5.78
 -11   3   1   -0.16    4.48
  11  -3   1    1.24    4.27
  11  -4  -1   16.20   10.98
  11  -4  -1   22.99    8.28
 -11   4   1   12.11    8.19
  11  -4   1   27.80    8.33
 -11   5  -1   14.89    5.82
  11  -5   1    8.99    5.76
  12   6  -1   -2.68    6.14
  12   6   1   -8.17    5.66
 -12  -6   1    2.91    4.13
 -12  -5  -1   15.45    6.77
  12   5  -1   16.57    9.10
  12   5  -1   24.03    6.06
  12   5   1    3.82    8.17
  12   5   1   24.47    6.10
 -12  -5   1    8.17    6.66
  12   4  -1    3.07    3.08
  12   4  -1   11.61    6.78
 -12  -4  -1   -1.47    3.95
 -12  -4   1   -2.25    3.69
  12   4   1   11.82    6.52
  12   4   1    1.94    3.11
  12   3  -1    9.63    4.46
 -12  -3  -1   12.57    5.08
  12   3  -1   15.99    7.80
 -12  -3   1   12.76    4.91
  12   3   1   14.16    4.51
  12   3   1   14.58    7.95
  12   2  -1  -17.39    6.61
 -12  -2  -1   -1.46    3.93
  12   2  -1   -4.37    3.53
 -12  -2   1    1.25    3.89
  12   1  -1   69.05   18.20
  12   1  -1   73.05   21.97
 -12  -1  -1   19.62   18.81
  12   1   1  116.52   18.25
 -12   0  -1   19.52    6.09
  12   0  -1    5.18    4.43
  12   0  -1   11.98    4.70
 -12   0  -1    3.05    5.45
 -12   0   1    1.87    5.18
 -12   0   1    6.37    5.46
  12   0   1    0.89    5.81
 -12   1  -1   25.05   14.05
  12  -1  -1   34.34   16.06
  12  -1  -1   24.16   12.62
 -12   1  -1   27.29   12.24
 -12   1   1    5.97   13.94
 -12   1   1   14.14   11.59
  12  -2  -1  -16.36    5.29
 -12   2  -1    2.62    6.29
  12  -2  -1   -8.57    5.72
 -12   2  -1    2.87    5.25
 -12   2   1    3.17    4.96
  12  -3  -1    1.58    6.96
  12  -3  -1    3.14    5.42
  12  -3   1    1.86    5.47
 -12   3   1    3.39    5.42
  12  -4  -1    4.98    5.00
  12  -4  -1   -7.74    6.44
 -12   4   1    2.56    5.10
  12  -4   1    0.13    5.03
 -12   5  -1   33.54    7.18
  12  -5   1    1.34    6.85
  13   5  -1    4.74    4.41
 -13  -5   1   -0.75    5.36
  13   4  -1   10.64    8.50
  13   4  -1   10.14    4.53
 -13  -4  -1   12.45    5.27
  13   4   1    1.44    4.48
 -13  -4   1   20.47    5.21
 -13  -3  -1   -0.72    4.12
  13   3  -1   -5.93    7.12
  13   3   1   -3.67    3.35
 -13  -3   1    0.45    3.98
  13   2  -1    7.40    3.89
  13   2  -1    0.74    6.76
 -13  -2  -1   -2.81    4.42
 -13  -2   1   -1.52    4.49
  13   2   1    0.35    3.62
  13   2   1    7.89    7.22
 -13  -2   1   -1.34    6.24
  13   1  -1    9.48    4.68
  13   1  -1   10.38    5.74
 -13  -1  -1    9.69    6.37
 -13  -1  -1    5.88    4.85
  13   1   1   -9.84    6.50
  13   1   1    3.09    4.03
 -13  -1   1    2.98    4.94
 -13  -1   1   -1.33    6.10
  13   0  -1    6.73    4.84
  13   0  -1    8.01    4.43
 -13   0  -1    8.66    6.31
 -13   0  -1   -0.27    5.22
 -13   0   1    0.88    5.87
  13   0   1   -3.90    4.93
  13   0   1    0.11    4.67
 -13   0   1    1.52    5.29
  13  -1  -1    5.78    5.25
 -13   1  -1   -2.30    5.92
  13  -1  -1   -3.33    5.58
 -13   1  -1   25.36    6.14
  13  -1   1   -0.85    5.16
 -13   1   1    4.21    6.30
 -13   1   1    0.71    5.67
 -13   2  -1    1.23    7.10
  13  -2  -1    2.64    5.79
 -13   2   1   27.37    5.67
 -13   2   1    2.19    7.61
  13  -2   1    0.13    5.66
  13  -3  -1   -0.14    5.75
 -13   5  -1    3.43    6.26
 -13   5   1    2.58    6.00
  14   7  -1    8.31    8.06
  14   6  -1  -11.85    7.85
 -14  -6  -1   -0.94    5.26
  14   6   1    5.47    7.30
 -14  -6   1    0.72    5.18
 -14  -5  -1   -1.03    5.72
  14   5  -1   -3.00    8.18
  14   5   1   10.39    7.71
  14   5   1    2.03    4.24
 -14  -4  -1    3.23    5.23
  14   4  -1   -0.11    8.32
  14   4   1   10.43    8.50
  14   3   1    1.47    7.78
  14   2   1    6.59    7.62
 -14  -1  -1    0.60    7.01
  14   1   1   -5.20    6.75
 -14   0  -1   -2.54    7.26
  14   0   1   -6.60    5.74
  14  -1  -1   -0.10    6.17
 -14   1  -1    1.05    6.96
 -14   1   1   -3.19    6.54
  14  -1   1    3.69    5.61
 -14   2  -1    3.68    7.50
  14  -2  -1    2.17    7.35
 -14   2  -1   -2.75    6.64
  14  -2  -1   -0.14    4.99
  14  -2   1    6.02    6.73
 -14   2   1   -1.64    6.34
 -14   3  -1   13.34    6.64
  14  -3  -1    6.15    6.36
 -14   3  -1   10.68    8.19
  14  -3  -1    0.13    7.70
  14  -3   1    0.13    8.06
 -14   3   1    9.26    6.32
  14  -3   1    1.63    6.15
  14  -4  -1   -6.78    6.69
  14  -4  -1  -10.87    8.01
 -14   4   1   11.51    6.43
  14  -4   1    4.27    6.35
  14  -5  -1    0.32    6.36
  14  -5   1    6.73    6.54
 -14   5   1    7.54    6.40
  15   7  -1    4.65    8.53
 -15  -6  -1   -0.41    5.39
  15   6  -1    7.88    8.73
  15   6   1   -2.92    8.32
 -15  -6   1    0.19    5.51
  15   5  -1   -0.12    8.42
 -15  -5  -1    0.19    5.66
  15   5  -1   -0.24    4.26
  15   5   1   -6.15    8.71
 -15  -5   1   -1.87    5.38
  15   5   1    8.37    4.44
 -15  -4  -1    0.16    5.20
  15   4  -1  -13.74    8.85
  15   4  -1    4.65    3.91
  15   4   1   -7.73    8.63
 -15  -4   1   -0.15    4.89
  15   4   1    0.34    4.05
 -15  -3  -1    0.30    5.15
  15   3  -1   -4.91    8.47
  15   3  -1   -5.55    4.10
 -15  -3   1   -1.54    4.99
  15   3   1   -6.32    4.09
  15   3   1   -9.88    8.55
 -15  -3   1    5.07    7.81
 -15  -2  -1   -0.15    5.34
  15   2  -1   -2.66    4.43
  15   2  -1  -15.98    7.22
 -15  -2  -1   -4.68    8.21
  15   2   1   -1.62    4.45
  15   2   1  -11.65    8.32
 -15  -2   1    3.40    7.70
 -15  -2   1    0.58    5.58
 -15  -1  -1   -1.75    5.94
 -15  -1  -1    6.74    7.91
  15   1  -1   -6.06    5.30
  15   1  -1  -15.29    6.30
 -15  -1   1   -0.16    5.87
 -15  -1   1   -5.86    7.86
  15   1   1    4.86    4.96
  15   1   1   -3.62    7.31
  15   0  -1   -1.27    6.00
 -15   0  -1   -2.63    8.34
 -15   0  -1    2.22    6.29
  15   0  -1   -2.37    6.59
  15   0   1  -12.55    6.29
 -15   0   1   -8.12    7.50
  15   0   1    0.28    5.85
 -15   0   1   -1.87    6.68
 -15   1  -1    1.13    7.23
  15  -1  -1   -4.79    7.27
 -15   1  -1    1.18    7.61
  15  -1  -1   -4.73    6.07
 -15   1   1    0.38    7.28
  15  -1   1    1.78    6.28
 -15   1   1  -10.38    7.29
  15  -1   1    6.76    7.28
 -15   2  -1  -20.32    8.11
  15  -2  -1  -14.50    8.61
 -15   2  -1    0.21    7.90
  15  -2  -1    8.10    6.64
  15  -2   1  -18.31    8.19
  15  -2   1   -7.70    6.69
 -15   2   1    0.64    8.42
 -15   2   1  -11.73    7.23
  15  -3  -1    1.17    8.67
 -15   3  -1    0.45    8.59
 -15   3  -1    3.42    7.21
  15  -3  -1    6.83    6.72
  15  -3   1    6.56    8.98
 -15   3   1    1.17    9.05
  15  -3   1    3.37    6.63
 -15   3   1  -15.01    6.73
  15  -4  -1   -0.15    8.15
 -15   4  -1   -0.24    9.56
  15  -4  -1   -0.50    6.80
 -15   4   1   11.31    6.82
  15  -4   1    9.61    6.87
  15  -5  -1    8.81    6.90
 -15   5   1    2.44    6.65
  15  -5   1    2.55    6.81
  16   7  -1    0.26    9.33
  16   6  -1   26.20    8.65
  16   6  -1   36.99   12.42
  16   6   1   30.29   12.57
 -16  -5  -1   -0.61    6.37
  16   5  -1    7.14    9.28
  16   5  -1   -0.13    4.66
 -16  -5   1   -0.39    6.32
  16   5   1    0.70    4.71
  16   5   1   10.56    9.14
  16   4  -1   -0.39    8.90
  16   4  -1    0.12    4.13
 -16  -4  -1    0.18    5.62
  16   4   1   -5.60    9.16
  16   4   1   -3.63    4.40
 -16  -4   1   -0.17    5.30
  16   3  -1    4.86    8.46
 -16  -3  -1   -0.99    5.67
  16   3  -1   -3.06    4.35
 -16  -3   1  -11.07    8.70
  16   3   1    2.67    8.64
 -16  -3   1   -0.16    5.35
  16   3   1    6.02    4.30
 -16  -2  -1   -0.33    5.64
 -16  -2  -1   -6.71    8.89
  16   2  -1   -7.84    7.35
  16   2  -1   -7.34    4.71
  16   2   1    1.62    4.40
  16   2   1   -7.31    8.13
 -16  -2   1   -0.16    5.68
 -16  -2   1    6.83    8.67
 -16  -1  -1  -21.22    9.34
  16   1  -1   -6.14    5.28
  16   1  -1    0.19    6.12
 -16  -1  -1    0.18    6.33
 -16  -1   1    1.58    6.34
  16   1   1   -2.96    5.08
  16   1   1    5.47    7.05
 -16  -1   1   -0.76    8.62
 -16   0  -1   -0.57    7.03
 -16   0  -1    4.03    9.14
  16   0  -1    8.10    7.51
  16   0  -1   -0.15    6.03
  16   0   1   -1.14    6.96
 -16   0   1   -7.00    8.44
 -16   0   1   -1.70    7.18
  16   0   1    3.36    5.84
  16  -1  -1   12.24    8.31
 -16   1  -1    0.82    7.70
  16  -1  -1   -6.63    6.55
 -16   1  -1    6.11    8.65
  16  -1   1  -11.30    7.70
  16  -1   1    0.33    6.41
 -16   1   1    0.21    7.97
 -16   1   1    8.80    8.24
 -16   2  -1   -4.49    8.86
 -16   2  -1    9.46    8.40
  16  -2  -1   -2.95    8.85
  16  -2  -1    3.55    6.69
 -16   2   1    3.62    7.71
  16  -2   1    4.53    6.78
  16  -2   1    0.85    8.59
 -16   2   1   -0.23    8.72
 -16   3  -1   -1.48    9.56
  16  -3  -1    0.48    9.31
  16  -3  -1   -0.18    7.08
 -16   3  -1  -17.83    8.45
  16  -3   1    9.37    7.21
 -16   3   1    0.25    9.96
  16  -3   1   14.54    9.71
 -16   3   1    4.50    7.43
 -16   4  -1   -0.27   10.19
 -16   4  -1    3.66    7.88
  16  -4  -1   -8.26    9.26
  16  -4  -1   -2.54    7.30
  16  -4   1    6.27    9.80
  16  -4   1    6.98    7.42
 -16   4   1    7.46    7.46
 -16   4   1   -0.27   10.55
  16  -5  -1   -0.19    7.40
  16  -5   1   -0.92    7.44
 -16   5   1    5.89    7.38
  17   7  -1   -0.85    9.93
  17   6  -1    0.57   10.16
  17   6  -1    7.35    5.27
 -17  -6  -1   -0.24    6.76
  17   6   1    2.03   10.32
 -17  -6   1    3.41    6.65
 -17  -5  -1    0.22    6.78
  17   5  -1    0.57    4.91
  17   5  -1    2.76    9.95
  17   5   1    0.15    5.17
  17   5   1   13.25    9.90
 -17  -5   1   10.36    6.91
 -17  -4  -1   -1.58    6.44
  17   4  -1   -1.49    9.65
  17   4  -1    2.59    4.77
  17   4   1    4.52    4.95
  17   4   1    3.82    9.75
 -17  -4   1    9.43    6.28
 -17  -4   1   -7.20    9.52
 -17  -3  -1    0.57    6.56
 -17  -3  -1    0.27    9.69
  17   3  -1  -17.46    5.29
 -17  -3   1   -6.07    9.79
 -17  -3   1   -0.36    6.37
 -17  -2  -1   -0.19    7.43
  17   2  -1   15.22    6.28
 -17  -2  -1    0.28   10.28
 -17  -2   1   -1.08    7.39
 -17  -2   1  -20.49   10.39
  17   2   1   16.20    6.05
  17   1  -1  102.29   30.65
 -17  -1  -1   37.88   27.39
  17   1  -1  133.69   25.63
  17   1   1  164.50   25.73
 -17  -1   1   51.15   27.02
  17   1   1   87.98   30.37
 -17   0  -1   26.35   13.88
  17   0  -1   10.48   14.86
  17   0  -1   61.24   11.04
 -17   0  -1    0.21   12.23
 -17   0   1    0.63   12.33
 -17   0   1   31.73   13.05
  17  -1  -1   54.96   24.58
 -17   1  -1   35.16   19.69
 -17   1  -1    1.59   20.19
  17  -1  -1   32.19   18.00
 -17   1   1   36.10   19.01
  17  -1   1   97.12   25.11
  17  -1   1   90.18   18.17
 -17   1   1    1.13   20.14
 -17   2  -1    0.49    9.90
  17  -2  -1   27.17   11.26
 -17   2  -1    5.42    9.88
  17  -2  -1    8.44    8.12
  17  -2   1   33.85   11.46
 -17   2   1   -0.49   10.08
 -17   2   1    5.15    9.24
  17  -2   1    3.47    8.14
  17  -3  -1    0.18   10.47
 -17   3  -1    8.01    9.35
 -17   3  -1    0.26   10.18
  17  -3  -1   11.78    7.94
  17  -3   1  -18.68   11.03
  17  -3   1    4.32    7.71
 -17   3   1  -12.84    8.45
 -17   3   1    2.42   10.72
 -17   4  -1    0.28   11.13
  17  -4  -1   -4.80   10.29
  17  -4  -1   14.89    8.14
 -17   4  -1   -3.45    8.83
  17  -4   1  -11.60   10.39
 -17   4   1   15.26    8.33
  17  -4   1    8.90    7.77
 -17   4   1   -0.29   11.61
 -17   5  -1    5.64   11.57
  17  -5  -1   -0.41    8.24
 -17   5   1    6.11    8.04
  17  -5   1   -1.99    8.01
  18   7  -1  -15.53   12.14
 -18  -6  -1   21.73    8.04
  18   6  -1  -23.76   11.67
  18   6  -1   -9.75    5.73
  18   6   1  -23.65   11.20
 -18  -6   1   21.01    7.99
  18   5  -1   -8.81   10.22
 -18  -5  -1   11.49    7.40
  18   5  -1    5.85    5.54
  18   5   1   -0.15   10.56
 -18  -5   1    6.92   10.45
  18   5   1    0.83    5.45
 -18  -5   1   -3.03    7.09
  18   4  -1   -1.70    5.31
 -18  -4  -1   17.56   11.09
  18   4  -1   -2.66    9.94
 -18  -4  -1   10.54    7.41
 -18  -4   1    2.72    6.96
  18   4   1    2.41    5.38
  18   4   1   15.45   10.60
 -18  -4   1   12.81   10.56
 -18  -3  -1   -1.28    7.07
 -18  -3  -1  -23.72   11.28
  18   3  -1    2.04    8.55
  18   3  -1    0.71    5.36
 -18  -3   1   -1.39    6.94
  18   3   1   -4.72    9.11
  18   3   1   -9.48    5.19
 -18  -3   1   -3.61   10.51
  18   2  -1    3.37    5.49
 -18  -2  -1    1.66    7.10
  18   2  -1   -3.51    7.81
 -18  -2  -1   -1.91   11.19
 -18  -2   1  -11.65    6.98
  18   2   1    1.24    8.35
 -18  -2   1    5.39   10.65
  18   2   1    9.00    5.62
  18   1  -1    5.99    9.60
 -18  -1  -1   12.07   11.58
 -18  -1  -1    0.44    7.73
  18   1  -1    0.63    6.13
 -18  -1   1   -7.53   10.49
  18   1   1   -3.32    7.96
 -18  -1   1   -5.35    7.52
  18   1   1    1.22    5.86
 -18   0  -1  -16.05   11.40
  18   0  -1    3.51    9.86
 -18   0  -1   -0.95    8.63
  18   0  -1    8.53    7.05
  18   0   1   -1.03    6.85
 -18   0   1   -8.88   10.42
 -18   0   1   -0.23    8.41
  18   0   1   -1.17    9.57
 -18   1  -1    0.75    9.38
  18  -1  -1   -2.70   11.20
 -18   1  -1    0.34   10.81
  18  -1  -1   -4.82    7.77
 -18   1   1   -0.25    9.43
  18  -1   1   10.98    7.47
  18  -1   1  -13.33   10.82
 -18   1   1    9.82    9.88
  18  -2  -1   -8.88   11.50
 -18   2  -1    8.51   10.29
 -18   2  -1    0.27   10.27
  18  -2  -1   15.38    8.01
 -18   2   1   -0.27   10.17
  18  -2   1   -1.89   11.50
 -18   2   1    0.64    9.16
  18  -2   1    0.20    8.07
 -18   3  -1   -0.85   11.06
  18  -3  -1    0.20   11.28
  18  -3  -1  -10.48    8.53
 -18   3  -1    4.11    9.73
 -18   3   1    9.13    9.30
  18  -3   1  -32.54   12.39
 -18   3   1    1.43   11.42
  18  -3   1   14.08    8.55
 -18   4  -1    0.30   11.61
 -18   4  -1    0.35    9.91
  18  -4  -1    8.34   11.40
  18  -4  -1    7.84    8.51
 -18   4   1    1.35    8.80
 -18   4   1   -0.30   11.88
  18  -4   1   -7.51    8.57
  18  -4   1   -3.52   11.98
 -18   5  -1   -4.20   12.85
  18  -5  -1  -19.27    9.02
 -18   5   1   -0.32   12.79
  18  -5   1   13.52    8.94
 -18   5   1   -7.79    8.64
  19   7  -1  -15.18   12.54
 -19  -6  -1    0.28    7.98
  19   6  -1    1.37   11.21
  19   6   1   -3.95   11.19
 -19  -6   1    0.81    7.83
 -19  -5  -1   -4.68   11.53
  19   5  -1    3.37    6.06
 -19  -5  -1   -1.93    8.38
  19   5  -1   12.34   10.80
 -19  -5   1    3.60    8.15
 -19  -5   1   12.81   11.43
  19   5   1   -4.55   11.12
  19   5   1    9.80    6.48
 -19  -4  -1   -7.45   11.99
  19   4  -1   -0.85    9.90
  19   4  -1   -3.73    5.94
 -19  -4  -1    5.38    8.21
 -19  -4   1   26.63   11.88
  19   4   1   -3.31    5.88
  19   4   1    2.14   10.68
 -19  -4   1   -7.94    7.65
 -19  -3  -1  -31.65   14.18
 -19  -3   1  -42.25   14.61
 -19  -3   1  -23.16    9.69
  19   2  -1  873.28  195.71
  19   2   1  879.89  195.61
 -19  -1  -1  387.87   82.15
 -19  -1  -1  171.11   83.27
 -19  -1   1  235.30   82.50
 -19  -1   1  438.19   81.77
 -19   0  -1  -14.21   24.51
  19   0  -1   12.68   20.22
 -19   0   1   69.61   23.74
  19   0   1   39.90   20.40
 -19   1  -1  102.02   59.74
 -19   1  -1  189.10   61.82
 -19   1   1   83.84   58.16
 -19   1   1  161.08   60.92
 -19   2  -1    2.90   98.78
 -19   2  -1   62.87   92.14
  19  -2  -1  132.20   81.15
 -19   2   1   47.35   89.18
 -19   2   1   14.96   97.28
  19  -2   1  133.09   81.51
 -19   3  -1  -31.22   13.03
 -19   3  -1   -0.30   13.48
 -19   3   1  -16.81   13.36
 -19   3   1  -28.93   12.41
  19  -4  -1   18.73    9.53
 -19   4  -1    0.32   12.50
 -19   4  -1  -22.29   11.22
  19  -4  -1   -3.38   12.58
 -19   4   1   10.31   12.58
 -19   4   1   11.66   10.06
  19  -4   1    0.69   13.00
  19  -4   1  -14.21    9.83
 -19   5  -1  -14.14   10.59
 -19   5  -1    0.34   13.81
  19  -5   1   26.18   10.09
  20   7  -1   15.66   12.93
 -20  -6  -1    8.07    8.82
  20   6  -1   -1.10   11.28
 -20  -6   1    0.88    8.86
 -20  -6   1   -2.26   11.94
  20   6   1   -0.17    8.47
  20   5  -1    6.16    6.70
 -20  -5  -1    5.81    9.47
  20   5  -1   -3.47   10.88
 -20  -5   1  -15.23   12.71
  20   5   1    5.33   11.82
  20   5   1    5.39    7.15
 -20  -5   1   17.05    9.13
 -20  -4  -1  -14.77   13.28
 -20  -4  -1    0.29    9.23
  20   4  -1    6.05    6.60
  20   4  -1   -1.54   10.18
  20   4   1   10.58   10.94
  20   4   1    4.24    7.04
 -20  -4   1   37.72    9.47
 -20  -4   1    6.11   13.27
  20   3  -1   -2.56    9.30
 -20  -3  -1   -1.15   13.68
  20   3  -1    1.89    6.40
 -20  -3  -1    4.70    9.19
 -20  -3   1    5.00   13.42
 -20  -3   1   19.67    9.05
  20   3   1   -3.63    6.75
  20   3   1   -1.01    9.82
  20   2  -1    1.40    6.88
  20   2  -1  -15.24   11.45
 -20  -2  -1  -24.62    9.40
 -20  -2  -1  -20.42   14.40
  20   2   1   10.54   10.16
  20   2   1   -4.95    6.89
 -20  -2   1    3.53    8.90
 -20  -2   1  -10.04   13.04
 -20  -1  -1   -0.41   14.02
 -20  -1  -1   -8.43    9.99
  20   1  -1  -16.44   12.83
  20   1  -1   -2.94    7.16
 -20  -1   1    1.58    9.63
  20   1   1   -0.54    7.11
  20   1   1   -7.89   12.08
 -20  -1   1  -11.02   12.89
  20   0  -1    9.00    8.13
 -20   0  -1   10.54   13.49
 -20   0  -1    7.18   10.68
  20   0  -1    9.37   13.13
  20   0   1    2.59    7.78
 -20   0   1   17.17   12.97
 -20   0   1  -17.14   10.57
  20   0   1  -18.20   12.36
  20  -1  -1    0.88    9.02
 -20   1  -1  -17.74   11.19
  20  -1  -1   -7.60   14.75
 -20   1  -1    0.85   13.10
  20  -1   1    0.63    8.54
 -20   1   1   -3.90   11.37
  20  -1   1   -8.30   15.00
 -20   1   1   -5.98   12.47
  20  -2  -1   29.49   10.15
 -20   2  -1   -5.58   13.05
  20  -2  -1   11.47   14.65
 -20   2  -1    4.77   11.87
  20  -2   1    1.57    9.45
  20  -2   1  -17.43   15.29
 -20   2   1   -3.64   11.74
 -20   2   1  -11.31   12.18
  20  -3  -1   16.69   14.10
 -20   3  -1   19.81   12.47
  20  -3  -1    1.93   10.02
  20  -3   1   13.62   10.21
 -20   3   1  -29.86   12.08
 -20   3   1  -14.18   12.73
  20  -4  -1   14.34   10.63
 -20   4   1  -11.71   13.75
   1   0  -2   -0.03    0.10
   0   1  -2   -0.01    0.02
   1   0  -2   -0.01    0.04
   0   1  -2   -0.02    0.05
   0   1  -2    0.01    0.04
  -1   0   2   -0.01    0.13
   0  -1   2   -0.01    0.02
   0  -1   2   -0.01    0.01
   1   1  -2   -0.03    0.07
  -2  -1  -2    2.42    1.03
   2   1  -2    4.22    1.05
   2   1  -2    4.15    1.02
   2   1  -2    3.42    1.25
   2   1  -2    3.11    0.83
  -2  -1   2    4.33    1.04
   2   1   2    2.90    1.05
  -2  -1   2    2.34    0.82
   2   0  -2   21.56    5.61
   2   0  -2   17.44    6.37
  -2   0  -2   31.61    5.85
  -2   0   2   31.02    5.71
   2   0   2   26.68    6.27
   2   0   2   28.62    5.87
  -2   0   2   22.94    6.08
  -2   1  -2    5.46    1.02
   2  -1   2    1.05    1.19
   2  -1   2    3.25    1.08
   2   2  -2    4.88    1.22
  -2   2  -2    4.20    1.44
  -2  -2   2    4.77    1.15
   2  -2   2    4.18    2.04
   3   2  -2   22.69    6.24
   3   2  -2   29.72    7.74
   3   2  -2   19.49    8.86
   3   2  -2   28.14    7.46
  -3  -2   2   25.34    7.38
  -3  -2   2   21.88    6.00
   3   1  -2    0.38    0.58
   3   1  -2    0.46    0.89
  -3  -1  -2    0.80    0.55
   3   1  -2    0.53    0.36
   3   1  -2    0.45    0.18
   3   1   2    0.89    0.54
  -3  -1   2    0.52    0.58
  -3  -1   2    0.39    0.18
   3   0  -2    0.06    0.37
  -3   0  -2   -0.05    0.55
   3   0  -2    0.11    0.16
   3   0  -2   -0.14    0.58
   3   0  -2   -0.15    0.64
  -3   0   2    0.10    0.70
   3   0   2   -0.13    0.57
  -3   0   2    0.09    0.54
   3  -1  -2    0.58    1.22
  -3   1  -2    0.59    0.70
  -3   1   2    0.67    0.78
   3  -1   2    0.33    0.82
   3  -1   2    0.49    0.73
  -3   2  -2   27.42    6.97
   3  -2   2   23.41    9.22
   3  -2   2   25.77    7.59
   3   3  -2   -0.17    0.27
  -3  -3   2    0.19    0.19
   4   3  -2   38.14   11.62
   4   3  -2   37.25    8.59
  -4  -3   2   40.95    8.01
  -4  -3   2   12.76    9.86
   4   2  -2    8.10    3.57
   4   2  -2    9.34    3.02
   4   2  -2    8.73    2.83
   4   2  -2    8.01    2.36
  -4  -2  -2    7.81    2.98
   4   2   2    9.73    3.10
   4   2   2   11.47    2.99
  -4  -2   2   12.00    2.89
   4   1  -2    0.46    0.17
   4   1  -2    0.15    0.44
   4   1  -2    0.35    1.31
   4   1  -2    0.05    0.81
  -4  -1  -2    0.33    0.76
  -4  -1   2    0.19    0.56
   4   1   2    0.11    0.70
  -4  -1   2    0.40    0.83
  -4  -1   2    0.25    0.19
   4   0  -2    0.15    0.91
  -4   0  -2    1.18    0.86
   4   0  -2    0.81    0.97
   4   0  -2    0.67    0.25
   4   0  -2    1.07    0.59
  -4   0   2    0.27    0.79
   4   0   2    0.48    0.84
  -4   0   2    0.24    0.96
  -4   1  -2    0.26    1.01
   4  -1  -2    0.47    1.11
   4  -1  -2    0.27    0.37
   4  -1  -2    0.45    1.62
   4  -1   2   -0.17    1.07
  -4   1   2    0.29    1.15
   4  -1   2    0.33    1.04
  -4   2  -2   10.08    2.71
   4  -2   2    7.39    2.92
   4  -2   2    6.68    3.44
  -4   3  -2   22.04    8.69
   4  -3   2   38.81   12.34
   5   3  -2    8.94    2.53
   5   3  -2   11.48    3.14
   5   3  -2   11.81    3.79
   5   3  -2    7.27    2.94
  -5  -3   2   11.10    3.16
   5   2  -2   23.91   11.00
   5   2  -2   21.85   13.16
   5   2  -2   44.21   10.98
   5   2  -2   40.86    8.85
  -5  -2   2   39.69    8.59
  -5  -2   2   31.52   10.53
   5   1  -2    3.10    1.98
   5   1  -2    3.12    1.44
   5   1  -2    3.28    1.12
   5   1  -2    2.68    0.75
  -5  -1  -2    3.43    1.40
  -5  -1   2    2.97    0.76
   5   1   2    2.10    1.31
  -5  -1   2    3.76    1.50
  -5  -1   2    2.12    1.23
   5   0  -2   -0.27    1.22
   5   0  -2    0.30    0.26
   5   0  -2   -0.47    1.32
  -5   0  -2   -0.16    1.17
   5   0  -2    0.23    0.75
   5   0   2   -0.07    1.17
  -5   0   2    0.45    1.32
  -5   0   2   -0.11    1.05
   5  -1  -2    2.82    0.74
   5  -1  -2    2.64    1.72
   5  -1  -2    3.32    2.11
   5  -1   2   -0.03    1.53
   5  -1   2    1.48    1.57
  -5   1   2    2.15    1.78
   5  -2   2   28.55   10.02
   6   4  -2    0.24    2.07
  -6  -3  -2   44.93   17.31
   6   3  -2   61.53   17.04
   6   3  -2   53.48   14.27
   6   3   2   53.08   17.51
   6   3   2   68.25   17.16
  -6  -3   2   50.88   13.51
   6   2  -2    4.44    1.54
  -6  -2  -2    6.04    1.97
   6   2  -2    3.67    1.13
   6   2   2    4.23    1.88
  -6  -2   2    4.23    1.08
   6   2   2    3.01    2.70
   6   1  -2    4.66    1.70
   6   1  -2    5.36    1.19
   6   1   2    3.28    3.09
   6   1   2    4.55    1.52
  -6  -1   2    3.87    1.88
  -6  -1   2    4.66    1.20
  -6   0  -2    3.67    1.31
   6   0  -2    2.76    0.85
   6   0  -2    4.21    1.42
  -6   0  -2    3.34    0.80
   6   0   2    2.39    0.86
   6   0   2    3.72    1.10
  -6   0   2    4.25    1.88
   6  -1  -2    4.20    1.19
   6  -1  -2    4.10    2.76
  -6   1  -2    5.66    2.29
  -6   1   2    7.40    2.42
   6  -1   2   -0.05    1.95
  -6   2  -2    4.19    2.49
   6  -2  -2    3.19    2.44
   6  -2  -2    3.02    3.47
   6  -2   2    3.83    2.38
   6  -2   2    2.44    2.53
  -6   2   2    5.16    2.51
  -6   3  -2   56.50   15.29
  -6   4  -2    0.83    2.44
   7   4  -2    3.13    1.01
   7   4  -2   -3.28    3.10
   7   4  -2    0.78    1.79
   7   4   2    0.97    2.30
  -7  -4   2    0.72    1.99
   7   3  -2    3.08    5.05
   7   3  -2    9.35    3.72
  -7  -3  -2   10.71    4.01
   7   3   2   13.63    3.81
   7   3   2   14.02    4.31
  -7  -3   2   13.11    3.76
   7   2  -2   -2.42    1.82
   7   2  -2    1.57    0.63
   7   2  -2    1.28    1.13
   7   2  -2   -5.25    3.41
  -7  -2  -2    3.43    1.78
   7   2   2    2.68    0.79
  -7  -2   2    2.42    1.89
   7   2   2    5.01    3.00
   7   2   2    1.12    1.62
  -7  -2   2    1.57    0.54
  -7  -1  -2   -1.17    1.78
   7   1  -2   -3.26    1.87
   7   1  -2    0.45    2.64
   7   1  -2    0.33    1.02
   7   1  -2   -0.19    0.34
   7   1   2   -0.02    0.58
   7   1   2   -0.43    3.12
  -7  -1   2    0.11    0.34
  -7  -1   2   -1.00    1.88
   7   1   2   -0.05    1.52
  -7  -1   2   -0.35    1.29
  -7   0  -2   -0.01    0.16
  -7   0  -2    0.18    1.93
   7   0  -2   -1.09    1.91
   7   0  -2    0.19    0.33
  -7   0  -2   -0.17    0.88
   7   0  -2   -0.08    1.11
   7   0  -2    0.45    2.12
   7   0   2    0.07    0.57
   7   0   2    0.01    0.26
  -7   0   2   -0.72    2.22
  -7   0   2   -0.65    1.69
   7   0   2   -1.18    1.88
  -7   1  -2    0.74    2.52
   7  -1  -2    0.71    2.29
   7  -1  -2    0.05    0.45
   7  -1  -2   -0.05    2.54
   7  -1   2    0.05    0.13
  -7   1   2    0.09    2.46
   7  -1   2    0.58    2.05
   7  -2  -2    5.22    2.51
   7  -2  -2    4.99    3.50
  -7   2  -2    1.99    2.52
   7  -2   2    1.97    2.50
   7  -2   2    1.58    0.62
   7  -2   2    2.65    2.47
  -7   2   2    1.96    2.51
   7  -3  -2    9.50    3.72
  -7   3  -2    9.35    3.76
   7  -3   2    7.17    3.92
   7  -3   2    7.72    4.83
  -7   3   2    9.32    3.80
  -7   4  -2    0.38    2.94
   7  -4   2   -3.58    2.94
   7  -4   2    3.84    4.12
   8   5  -2   18.44    5.20
   8   5  -2   20.48    6.41
  -8  -5   2    8.40    5.59
   8   4  -2   43.80   12.31
  -8  -4  -2   28.77   12.62
   8   4  -2   30.82   14.47
   8   4   2   42.26   12.58
   8   4   2   47.64   12.31
  -8  -4   2   35.78   12.42
  -8  -3  -2    0.24    2.60
   8   3   2   -1.93    3.34
   8   3   2   -0.48    2.30
  -8  -2  -2    0.66    2.23
   8   2  -2    0.56    1.32
   8   2  -2   -0.03    0.60
  -8  -2   2   -0.41    1.84
   8   2   2   -0.64    2.05
   8   2   2   -7.10    4.08
  -8  -2   2   -2.57    2.70
  -8  -1  -2    0.52    2.09
   8   1  -2    0.28    0.43
  -8  -1  -2   -0.28    0.97
   8   1  -2   -0.04    1.17
   8   1  -2   -2.17    2.37
   8   1  -2   -4.89    3.33
   8   1   2   -0.18    0.67
  -8  -1   2    0.07    2.31
  -8  -1   2   -0.05    0.39
   8   1   2    0.38    1.97
   8   1   2   -1.91    3.81
  -8  -1   2    0.03    1.58
  -8   0  -2    3.65    2.47
   8   0  -2    2.93    0.78
   8   0  -2    0.22    2.47
  -8   0  -2    3.13    1.58
  -8   0  -2    2.67    0.71
   8   0  -2    4.38    2.64
   8   0  -2    3.45    1.58
  -8   0   2    0.45    2.27
   8   0   2    4.32    1.17
   8   0   2    4.12    2.39
   8   0   2    1.91    0.81
  -8   0   2    3.88    3.01
  -8   0   2    3.21    2.64
   8  -1  -2    0.17    0.45
   8  -1  -2   -1.68    2.82
  -8   1  -2   -1.30    2.90
   8  -1  -2   -2.20    2.78
  -8   1  -2    0.04    0.19
  -8   1   2    0.39    2.75
   8  -1   2    0.02    0.18
   8  -1   2   -0.40    2.60
   8  -2  -2    2.79    3.09
   8  -2  -2    2.64    0.97
   8  -2  -2   -5.61    4.33
  -8   2  -2    2.31    3.11
   8  -2   2    4.46    3.08
  -8   2   2    0.57    3.22
   8  -2   2    3.00    0.69
   8  -3  -2    0.64    3.44
  -8   3  -2    2.94    3.25
   8  -3  -2   -2.74    4.89
  -8   3   2    3.75    3.24
   8  -3   2    0.17    3.22
   8  -3   2   -6.46    4.11
  -8   4  -2   24.38   11.12
   8  -4   2   44.88   11.47
   8  -4   2   48.39   14.22
   8  -5   2   23.52    6.73
   9   6  -2   10.45    5.13
   9   6  -2   11.80    3.67
   9   5  -2   18.48    5.12
   9   5  -2    8.34    6.69
   9   5  -2   23.64    5.50
  -9  -5   2    9.80    5.69
   9   4  -2   -0.27    4.44
   9   4  -2    1.42    2.17
   9   4  -2    0.28    1.22
  -9  -4  -2   -1.69    2.86
  -9  -4   2    0.34    2.57
   9   4   2    1.24    2.34
   9   4   2    1.99    3.45
   9   3  -2   33.17   10.42
   9   3  -2   41.93   11.21
  -9  -3  -2   32.61   10.63
   9   3  -2   12.40   13.46
   9   3  -2   39.45    9.20
   9   3   2   40.98   11.01
  -9  -3   2   33.11    8.72
   9   3   2   24.90   12.46
  -9  -3   2   46.07   10.27
   9   3   2   35.87   10.40
   9   2  -2    5.16    2.27
   9   2  -2   -0.92    4.15
  -9  -2  -2   -0.07    2.39
   9   2   2   -0.88    1.83
   9   2   2   -1.35    4.39
   9   2   2   -0.02    0.86
  -9  -2   2   -2.11    2.45
   9   1  -2    1.45    0.51
  -9  -1  -2   -0.13    1.17
   9   1  -2   -0.75    3.63
  -9  -1  -2   -0.37    2.52
   9   1  -2    0.74    1.29
   9   1  -2    0.99    2.65
   9   1   2   -2.23    4.38
  -9  -1   2    1.14    1.86
   9   1   2    0.31    2.25
  -9  -1   2   -0.09    3.03
  -9  -1   2    0.56    0.47
  -9  -1   2    4.51    2.68
   9   0  -2    0.81    2.91
   9   0  -2   -0.77    2.64
   9   0  -2   -0.37    1.54
   9   0  -2   -0.02    0.39
  -9   0  -2    1.29    2.81
  -9   0   2   -0.28    3.35
  -9   0   2   -0.26    2.31
   9   0   2   -2.41    2.77
   9   0   2    6.67    4.03
  -9   0   2   -0.10    2.93
   9  -1  -2    0.42    0.46
   9  -1  -2    0.80    3.06
   9  -1  -2   -0.58    3.24
  -9   1  -2    1.84    3.45
  -9   1   2    0.55    3.20
   9  -1   2   -2.53    3.09
   9  -2  -2    0.04    0.67
   9  -2  -2    0.61    4.15
   9  -2  -2   -1.90    3.26
   9  -2   2    1.62    3.19
  -9   2   2    0.63    3.30
  -9   3  -2   32.42    9.50
   9  -3  -2   27.47   12.60
   9  -3  -2   34.22    9.90
  -9   3   2   27.92    9.68
   9  -3   2   22.41   12.00
   9  -3   2   43.62   10.16
  -9   4  -2   -1.03    3.81
   9  -4   2    0.09    4.74
   9  -4   2   -1.38    3.52
  -9   5  -2   18.49    5.95
   9  -5   2   13.39    5.86
  10   6  -2    2.78    4.54
  10   6  -2   -0.65    1.45
  10   5  -2    9.85    6.21
 -10  -5  -2    3.99    4.71
  10   5  -2   15.28    4.39
  10   5  -2   11.02    3.73
 -10  -5   2    8.26    4.67
  10   5   2   16.71    5.40
  10   4  -2   20.42    8.00
  10   4  -2   25.84   10.31
  10   4  -2   20.09    7.69
 -10  -4  -2   23.13    8.23
  10   4   2   26.93    9.03
 -10  -4   2   28.45    7.95
  10   4   2   35.53    7.76
  10   3  -2    2.32    1.24
 -10  -3  -2    3.90    3.05
  10   3  -2    3.37    2.45
  10   3  -2    2.38    1.77
  10   3  -2    3.93    5.27
 -10  -3   2    3.85    1.01
  10   3   2    5.07    2.39
 -10  -3   2    1.97    2.16
  10   3   2    9.00    5.11
 -10  -3   2    4.77    2.73
  10   2  -2    2.19    1.02
 -10  -2  -2    3.15    2.73
  10   2  -2    3.21    4.72
  10   2  -2    1.50    2.56
 -10  -2   2    1.93    2.82
  10   2   2    5.40    5.06
 -10  -2   2    3.58    0.90
  10   2   2    3.10    2.38
  10   1  -2    1.16    3.76
  10   1  -2    0.90    2.91
 -10  -1  -2   -2.22    2.86
  10   1   2    1.46    4.91
 -10  -1   2   -0.21    3.47
  10   1   2   -0.29    2.59
 -10  -1   2    0.09    3.03
  10   0  -2    2.07    3.29
  10   0  -2    0.54    2.97
 -10   0  -2    1.82    4.21
 -10   0  -2    1.40    3.42
  10   0   2    1.27    3.20
  10   0   2   -0.07    4.25
 -10   0   2    3.03    3.79
 -10   0   2    5.71    1.04
 -10   0   2    3.80    3.78
 -10   0   2    1.71    2.86
  10  -1  -2   -1.90    3.82
 -10   1  -2   -0.78    3.92
  10  -1  -2   -1.38    3.52
 -10   1   2   -1.10    3.66
  10  -1   2    6.66    3.41
  10  -2  -2   -0.30    3.83
  10  -2  -2    0.08    4.58
 -10   2  -2    1.43    4.77
  10  -2   2    0.38    3.82
 -10   2   2    4.38    3.87
 -10   3  -2   -0.29    4.18
  10  -3  -2    0.40    4.99
  10  -3  -2    5.58    3.83
  10  -3   2   -0.08    4.44
 -10   3   2    3.39    3.86
  10  -3   2    3.15    4.03
  10  -4  -2   27.45    7.45
 -10   4  -2   24.30    7.49
  10  -4   2   30.72    7.58
  10  -4   2    2.66    9.29
 -10   4   2   21.79    7.45
 -10   5  -2    9.83    5.30
  10  -5   2   13.34    5.41
  11   6  -2    4.80    5.59
  11   5  -2   22.80    8.93
  11   5  -2   26.12    6.62
 -11  -5  -2    9.48    7.12
  11   5   2   23.97    7.89
 -11  -5   2   17.58    7.00
  11   4  -2   -0.90    2.63
 -11  -4  -2   -0.60    3.56
  11   4  -2    2.32    5.99
  11   4   2    0.87    2.88
  11   4   2    1.82    5.24
 -11  -4   2    0.40    3.27
  11   3  -2    6.91    6.41
 -11  -3  -2    7.75    3.97
  11   3  -2    6.94    3.50
 -11  -3   2   11.55    3.83
  11   3   2   10.55    3.50
  11   3   2    4.68    6.29
  11   2  -2    6.04    5.21
  11   2  -2    2.36    2.89
 -11  -2  -2   -0.65    3.03
  11   2   2    7.42    5.69
 -11  -2   2    0.18    3.26
  11   2   2    0.56    2.59
  11   1  -2    1.35    4.05
 -11  -1  -2    0.39    3.29
  11   1  -2    1.89    3.45
  11   1   2    0.42    5.52
  11   1   2    4.66    2.96
 -11  -1   2    0.30    3.57
 -11  -1   2   -0.25    4.33
 -11   0  -2   -1.59    3.94
 -11   0  -2    1.11    4.53
  11   0  -2    3.65    3.37
  11   0  -2    0.46    3.72
  11   0   2   -6.48    3.45
 -11   0   2    0.67    4.26
  11   0   2    0.07    4.76
 -11   0   2   -1.48    4.26
  11  -1  -2   -2.55    4.30
  11  -1  -2   -0.82    3.97
 -11   1  -2    4.46    4.60
 -11   1  -2    3.07    4.43
  11  -1   2    1.26    3.87
 -11   1   2    2.62    4.19
 -11   1   2    4.08    5.11
  11  -1   2   -0.06    3.85
  11  -2  -2    3.52    4.26
  11  -2  -2   -4.07    5.06
 -11   2  -2   -0.44    5.28
 -11   2   2   -2.41    4.32
  11  -2   2    0.11    4.17
  11  -3  -2    0.11    5.96
  11  -3  -2   -5.11    4.66
 -11   3  -2    7.13    4.93
  11  -3   2    6.41    4.81
 -11   3   2    9.60    4.70
  11  -4  -2    0.12    4.51
 -11   4  -2   -0.18    4.58
  11  -4   2    0.55    6.13
 -11   4   2    6.39    4.50
  11  -4   2   -5.83    4.57
 -11   5  -2   26.33    6.39
  11  -5   2  -16.30    6.42
  12   7  -2    8.17    6.56
  12   6  -2    8.65    6.48
 -12  -6   2    0.15    4.19
 -12  -5  -2    1.98    4.29
  12   5  -2   -5.03    6.84
  12   5  -2    0.28    3.22
  12   5   2   -1.25    5.68
 -12  -5   2   -3.91    4.30
  12   5   2   -5.30    3.54
  12   4  -2    6.60    6.98
  12   4  -2    2.93    3.16
 -12  -4  -2    3.28    4.20
  12   4   2    4.05    6.42
  12   4   2    8.67    3.48
 -12  -4   2    5.25    3.82
 -12  -3  -2   -0.44    3.57
  12   3  -2    1.11    2.89
  12   3  -2    6.54    6.27
 -12  -3   2   -0.79    3.42
  12   3   2    0.08    2.86
  12   3   2   -0.10    6.50
  12   2  -2   -8.70    3.77
 -12  -2  -2   -4.19    4.08
 -12  -2   2   -1.96    3.96
 -12  -2   2    2.56    5.30
 -12  -1  -2    6.31   12.56
  12   1  -2   51.40   16.82
  12   1  -2   25.81   12.14
 -12  -1   2   10.85   11.99
 -12  -1   2    2.21   12.62
 -12   0  -2   45.69   13.56
  12   0  -2   26.35   12.81
  12   0  -2   23.28   16.19
 -12   0   2   12.66   13.78
 -12   0   2   13.29   12.07
 -12   1  -2    5.71   13.91
  12  -1  -2    1.36   12.49
  12  -1  -2   20.23   16.04
 -12   1  -2   36.57   12.28
 -12   1   2    3.64   13.88
 -12   1   2    4.50   11.09
 -12   2  -2  -11.85    6.68
  12  -2  -2   -7.14    5.18
  12  -2  -2  -14.02    6.26
 -12   2   2   -3.65    4.93
  12  -3  -2   10.82    6.33
  12  -3  -2    0.51    4.93
 -12   3   2   -2.87    4.85
  12  -3   2    0.12    5.14
  12  -4  -2   -8.50    6.73
 -12   4  -2    0.38    5.21
  12  -4  -2    2.93    5.25
  12  -4   2    2.86    7.05
  12  -4   2    3.58    5.26
 -12   4   2   11.81    5.13
 -12   5  -2   16.58    5.45
  12  -5   2    0.13    5.36
 -13  -6   2    3.27    4.69
  13   6   2    2.12    6.12
  13   5  -2   14.42    4.46
  13   5  -2    0.52    8.22
 -13  -5   2    7.45    5.11
  13   4  -2    0.09    3.05
  13   4  -2    5.68    7.32
 -13  -4   2   -0.24    4.06
 -13  -3  -2    1.46    4.01
  13   3  -2   -1.71    6.70
  13   3  -2    0.08    3.13
 -13  -3   2   -0.11    3.83
  13   3   2    2.56    3.19
  13   2  -2   -7.21    6.67
  13   2  -2    3.91    4.28
 -13  -2  -2   -0.94    4.51
  13   2   2    2.46    3.85
 -13  -2   2    1.28    4.60
 -13  -2   2    3.22    6.04
 -13  -1  -2    0.25    5.86
  13   1  -2    5.85    5.60
  13   1  -2    7.88    6.91
 -13  -1  -2   31.10    7.27
  13   1   2    2.53    5.19
 -13  -1   2    2.46    6.71
 -13  -1   2    2.36    5.93
  13   0  -2    2.64    5.52
  13   0  -2    4.43    5.70
 -13   0  -2   28.06    6.66
 -13   0  -2    3.37    5.77
 -13   0   2    0.98    6.00
  13   0   2   -3.24    5.20
 -13   0   2    2.23    6.16
  13  -1  -2    6.88    7.22
 -13   1  -2   25.31    6.58
  13  -1  -2    5.34    6.24
 -13   1  -2   -3.81    7.03
 -13   1   2   -4.90    6.13
  13  -1   2   -0.96    5.94
 -13   1   2    1.14    7.35
  13  -2  -2    1.19    5.81
 -13   2  -2   -3.84    7.29
 -13   2   2   29.99    5.89
  13  -2   2   -4.99    5.82
 -13   2   2    2.02    7.57
  13  -3  -2   -0.14    5.34
 -13   5  -2    7.95    6.12
  13  -5   2    0.14    7.78
  14   7  -2   -9.60    8.21
  14   6  -2  -18.77    8.51
  14   6   2   -7.34    7.41
 -14  -6   2    3.53    5.40
 -14  -5  -2   -1.07    5.68
  14   5   2    1.34    7.67
  14   5   2   -9.11    4.29
 -14  -4  -2   -0.31    5.21
  14   4   2   -2.80    8.10
  14   4   2   -1.79    3.66
 -14  -3  -2   10.33    5.28
  14   3   2   -0.12    8.33
  14   2   2    8.93    7.67
 -14  -1  -2    1.63    7.23
  14   1   2   -9.47    7.09
 -14   0  -2   -5.03    7.21
  14   0   2   -7.34    5.98
 -14   1  -2   -3.49    7.37
 -14   1  -2    4.04    6.03
  14  -1   2   -9.53    5.84
  14  -2  -2   -1.11    7.24
 -14   2  -2   18.86    6.97
 -14   2  -2   -2.18    6.97
  14  -2   2   -8.11    6.77
 -14   2   2   -3.02    5.87
  14  -2   2   -2.66    5.70
  14  -3  -2  -11.55    8.05
 -14   3  -2    0.21    8.48
  14  -3  -2  -15.82    6.23
 -14   3   2    6.83    6.35
  14  -3   2    0.15    6.38
  14  -4  -2  -12.14    6.41
 -14   4   2   -2.78    5.97
  14  -4   2   -6.39    6.35
 -14   5  -2    7.92    6.63
  14  -5   2   -9.38    8.64
  14  -5   2   -0.16    6.52
 -14   6  -2    7.24    6.69
  14  -6   2   -0.16    6.32
  15   7  -2   -9.89    9.01
  15   6  -2   -0.73    8.62
  15   6  -2    3.40    4.48
 -15  -6   2   -0.19    5.53
  15   6   2    5.21    8.44
  15   5  -2   -9.39    8.81
  15   5  -2    7.57    4.24
 -15  -5  -2    2.13    5.87
  15   5   2    5.94    8.29
 -15  -5   2   -1.82    5.25
  15   5   2    0.26    4.36
  15   4  -2   15.83    8.52
  15   4  -2    0.31    3.79
 -15  -4  -2   -0.17    5.27
  15   4   2    0.12    4.00
  15   4   2   -2.29    8.96
 -15  -4   2    0.73    5.03
  15   3  -2    3.92    7.82
 -15  -3  -2   -0.77    5.31
  15   3  -2    5.09    4.01
  15   3   2   -2.11    8.43
 -15  -3   2   -0.14    4.99
 -15  -3   2   15.78    7.50
  15   3   2   -3.87    3.94
 -15  -2  -2    2.27    8.49
  15   2  -2   -4.78    6.74
  15   2  -2   -9.80    4.53
 -15  -2  -2    0.15    5.29
 -15  -2   2   12.11    7.25
 -15  -2   2    0.72    5.28
  15   2   2    9.93    8.34
  15   2   2    1.99    3.94
  15   1  -2    5.01    5.30
  15   1  -2    2.53    5.93
 -15  -1  -2  -12.14    5.87
 -15  -1  -2    5.75    8.37
  15   1   2   -4.01    7.25
 -15  -1   2   -6.98    7.67
  15   1   2   -5.45    4.53
 -15  -1   2    1.56    5.80
 -15   0  -2   -8.34    8.63
 -15   0  -2   -1.54    6.47
  15   0  -2    2.26    5.96
  15   0  -2   -0.80    7.00
  15   0   2   -0.79    5.40
 -15   0   2    1.08    7.04
 -15   0   2    5.49    6.47
  15   0   2    0.47    6.57
  15  -1  -2    8.77    7.57
  15  -1  -2   -5.05    6.40
 -15   1  -2    0.19    6.96
 -15   1  -2    0.25    8.12
  15  -1   2   -0.15    6.20
  15  -1   2   -7.59    6.64
 -15   1   2   -1.09    7.03
 -15   1   2    1.71    7.40
  15  -2  -2   -8.00    6.59
  15  -2  -2   -4.09    8.47
 -15   2  -2    1.63    7.81
 -15   2  -2   -8.13    7.98
 -15   2   2    1.35    6.61
 -15   2   2   -0.43    8.35
  15  -2   2   -9.02    6.46
  15  -2   2   -0.12    7.28
  15  -3  -2   12.30    7.03
  15  -3  -2   18.53    8.60
 -15   3  -2    0.45    8.86
 -15   3   2    1.88    6.61
 -15   3   2   -0.70    9.38
  15  -3   2    3.35    6.72
  15  -4  -2   -8.29    6.86
 -15   4  -2   -0.49    9.60
  15  -4  -2   -4.37    8.33
 -15   4   2    1.00    6.33
  15  -4   2   -5.77    6.72
 -15   5  -2    0.81    7.25
  15  -5   2   -0.16    9.02
  15  -5   2   16.37    6.81
 -15   6  -2    4.65    7.21
  15  -6   2    4.69    6.85
  16   7  -2  -12.38    9.83
 -16  -6  -2   -1.34    7.17
  16   6  -2   10.07    5.75
  16   6   2   37.68   10.09
 -16  -6   2  -16.07    7.17
  16   5  -2    1.15    4.69
  16   5  -2    6.11    9.61
 -16  -5  -2   -0.21    6.43
  16   5   2    5.39    9.19
  16   5   2   -5.80    4.82
 -16  -5   2   -1.27    6.29
  16   4  -2   10.06    8.65
  16   4  -2    1.06    4.31
 -16  -4  -2   -0.95    6.08
  16   4   2   -1.26    4.43
  16   4   2    7.64    8.99
 -16  -4   2    4.08    8.38
 -16  -4   2   -0.16    5.50
  16   3  -2   11.37    7.99
 -16  -3  -2   -0.17    5.83
  16   3  -2   -8.66    4.31
 -16  -3   2   -2.30    5.32
  16   3   2    1.06    8.72
  16   3   2    0.47    4.22
 -16  -3   2    1.38    8.21
 -16  -2  -2   10.11    9.27
 -16  -2  -2    0.50    5.90
  16   2  -2    5.51    4.74
  16   2  -2    1.36    6.65
 -16  -2   2    5.44    8.27
  16   2   2    2.09    8.36
  16   2   2    4.31    4.51
 -16  -2   2    2.72    5.95
  16   1  -2   -2.11    5.30
 -16  -1  -2   -0.18    6.35
 -16  -1  -2    7.40    9.34
  16   1  -2   10.80    6.55
 -16  -1   2   -1.74    6.31
  16   1   2    3.24    7.52
 -16  -1   2   -2.69    8.16
  16   1   2   -4.15    4.99
  16   0  -2   -4.75    6.26
 -16   0  -2    2.68    6.91
 -16   0  -2   -2.49    9.27
  16   0  -2    3.83    7.74
 -16   0   2   -3.95    7.14
  16   0   2    5.02    5.39
  16   0   2   -7.39    6.56
 -16   0   2    7.99    7.87
  16  -1  -2    2.24    8.12
 -16   1  -2   -4.37    9.18
  16  -1  -2   -8.93    6.84
 -16   1  -2    0.82    7.82
  16  -1   2   -3.36    6.56
  16  -1   2    7.29    7.94
 -16   1   2    0.25    7.53
 -16   1   2    1.88    7.90
 -16   2  -2    0.22    8.57
  16  -2  -2   -5.28    9.07
 -16   2  -2   20.87    9.22
  16  -2  -2   -3.91    7.01
  16  -2   2    3.85    6.61
 -16   2   2    0.23    8.79
  16  -2   2   -0.14    8.98
 -16   2   2    8.80    7.48
  16  -3  -2   -1.43    8.93
 -16   3  -2    0.24    9.01
  16  -3  -2    8.85    7.31
  16  -3   2    0.17    6.97
 -16   3   2    1.27    9.69
  16  -3   2   -0.16    9.62
 -16   3   2    0.26    7.07
  16  -4  -2    4.40    7.49
  16  -4  -2    8.11    9.30
 -16   4  -2   -6.64   10.65
 -16   4   2    8.23    7.33
  16  -4   2    5.52    7.31
 -16   5  -2   -2.69    8.01
 -16   5  -2   -0.27   10.63
  16  -5   2    3.48    7.45
 -16   6  -2   -4.12    8.08
  16  -6   2    0.75    7.82
  17   7  -2   20.37   12.28
  17   6  -2    1.10   10.02
  17   6  -2    3.16    5.31
 -17  -6  -2   16.01    7.04
 -17  -6   2    5.94    6.52
  17   6   2   -8.87    9.84
  17   5  -2    4.18    5.04
  17   5  -2   -5.51   10.02
 -17  -5  -2   -3.25    7.01
 -17  -5   2   -1.59    6.33
  17   5   2    5.63    9.98
  17   5   2   11.40    5.27
  17   4  -2   -3.98    4.76
 -17  -4  -2    0.63    6.56
  17   4  -2  -16.24    9.03
  17   4   2    0.41    4.86
  17   4   2   -3.36    9.63
 -17  -4   2   -1.97    6.05
 -17  -4   2   -2.51    9.27
 -17  -3  -2    0.19    6.40
 -17  -3  -2    6.04   10.19
 -17  -3   2   -4.28    5.92
  17   3   2    1.44    4.77
 -17  -3   2   -7.18    9.14
 -17  -2  -2   -0.56    6.81
  17   2  -2   12.55    7.75
 -17  -2  -2   -6.52   10.47
  17   2   2   13.73    9.55
 -17  -2   2   -9.80    7.18
 -17  -2   2   -1.65    9.74
  17   1  -2  200.03   39.82
  17   1  -2  120.47   34.02
  17   1   2  155.37   39.41
  17   1   2  115.41   34.10
 -17   0  -2   38.04   21.45
 -17   0  -2   11.78   20.78
  17   0  -2  110.91   26.66
 -17   0   2   37.46   19.87
 -17   0   2   13.09   20.44
 -17   1  -2    0.91   22.52
  17  -1  -2   79.90   27.61
 -17   1  -2    8.58   21.67
  17  -1  -2   35.87   19.73
 -17   1   2   -0.23   22.34
  17  -1   2   90.71   20.06
 -17   1   2   43.91   20.40
 -17   2  -2   -0.49    9.43
  17  -2  -2    0.17    9.97
  17  -2  -2   16.96    7.82
 -17   2  -2    4.04   10.14
 -17   2   2   -1.00    9.95
  17  -2   2  -27.83   10.29
  17  -2   2   -8.49    7.73
 -17   2   2  -10.42    8.66
  17  -3  -2   -1.53    7.87
 -17   3  -2    6.57    9.46
 -17   3  -2    0.26   10.21
  17  -3   2   -6.18   10.81
 -17   3   2   -0.29    8.10
 -17   3   2   44.53   12.79
  17  -3   2   -0.56    7.70
  17  -4  -2    0.59    8.19
 -17   4  -2    1.12   11.04
  17  -4  -2  -23.40   11.84
 -17   4   2    7.83    7.97
  17  -4   2    1.92    7.78
 -17   4   2   -0.29   15.56
 -17   5  -2   -0.30   11.28
  17  -5   2   -2.76    7.98
 -17   6  -2   -0.61   11.83
 -17   6  -2    4.52    8.38
  18   7  -2  -26.43   13.20
  18   6  -2  -15.08    5.84
  18   6  -2  -16.63   10.75
 -18  -6   2   32.48    8.08
  18   6   2  -25.99   11.14
  18   5  -2    0.30    5.27
  18   5  -2   -7.49   10.07
 -18  -5  -2    5.62    7.66
 -18  -5   2   -9.79    7.12
  18   5   2    0.15   10.89
  18   5   2    0.17    5.58
 -18  -5   2   -6.50   10.19
  18   4  -2   17.10    5.29
  18   4  -2   -1.29    8.98
 -18  -4  -2  -13.18    7.66
 -18  -4   2   18.97    7.00
 -18  -4   2    1.96   10.35
  18   4   2  -10.49    5.51
  18   4   2    1.18   10.25
 -18  -3  -2   16.14   11.23
  18   3  -2  -10.01    8.24
 -18  -3  -2    0.65    7.16
  18   3  -2    4.63    5.26
 -18  -3   2   11.47    6.86
 -18  -3   2    3.51   10.35
  18   3   2   -8.48   10.00
  18   3   2    9.00    5.34
  18   2  -2   -3.17    5.46
 -18  -2  -2   -1.29   11.23
 -18  -2  -2    1.69    7.23
  18   2  -2    8.77    8.21
  18   2   2   -4.81    9.26
 -18  -2   2  -11.67    7.08
  18   2   2   -1.17    5.32
 -18  -2   2    8.87   10.67
  18   1  -2    0.69    9.05
  18   1  -2    1.08    6.27
 -18  -1  -2    0.22    7.78
 -18  -1  -2    1.71   11.86
 -18  -1   2  -12.48   10.29
  18   1   2   -1.66    7.86
 -18  -1   2    9.27    7.76
  18   1   2   -9.04    5.95
 -18   0  -2    5.49    9.03
  18   0  -2    6.79   10.21
  18   0  -2   13.23    7.35
 -18   0  -2   18.08   11.90
  18   0   2   -4.11   10.01
 -18   0   2   15.83   10.23
 -18   0   2    2.07    8.74
  18   0   2    1.31    6.70
  18  -1  -2   -0.20    7.81
  18  -1  -2   13.87   11.15
 -18   1  -2   -6.23   11.09
 -18   1  -2   -0.25    9.26
  18  -1   2   -5.16    7.25
 -18   1   2   -1.23    9.26
  18  -1   2    0.49   10.37
 -18   1   2   -3.72    9.51
 -18   2  -2    2.39   10.04
  18  -2  -2    0.20    8.18
  18  -2  -2    9.65   11.58
 -18   2  -2   -1.73   10.87
 -18   2   2   -5.61    9.04
  18  -2   2    3.08   11.89
  18  -2   2   -2.38    7.94
 -18   2   2   -5.87    9.85
 -18   3  -2    5.29   10.64
 -18   3  -2    0.28   10.69
  18  -3  -2    1.45    8.43
  18  -3  -2    4.63   11.27
 -18   3   2    3.53    9.22
  18  -3   2   14.45    8.58
 -18   3   2   -0.29   11.46
  18  -3   2    1.42   12.18
 -18   4  -2    4.18   11.78
  18  -4  -2    7.06    8.70
 -18   4   2    0.31   12.50
  18  -4   2   -4.78    8.76
  18  -4   2   11.94   11.99
 -18   4   2    8.32    8.98
 -18   5  -2    0.94   12.39
  18  -5   2   11.71    8.95
  19   7  -2   14.16   12.23
  19   6  -2   -5.09    6.35
  19   6  -2   18.27   11.30
 -19  -6  -2    9.83    8.34
 -19  -6   2   11.55   10.95
  19   6   2   -7.65   11.60
 -19  -6   2    8.32    7.92
  19   5  -2    9.13   10.60
 -19  -5  -2   -6.78    8.48
  19   5  -2   -1.49    5.87
  19   5   2  -12.00    6.39
 -19  -5   2    0.25    7.78
  19   5   2   -0.16   11.51
 -19  -5   2    0.90   10.68
  19   4  -2   -4.45    8.86
  19   4  -2   -5.84    5.68
 -19  -4  -2  -15.97   12.12
 -19  -4  -2    2.89    8.23
 -19  -4   2    4.77    7.54
 -19  -4   2    9.53   11.54
  19   4   2   12.19    6.31
  19   4   2    8.53   10.66
 -19  -3  -2   -9.52   12.72
 -19  -3  -2   -5.53    8.84
 -19  -3   2  -30.04   13.17
 -19  -1  -2  200.09   85.03
 -19  -1  -2  338.01   84.11
 -19  -1   2  276.47   83.47
 -19  -1   2  421.76   83.16
 -19   0  -2  151.60   72.15
 -19   0  -2  316.18   72.63
 -19   0   2  181.05   69.97
 -19   0   2  245.48   71.17
 -19   1  -2   16.74   64.64
 -19   1  -2  187.19   62.82
  19  -1  -2  263.14   55.73
  19  -1  -2   10.73   79.89
  19  -1   2   72.24   83.52
 -19   1   2  143.48   62.85
 -19   1   2  157.43   59.63
 -19   2  -2   -1.46   73.02
 -19   2  -2   10.97   68.42
  19  -2  -2   76.70   59.19
 -19   2   2    8.77   63.97
  19  -2   2  -29.70   59.71
 -19   2   2  -23.08   70.81
 -19   3  -2    0.31   12.25
 -19   3  -2  -15.73   12.80
 -19   3   2  -28.52   10.96
 -19   3   2  -11.28   12.14
 -19   4  -2    6.81   11.33
 -19   4  -2    1.59   12.51
  19  -4  -2   26.28    9.65
 -19   4   2   12.20   12.59
 -19   4   2  -20.33    9.54
  19  -4   2  -11.64   13.40
  19  -4   2   -2.25    9.47
 -19   5  -2    0.33   13.41
  19  -5   2   -8.51    9.75
  20   7  -2    1.28   11.46
 -20  -7   2    3.97   10.08
  20   6  -2   -2.86    6.53
  20   6  -2   -5.61   11.12
 -20  -6   2    2.58    8.43
 -20  -6   2    2.22   11.56
  20   5  -2  -27.51   10.94
 -20  -5  -2    0.31    9.73
  20   5  -2   -4.17    6.63
  20   5   2   -7.53    7.38
 -20  -5   2    6.90    9.01
 -20  -5   2   -7.95   12.46
  20   4  -2  -10.91    6.84
 -20  -4  -2    7.06    9.59
  20   4  -2  -15.64    9.83
  20   4   2  -18.35    7.34
 -20  -4   2   -2.19   12.89
 -20  -4   2    4.05    8.54
  20   4   2    3.42   10.97
  20   3  -2  -14.81    6.73
 -20  -3  -2   -0.39   13.83
  20   3  -2   -4.84    9.88
 -20  -3  -2  -19.54    9.35
 -20  -3   2    2.24   12.92
 -20  -3   2  -13.94    8.79
  20   3   2   16.43    6.90
  20   3   2   10.10   10.09
 -20  -2  -2   24.08   15.04
  20   2  -2    4.32   11.38
 -20  -2  -2  -18.59    9.64
  20   2  -2    4.92    6.46
  20   2   2   11.94    7.05
 -20  -2   2    6.66    8.90
 -20  -2   2   -4.51   12.74
  20   2   2   -4.18    9.78
  20   1  -2   -0.36   12.18
 -20  -1  -2  -12.97   14.70
 -20  -1  -2    8.30    9.88
  20   1  -2    6.56    7.56
  20   1   2    8.32   10.62
 -20  -1   2   11.48    9.71
  20   1   2    0.18    7.10
 -20  -1   2   17.78   12.58
  20   0  -2    5.60   13.60
  20   0  -2    0.20    8.33
 -20   0  -2  -11.91   10.44
 -20   0  -2  -11.13   14.38
  20   0   2    3.69   12.94
  20   0   2    4.43    7.72
 -20   0   2  -31.49   12.39
 -20   0   2   -7.90   10.38
 -20   1  -2  -11.34   13.80
  20  -1  -2    5.19   14.13
  20  -1  -2   22.96    9.12
 -20   1  -2   -1.55   11.30
  20  -1   2   -7.11   13.77
 -20   1   2   18.69   11.39
  20  -1   2    4.49    8.92
 -20   1   2   -4.28   11.83
  20  -2  -2   12.28   13.91
 -20   2  -2    7.05   11.93
  20  -2  -2    2.39    9.74
 -20   2  -2    6.99   13.52
  20  -2   2  -10.05   15.51
 -20   2   2  -11.25   11.98
  20  -2   2   10.15    9.40
 -20   2   2   10.54   11.45
 -20   3  -2    6.63   12.58
  20  -3  -2    8.74   10.31
  20  -3  -2   10.70   14.15
 -20   3  -2   -0.44   10.17
 -20   3   2   -5.20   11.49
 -20   3   2    2.96   12.78
  20  -3   2    9.60   10.24
  20  -3   2    9.97   15.13
  20  -4  -2  -11.46   10.40
 -20   4   2  -12.97   14.08
   0   0  -3   -0.07    0.12
   0   0  -3   -0.14    0.17
   0   0   3    0.05    0.16
   0   1  -3  100.18   19.05
   0   1  -3   99.82   18.53
   1   0   3   86.52   19.14
   1   0   3   77.02   19.38
  -1   0   3   86.73   19.44
  -1   1  -3    0.05    0.06
   1   1  -3    0.09    0.21
  -1   1  -3   -0.01    0.16
   1  -1   3    0.01    0.04
   1  -1   3    0.01    0.03
   2   1  -3   24.03    5.99
   2   1  -3   22.67    7.00
   2   1  -3   28.08    7.16
   2   1  -3   20.00    8.00
  -2  -1   3   26.58    6.87
  -2  -1   3   25.66    7.48
   1  -2   3   22.77    5.80
   0   2  -3    0.06    0.13
   2   0  -3    0.11    0.34
  -2   0  -3    0.11    0.35
   2   0  -3    0.02    0.75
   2   0  -3    0.09    0.17
   2   0   3   -0.26    0.63
  -2   0   3   -0.10    0.51
   0  -2   3   -0.01    0.08
   2   0   3    0.03    0.36
  -2   0   3   -0.08    0.50
   1   2  -3   16.38    6.36
   2  -1   3   14.89    7.34
   2  -1   3   23.52    6.13
   2   2  -3    0.08    0.29
  -2   2  -3   -0.15    0.67
   2   2  -3    0.19    0.52
   2   2  -3    0.32    0.16
   2  -2   3   -0.39    1.17
  -2  -2   3    0.03    0.14
  -2  -2   3    0.03    0.28
   3   2  -3    3.25    0.96
   3   2  -3    3.49    1.06
   3   2  -3    2.43    0.77
   3   2  -3    2.21    1.42
  -3  -2   3    3.36    1.03
  -3  -2   3    2.86    0.75
   3   1  -3   10.76    3.71
  -3  -1  -3   11.11    3.99
   3   1  -3   13.94    3.90
   3   1  -3   14.60    3.12
   3   1  -3    8.22    4.37
  -3  -1   3   13.38    3.66
   3   1   3   12.76    4.09
  -3  -1   3   12.72    4.09
  -3   0  -3    6.40    1.72
   3   0  -3    3.49    2.30
   3   0  -3    4.43    1.81
   3   0  -3    4.85    1.78
  -3   0   3    5.77    1.73
  -3   0   3    5.66    2.01
   3   0   3    5.82    2.22
   3   0   3    6.94    1.76
   3  -1   3   10.84    3.47
   3  -1   3    9.42    4.18
   2   3  -3    3.31    0.80
  -3   2  -3    3.62    1.30
   3  -2   3    1.84    1.55
  -2  -3   3    2.33    0.72
   3  -2   3    3.95    1.36
   3   3  -3    0.14    0.31
   3   3  -3    0.17    0.80
   3   3  -3   -0.09    0.42
  -3   3  -3    0.39    1.09
  -3  -3   3   -0.02    0.20
   4   3  -3    0.11    0.79
   4   3  -3    0.38    1.38
   4   3  -3    0.40    0.55
   4   3  -3   -0.15    0.41
  -4  -3   3    0.12    0.25
  -4  -3   3   -0.41    0.89
  -4  -2  -3   14.66    9.62
   4   2  -3   34.15   11.34
   4   2  -3   35.73    9.90
   4   2  -3   34.82    9.56
   4   2  -3   31.02    7.84
  -4  -2   3   41.90    9.37
  -4  -2   3   33.17    7.72
   4   2   3   23.34    9.73
   4   1  -3    3.73    1.38
   4   1  -3    8.31    1.77
   4   1  -3    3.23    2.22
   4   1  -3    5.24    1.80
  -4  -1  -3    8.28    1.88
  -4  -1   3    4.83    1.81
   4   1   3    5.06    1.87
  -4  -1   3    6.87    1.89
  -4   0  -3   -0.13    0.82
   4   0  -3    0.13    0.25
   4   0  -3   -0.33    1.13
   4   0  -3    0.13    1.01
   4   0  -3   -0.21    0.64
   4   0   3   -0.09    1.42
   4   0   3   -0.40    0.88
  -4   0   3    0.14    1.04
  -4   0   3   -0.03    0.91
   4  -1  -3    7.87    2.70
  -4   1  -3    5.16    1.90
   4  -1  -3    3.59    1.40
   4  -1   3    5.60    1.82
   4  -1   3    3.47    2.22
  -4   1   3    5.67    1.87
  -4   2  -3   36.46    8.13
   4  -2   3   15.50   10.58
   4  -2   3   33.32    9.23
  -4   3  -3   -0.30    1.57
   4  -3   3   -0.50    1.59
   4  -3   3    0.57    2.40
  -3  -4   3    0.54    0.28
   5   4  -3    6.84    2.90
   5   3  -3   29.09   16.39
   5   3  -3   40.60   11.41
   5   3  -3   52.71   13.73
   5   3  -3   46.78   14.14
  -5  -3   3   46.77   13.70
  -5  -3   3   49.03   10.91
   5   2  -3  113.15   47.83
   5   2  -3  143.85   41.44
   5   2  -3  143.62   33.44
   5   2  -3  111.24   40.27
  -5  -2   3  137.62   33.06
  -5  -2   3  142.72   39.09
  -5  -1  -3    8.16    2.40
   5   1  -3    5.02    2.86
   5   1  -3    8.21    2.35
   5   1  -3    7.26    2.35
   5   1  -3    6.89    1.75
   5   1   3    5.32    2.39
  -5  -1   3    5.58    2.52
  -5  -1   3    8.60    2.42
  -5   0  -3    2.15    1.28
   5   0  -3    0.90    0.47
   5   0  -3    0.97    1.48
   5   0  -3    2.39    0.98
   5   0  -3    0.56    1.39
   5   0   3    2.40    1.28
  -5   0   3    1.60    1.53
  -5   0   3    1.42    1.36
   5  -1  -3    6.05    1.96
  -5   1  -3    8.98    2.67
   5  -1  -3    6.67    2.73
   5  -1  -3    7.21    3.62
  -5   1   3    9.31    2.65
   5  -1   3    6.34    2.54
  -5   4  -3    4.49    2.81
   6   5  -3    0.78    2.11
   6   4  -3   12.25    3.09
  -6  -4   3   10.69    2.87
  -6  -3  -3    1.22    2.02
   6   3   3    4.55    2.16
   6   3   3    3.63    1.88
   6   2  -3    0.56    0.38
  -6  -2  -3    1.31    1.52
   6   2  -3    0.37    0.87
  -6  -2   3    0.02    0.36
   6   2   3    0.70    1.44
   6   2   3    0.70    2.16
   6   1  -3    1.65    1.10
  -6  -1  -3    2.17    1.55
   6   1  -3    1.24    0.48
  -6  -1   3    1.35    1.37
   6   1   3    1.99    1.45
   6   0  -3    0.04    1.11
  -6   0  -3    1.61    1.54
   6   0  -3   -0.02    0.36
  -6   0   3   -0.27    1.65
   6   0   3    4.15    1.59
  -6   1  -3    5.31    2.07
  -6   1  -3    1.65    2.12
   6  -1  -3    0.72    0.71
  -6   1   3    0.89    2.20
   6  -1   3    4.39    1.86
   6  -1   3    0.50    2.35
  -6   2  -3    0.08    2.34
   6  -2  -3    0.85    3.34
   6  -2   3    1.47    1.88
   6  -2   3   -0.06    2.19
  -6   2   3    0.69    2.23
  -6   3  -3    3.54    2.53
   6  -3   3    3.65    3.45
   6  -3   3    2.93    2.52
  -6   4  -3   11.93    4.35
   6  -4   3   12.14    4.35
   6  -4   3   14.95    5.69
   7   5  -3   -6.60    3.16
   7   5  -3   -0.08    1.02
   7   4  -3   -6.85    3.21
   7   4  -3    1.59    0.79
   7   4  -3    2.67    1.05
  -7  -4   3   -3.45    2.22
  -7  -4   3    1.61    0.54
   7   3  -3   12.86    3.80
   7   3  -3   10.32    5.26
  -7  -3  -3    7.52    4.11
   7   3   3    7.63    4.23
   7   3   3    9.69    3.89
  -7  -3   3   16.26    3.81
   7   2  -3   -0.81    1.75
   7   2  -3   -0.03    0.34
  -7  -2  -3    1.43    1.80
   7   2  -3    0.42    1.06
   7   2  -3   -1.48    2.83
   7   2   3    3.67    2.77
  -7  -2   3    0.41    1.29
  -7  -2   3   -2.11    1.84
   7   2   3    1.33    1.50
  -7  -1  -3    0.80    1.76
   7   1  -3    0.78    0.42
   7   1  -3    2.11    1.99
   7   1  -3   -0.57    2.46
   7   1  -3    1.80    1.19
   7   1   3    0.97    0.53
  -7  -1   3   -0.23    1.94
   7   1   3    1.15    1.55
  -7  -1   3    0.67    1.48
  -7  -1   3    0.71    2.09
   7   0  -3   18.49    4.37
   7   0  -3   21.52    5.52
   7   0  -3    4.27    6.04
   7   0  -3   18.29    5.94
  -7   0  -3   14.33    5.36
  -7   0   3   19.66    6.88
  -7   0   3   19.67    5.11
   7   0   3   23.90    5.26
   7  -1  -3    1.06    2.40
  -7   1  -3    2.16    2.49
   7  -1  -3    0.58    2.90
  -7   1  -3   -0.16    2.51
   7  -1  -3    1.27    0.59
   7  -1   3    0.28    2.10
   7  -1   3    1.77    2.77
  -7   1   3    0.90    2.46
   7  -2  -3   -0.70    2.61
  -7   2  -3    1.09    2.65
   7  -2  -3   -1.27    3.56
  -7   2   3    0.11    2.51
   7  -2   3   -0.07    2.02
   7  -2   3    0.78    2.44
  -7   3  -3    8.65    4.03
   7  -3   3    9.90    4.18
   7  -3   3   12.28    4.88
  -7   4  -3    4.54    2.97
   7  -4   3    0.40    3.10
   7  -4   3   -4.85    4.40
   7  -5   3    2.05    3.08
   8   6  -3   15.36    3.89
   8   6  -3    5.97    5.03
   8   5  -3    3.93    1.52
   8   5  -3    1.15    3.43
  -8  -5   3    0.60    2.44
   8   4  -3    3.85    2.13
   8   4  -3    1.73    1.11
   8   4  -3   -0.80    3.65
  -8  -4  -3    0.40    2.64
   8   4  -3    2.33    1.43
  -8  -4   3    3.93    0.86
  -8  -4   3    3.89    2.36
   8   4   3    3.72    2.88
   8   3  -3    0.43    5.10
   8   3  -3   23.81    5.19
  -8  -3  -3   16.25    5.44
   8   3  -3   17.55    4.08
   8   3   3   17.64    5.11
   8   3   3   20.39    5.97
  -8  -3   3   16.13    3.90
  -8  -3   3   10.27    5.10
  -8  -2  -3    8.13    2.67
   8   2  -3    0.88    3.07
   8   2   3    5.08    1.63
   8   2   3    5.02    2.40
   8   2   3   -5.00    4.30
  -8  -1  -3    2.43    2.28
   8   1  -3    0.63    1.56
   8   1  -3    4.14    0.76
   8   1  -3   -6.32    2.90
   8   1   3    2.66    2.05
  -8  -1   3    3.80    0.77
  -8  -1   3    0.84    2.67
  -8  -1   3   -6.62    2.89
   8   1   3    2.08    0.98
  -8  -1   3    1.32    2.08
  -8   0  -3    0.69    2.29
   8   0  -3   -0.42    1.49
  -8   0  -3   -0.15    0.95
   8   0  -3   -1.05    2.69
   8   0  -3   -4.44    2.28
   8   0  -3   -0.31    0.45
   8   0   3   -0.32    0.58
   8   0   3   -0.42    2.36
  -8   0   3    0.05    2.18
  -8   0   3   -0.97    2.65
  -8   1  -3    2.14    2.90
   8  -1  -3   -0.52    3.48
   8  -1  -3    3.13    0.80
   8  -1  -3   -0.82    3.05
  -8   1  -3    2.05    3.01
  -8   1   3    2.29    2.90
   8  -1   3    0.46    2.81
   8  -2  -3    6.92    1.77
  -8   2  -3    5.55    3.55
   8  -2  -3   -3.52    4.88
   8  -2  -3    7.76    3.56
  -8   2   3    3.66    3.38
   8  -2   3    9.27    3.19
   8  -2   3    9.56    3.52
  -8   3  -3   16.08    5.17
   8  -3  -3   10.36    5.19
   8  -3   3   19.81    5.30
   8  -3   3    7.77    6.23
  -8   3   3   13.37    5.22
  -8   4  -3    0.80    3.37
   8  -4   3    6.81    3.47
   8  -4   3    0.52    4.57
  -8   5  -3    5.32    3.88
   8  -5   3    8.88    3.81
   9   6  -3    0.18    3.71
   9   6  -3    1.29    1.47
   9   5  -3   19.63   10.38
   9   5  -3   27.58    8.56
   9   5  -3   40.23    8.77
  -9  -5   3   24.84    9.01
   9   4  -3   25.55    6.95
   9   4  -3   18.11    7.10
   9   4  -3   21.17    5.95
  -9  -4  -3   15.38    7.45
   9   4  -3   12.55    8.99
  -9  -4   3   32.27    7.10
  -9  -4   3   22.86    5.63
   9   4   3   28.91    7.11
   9   4   3   25.64    7.59
   9   3  -3    6.24    1.71
   9   3  -3    7.13    2.67
  -9  -3  -3    4.06    3.02
   9   3  -3    0.39    5.12
   9   3  -3    4.77    2.33
   9   3   3   10.62    2.82
  -9  -3   3    7.86    1.57
  -9  -3   3    2.42    2.77
   9   3   3    6.42    4.14
  -9  -3   3    3.45    2.63
   9   2  -3    1.13    0.66
   9   2  -3    0.18    2.30
  -9  -2  -3    1.28    2.33
   9   2  -3    1.60    3.85
   9   2   3   -0.63    4.14
  -9  -2   3   -0.28    2.44
  -9  -2   3    1.05    0.54
   9   2   3    0.95    1.94
   9   1  -3   -3.76    2.66
   9   1  -3   -3.42    3.29
  -9  -1  -3    2.03    2.43
  -9  -1   3   -0.92    2.80
   9   1   3   -2.44    4.37
   9   1   3   -0.72    2.17
  -9  -1   3   -1.97    2.96
   9   0  -3   -0.06    1.62
  -9   0  -3    0.87    2.70
   9   0  -3   -2.44    2.56
   9   0  -3    1.50    2.92
  -9   0   3    0.91    3.02
  -9   0   3    0.92    2.45
   9   0   3   -2.55    2.66
  -9   0   3    0.66    3.37
   9  -1  -3    2.54    3.61
  -9   1  -3    3.15    3.24
   9  -1  -3   -2.26    3.20
  -9   1  -3    1.20    3.30
   9  -1  -3    1.04    0.55
  -9   1   3   -1.66    3.30
   9  -1   3   -0.37    2.96
   9  -2  -3   -0.04    0.68
   9  -2  -3    4.80    3.48
  -9   2  -3    1.80    3.50
  -9   2  -3   -3.16    3.98
   9  -2  -3    2.80    4.36
  -9   2   3    4.08    3.43
   9  -2   3    1.37    2.92
   9  -2   3    3.36    3.25
  -9   3  -3    2.19    3.81
   9  -3  -3    8.65    3.75
   9  -3  -3    6.56    5.16
  -9   3   3    3.28    3.61
   9  -3   3    5.07    3.78
   9  -3   3   -1.93    4.39
  -9   4  -3   18.09    5.99
   9  -4   3   17.12    6.18
   9  -4   3    3.15    7.86
  -9   5  -3   20.46    7.49
   9  -5   3   19.62    9.91
   9  -5   3   19.86    7.50
  10   6  -3   12.87    3.83
  10   6  -3    7.87    6.27
  10   5  -3    9.39    3.84
  10   5  -3    8.67    3.27
  10   5  -3    6.13    6.03
 -10  -5   3   11.61    4.26
  10   5   3    9.85    4.83
  10   4  -3    4.80    5.29
  10   4  -3    3.72    2.62
  10   4  -3    5.12    2.13
  10   4  -3    2.87    1.55
 -10  -4  -3    5.74    3.67
 -10  -4   3    4.62    1.29
  10   4   3    5.50    3.03
 -10  -4   3    5.03    3.13
  10   4   3    6.75    4.36
  10   3  -3    3.46    5.21
  10   3  -3    3.27    1.88
  10   3  -3    4.40    2.47
 -10  -3  -3    3.85    3.00
  10   3  -3    1.89    1.27
 -10  -3   3    2.02    2.31
  10   3   3    5.96    2.60
 -10  -3   3    4.63    1.06
  10   3   3    1.97    4.79
 -10  -3   3    2.10    2.87
  10   2  -3    5.34    1.54
  10   2  -3    8.19    3.05
  10   2  -3    0.70    4.77
 -10  -2  -3    6.00    3.08
  10   2  -3    6.92    2.36
 -10  -2   3    3.99    2.79
 -10  -2   3    6.11    3.17
  10   2   3    3.96    2.60
  10   2   3    8.95    5.37
 -10  -2   3    4.87    1.50
  10   1  -3    5.02    1.61
 -10  -1  -3    5.07    3.35
  10   1  -3    7.05    3.89
  10   1  -3    6.34    3.43
  10   1   3    6.70    2.98
 -10  -1   3    6.98    3.83
 -10  -1   3    4.03    3.58
  10   1   3    7.47    5.47
 -10  -1   3    6.39    1.65
 -10   0  -3   -2.56    3.17
  10   0  -3   -1.54    2.99
  10   0  -3   -0.67    3.36
  10   0   3   -0.08    3.02
 -10   0   3   -0.92    3.52
 -10   0   3   -0.86    3.95
  10  -1  -3    6.08    4.17
 -10   1  -3   10.20    4.17
  10  -1  -3    7.39    4.28
 -10   1   3    3.94    3.94
  10  -1   3    6.45    3.78
  10  -2  -3    6.26    4.04
 -10   2  -3    5.62    4.39
  10  -2  -3    5.42    5.20
 -10   2  -3    9.96    4.89
  10  -2   3    2.12    3.72
 -10   2   3    3.36    4.10
  10  -2   3    9.77    4.02
  10  -3  -3    8.42    4.13
  10  -3  -3    8.82    5.31
 -10   3  -3    4.03    4.26
  10  -3   3   -2.61    4.63
 -10   3   3    3.18    3.93
  10  -3   3    0.10    4.10
 -10   4  -3    7.98    4.54
  10  -4   3    4.41    5.56
  10  -4   3    0.63    4.17
 -10   5  -3   13.01    5.26
  10  -5   3   13.87    5.05
  10  -5   3    1.70    6.61
  11   7  -3   -3.02    5.04
  11   7  -3    0.53    1.74
  11   6  -3   -0.06    1.72
  11   6  -3    7.42    5.47
 -11  -6   3   -0.80    3.49
  11   5  -3    1.85    1.81
  11   5  -3    4.79    6.10
  11   5  -3    2.05    3.12
 -11  -5  -3   -0.43    3.96
  11   5   3   -6.18    4.89
 -11  -5   3    8.55    3.86
 -11  -4  -3    0.26    3.84
  11   4  -3    0.86    2.60
  11   4  -3    2.61    6.03
 -11  -4   3    2.44    0.85
  11   4   3   -1.95    2.93
  11   4   3   -0.08    5.00
 -11  -4   3    3.01    3.24
 -11  -4   3    3.17    2.27
 -11  -3  -3    0.63    3.31
  11   3  -3    3.01    5.51
  11   3  -3    3.95    2.77
  11   3   3   -1.47    5.56
 -11  -3   3    5.41    3.24
  11   3   3    4.22    2.85
  11   2  -3    3.10    4.70
  11   2  -3    0.08    3.08
 -11  -2  -3    3.13    3.16
 -11  -2   3    3.58    4.16
  11   2   3   -5.12    5.66
 -11  -2   3    0.72    3.27
  11   2   3   -5.16    2.49
  11   1  -3    1.30    3.90
  11   1  -3    0.34    3.42
 -11  -1  -3   -0.69    3.24
  11   1   3   -4.93    5.68
 -11  -1   3    0.49    4.00
  11   1   3    0.08    2.85
 -11  -1   3    2.66    3.53
 -11   0  -3   18.48    5.21
  11   0  -3   10.14    5.08
  11   0  -3    6.24    5.35
 -11   0   3   14.05    5.57
 -11   0   3    7.73    5.17
  11   0   3   12.58    4.82
  11   0   3   12.76    6.78
  11  -1  -3    4.18    4.63
  11  -1  -3   -2.60    4.17
 -11   1  -3    1.90    4.43
 -11   1   3    3.03    4.21
  11  -1   3    0.10    3.75
  11  -2  -3   -4.10    4.33
 -11   2  -3    5.45    5.23
 -11   2  -3   -4.06    4.76
  11  -2  -3    0.48    5.10
 -11   2   3    0.76    4.10
  11  -2   3    2.09    4.15
  11  -3  -3   11.82    4.61
  11  -3  -3   10.02    5.99
 -11   3  -3   -1.77    4.99
  11  -3   3    6.42    5.37
  11  -3   3   -6.60    4.56
 -11   3   3    3.56    4.38
 -11   4  -3    4.55    4.87
  11  -4  -3    5.98    4.84
 -11   4   3   -4.84    4.67
  11  -4   3   -2.87    6.14
 -11   5  -3   -5.36    5.38
  11  -6   3    0.13    4.94
  12   7  -3   -1.75    5.85
  12   6  -3   -4.11    6.81
 -12  -6   3    2.93    4.01
  12   5  -3   -0.37    3.41
  12   5  -3   -6.11    6.86
 -12  -5  -3    0.47    4.40
 -12  -5   3    0.88    4.05
  12   5   3   -5.90    5.67
  12   4  -3   -0.55    2.93
 -12  -4  -3    1.22    4.19
  12   4  -3   12.50    6.77
 -12  -4   3    0.10    3.53
  12   4   3    5.07    5.91
  12   4   3    0.38    3.17
  12   3  -3   -0.58    5.85
 -12  -3  -3    5.32    3.77
  12   3  -3    0.38    2.99
  12   3   3    8.96    6.33
  12   3   3    1.13    2.83
 -12  -3   3    2.54    3.51
  12   2  -3    0.29    5.23
  12   2  -3    0.09    3.66
 -12  -2  -3    1.38    3.60
  12   2   3  -10.18    3.06
 -12  -2   3   -0.51    3.69
 -12  -2   3    4.36    4.93
 -12  -1  -3    6.89    4.68
  12   1  -3    0.30    4.61
  12   1  -3    8.32    4.52
 -12  -1   3    7.79    4.53
 -12  -1   3   14.12    5.23
  12   0  -3    4.98    4.28
 -12   0  -3   30.33    6.77
  12   0  -3   -4.38    4.64
 -12   0   3    0.15    5.03
 -12   0   3    0.13    5.10
  12  -1  -3   -3.44    5.11
  12  -1  -3   -1.11    5.57
 -12   1   3   10.44    5.06
 -12   1   3   23.42    6.48
 -12   2  -3   -0.47    5.93
  12  -2  -3    1.22    4.92
  12  -2  -3    0.83    5.73
  12  -2   3    1.04    4.79
 -12   2   3    4.16    4.72
 -12   3  -3    5.25    7.00
 -12   3  -3    4.16    5.51
  12  -3  -3   -4.22    5.04
  12  -3  -3    4.20    6.31
  12  -3   3   -2.83    5.00
  12  -3   3   -1.46    5.92
 -12   3   3   -0.55    4.73
  12  -4  -3  -12.25    5.32
 -12   4  -3   -5.01    5.52
  12  -4   3   10.80    6.94
 -12   4   3   -0.21    4.93
  12  -4   3    0.13    5.26
 -12   5  -3   20.92    6.84
  13   6  -3    9.44    5.82
 -13  -6   3    2.69    6.63
  13   5  -3   -3.26    7.33
  13   5  -3   -3.32    3.38
 -13  -5   3    5.61    4.42
  13   4  -3   -2.20    7.19
  13   4  -3   -0.86    3.18
 -13  -4   3    3.67    3.87
  13   3  -3    8.64    6.60
  13   3  -3    3.18    3.30
 -13  -3   3    3.81    3.89
  13   3   3   -5.96    3.22
  13   2  -3    5.37    5.83
  13   2  -3    2.57    3.90
 -13  -2  -3    0.84    4.31
 -13  -2   3    0.46    4.39
 -13  -2   3   -1.24    5.55
  13   2   3    0.09    3.41
  13   1  -3   -1.29    4.37
  13   1  -3   -0.69    4.22
 -13  -1  -3    0.13    4.48
  13   1   3   -1.86    3.51
 -13  -1   3    0.99    5.69
 -13  -1   3    2.36    4.69
  13   1   3   -0.10    5.45
 -13   0  -3    1.48    5.02
  13   0  -3    0.31    5.04
  13   0  -3    8.19    4.89
  13   0   3   -0.09    4.78
  13   0   3    0.74    4.23
 -13   0   3    0.17    5.34
 -13   0   3    1.26    5.45
  13  -1  -3    2.46    5.77
  13  -1  -3    4.01    5.04
 -13   1  -3    3.58    5.71
 -13   1   3   -3.37    6.43
  13  -1   3  -11.28    4.88
 -13   1   3    0.69    5.30
 -13   2  -3    6.42    6.78
  13  -2  -3   -4.95    5.77
  13  -2   3   -0.13    5.60
 -13   2   3   27.78    5.70
  13  -3  -3   -2.93    5.44
 -13   5  -3    0.23    6.09
  13  -5   3    0.14    7.32
 -13   6  -3    2.72    7.05
  13  -6   3    6.61    6.80
  14   7  -3   -5.95    8.31
  14   6  -3    1.01    8.09
 -14  -5  -3   -1.10    5.34
  14   5   3   -0.62    4.26
  14   5   3   -8.90    7.65
 -14  -4  -3    0.16    5.44
  14   4   3  -11.92    8.03
  14   4   3  -11.55    4.19
 -14  -3  -3    0.28    4.57
  14   3   3   -3.19    7.92
  14   3   3   -7.92    3.52
 -14  -2  -3    3.35    4.90
  14   2   3    0.12    8.20
 -14  -1  -3    1.82    6.07
 -14  -1  -3    5.18    8.42
  14   1   3   -3.93    9.24
 -14   0  -3   12.14    7.13
 -14   0  -3    0.21    8.47
  14   0   3    0.38    9.08
 -14   1  -3   37.29    8.39
 -14   1  -3    0.22    9.18
  14  -1   3   38.73    7.54
  14  -1   3    0.08    8.44
  14  -2  -3    8.76    7.44
 -14   2  -3   -0.55    7.34
 -14   2   3   -5.86    6.03
  14  -2   3   -1.81    5.88
  14  -3  -3    3.22    7.43
  14  -3  -3  -11.70    6.25
 -14   3  -3   15.22    7.95
 -14   3  -3    3.43    6.98
 -14   3   3    0.64    5.94
  14  -3   3   -0.58    5.81
 -14   4  -3    8.47    9.06
  14  -4  -3   -6.44    6.66
 -14   4  -3    6.63    6.89
  14  -4   3    4.40    6.30
 -14   4   3  -12.87    6.17
  14  -4   3  -19.20    8.88
 -14   5  -3  -10.45    6.72
  14  -5   3   10.22    8.81
  14  -5   3    7.13    6.46
 -14   6  -3   -3.74    6.63
  14  -6   3    8.57    6.36
  15   7  -3  -10.05    9.23
  15   6  -3    0.97    8.76
  15   6  -3    0.38    4.39
 -15  -6   3    0.18    5.56
  15   6   3    4.42    7.90
  15   5  -3   -3.40    8.87
 -15  -5  -3    0.40    5.97
  15   5  -3    5.65    4.03
  15   5   3  -11.22    8.53
  15   5   3    4.66    4.35
 -15  -5   3   -1.13    5.23
 -15  -4  -3    0.18    5.53
  15   4  -3    3.17    3.96
  15   4  -3    5.37    8.31
 -15  -4   3   -1.14    5.07
  15   4   3    6.01    8.58
  15   4   3    2.45    4.24
  15   3  -3   -2.67    7.39
 -15  -3  -3   -0.79    5.46
  15   3  -3   -5.74    4.10
 -15  -3   3   16.37    7.27
  15   3   3  -16.34    8.63
  15   3   3   -5.83    4.04
 -15  -3   3    1.48    4.99
  15   2  -3   -0.09    5.82
 -15  -2  -3    0.30    5.20
  15   2  -3   -0.76    4.46
 -15  -2   3    0.14    5.26
  15   2   3    3.79    4.11
  15   2   3   -1.85    8.54
 -15  -2   3    8.11    7.15
 -15  -1  -3   -0.16    5.64
  15   1  -3    2.73    6.02
 -15  -1  -3    1.63    8.40
  15   1  -3   -8.45    5.37
  15   1   3    0.11    7.72
 -15  -1   3   -0.62    5.79
  15   1   3   -9.11    4.76
 -15  -1   3    5.04    7.22
 -15   0  -3    3.39    8.42
  15   0  -3    6.02    6.01
 -15   0  -3    2.05    6.20
  15   0  -3    4.09    6.91
  15   0   3  -11.06    5.30
  15   0   3   -0.19    6.52
 -15   0   3    0.17    6.52
 -15   0   3    0.63    6.69
  15  -1  -3   13.97    8.00
 -15   1  -3   -1.11    6.96
  15  -1  -3   -9.26    6.40
 -15   1  -3  -11.33    8.71
 -15   1   3   -3.62    6.63
  15  -1   3   -0.15    5.89
 -15   1   3    0.19    7.43
  15  -1   3    0.29    6.31
  15  -2  -3   -4.43    6.64
  15  -2  -3  -10.16    8.49
 -15   2  -3    0.41    7.71
 -15   2   3   -3.31    8.58
  15  -2   3    1.37    6.34
 -15   2   3    4.42    6.54
  15  -3  -3   -5.62    6.57
 -15   3  -3   -0.22    8.38
  15  -3  -3   -3.63    8.04
  15  -3   3  -10.77    6.58
 -15   3   3    1.88    6.52
 -15   4  -3    2.68    9.44
  15  -4  -3   13.63    7.12
 -15   4  -3   -1.83    7.72
 -15   4   3    9.59    6.46
  15  -4   3   13.29    7.01
  15  -4   3    0.16    9.27
 -15   5  -3   25.41    9.90
 -15   5  -3   -2.45    7.23
  15  -5   3    2.36    6.79
  15  -5   3  -15.58    9.07
 -15   6  -3   -8.43    7.23
  15  -6   3  -12.09    7.00
  16   7  -3   10.49   10.11
  16   6  -3  -12.99    9.87
  16   6   3  -10.02    8.94
  16   5  -3  -18.52    9.67
 -16  -5  -3   -3.46    6.86
  16   5  -3  -13.81    5.01
  16   5   3  -14.46    9.43
  16   5   3  -10.78    5.37
  16   4  -3    0.80    7.98
 -16  -4  -3   -0.19    5.93
  16   4  -3   -1.45    4.10
  16   4   3   -9.90    4.68
  16   4   3    9.14    8.98
 -16  -4   3    0.63    5.43
 -16  -4   3  -10.99    8.28
  16   3  -3   -3.60    7.31
 -16  -3  -3    0.18    5.63
  16   3  -3    4.48    4.26
  16   3   3   11.52    8.98
  16   3   3   -2.59    4.45
 -16  -3   3    6.22    8.02
 -16  -3   3    0.15    5.26
  16   2  -3    3.64    4.92
 -16  -2  -3    9.69    9.09
 -16  -2  -3    0.17    5.85
  16   2  -3    3.17    6.16
 -16  -2   3    5.91    8.07
 -16  -2   3   -0.63    5.84
  16   2   3    5.59    8.91
  16   2   3   -1.55    4.60
 -16  -1  -3    1.77    6.14
  16   1  -3   -0.28    5.89
  16   1  -3    9.09    6.90
 -16  -1  -3   -2.62    9.05
 -16  -1   3   -0.17    6.53
  16   1   3    5.37    4.92
 -16  -1   3   -2.33    7.83
  16   1   3    2.69    7.77
  16   0  -3   -0.16    6.31
 -16   0  -3    0.38    6.90
  16   0  -3    1.41    7.40
 -16   0  -3   -4.51    9.63
 -16   0   3   -7.80    7.60
  16   0   3   -4.92    5.56
 -16   0   3   -3.00    7.34
  16   0   3    0.10    6.73
  16  -1  -3    8.78    6.98
 -16   1  -3   -2.26    7.41
  16  -1  -3    0.84    8.44
 -16   1  -3    0.57    9.42
  16  -1   3   -0.48    6.51
 -16   1   3   -1.04    8.24
  16  -1   3    5.17    7.11
 -16   1   3   -2.39    7.28
  16  -2  -3   17.18    9.15
 -16   2  -3    0.22    8.33
  16  -2  -3   -2.74    6.96
  16  -2   3    4.45    8.66
 -16   2   3   -2.10    9.21
  16  -2   3    1.35    6.89
 -16   2   3   -0.25    7.12
 -16   3  -3   -7.36    9.65
  16  -3  -3   13.77    7.68
  16  -3  -3    5.86    8.73
 -16   3   3    7.95    7.31
 -16   3   3    0.76   10.62
  16  -3   3    6.36    7.19
 -16   4  -3   -0.26    9.80
  16  -4  -3   -6.10    7.53
 -16   4  -3   -2.91    8.31
 -16   4   3   -1.10    6.75
  16  -4   3    8.85    7.16
 -16   5  -3   15.34   11.04
 -16   5  -3   -9.04    8.39
  16  -5   3    8.91    7.77
  16  -5   3   -6.30   10.46
 -16   6  -3   -4.78    8.16
  16  -6   3    6.17    7.64
  17   7  -3   -2.34    9.89
  17   6  -3    3.98    5.11
  17   6  -3   -7.56    9.67
  17   6   3   -9.67    9.88
 -17  -6   3    6.02    6.51
  17   5  -3   -7.04    9.36
 -17  -5  -3   -0.24    7.15
  17   5  -3   -3.00    4.85
  17   5   3  -10.95    5.41
 -17  -5   3   -5.40    6.34
 -17  -5   3  -11.02    8.95
  17   5   3  -11.52    9.98
  17   4  -3   -0.12    8.76
  17   4  -3   -6.36    4.57
 -17  -4  -3    3.45    6.71
  17   4   3    5.31   10.08
  17   4   3   -3.09    5.22
 -17  -4   3   -0.98    8.71
 -17  -4   3    5.40    6.08
 -17  -3  -3   -0.40    6.51
  17   3  -3    1.96    4.75
  17   3   3    0.82    4.86
 -17  -3   3   23.38    9.19
  17   3   3   -4.56    9.50
 -17  -3   3    2.68    5.96
 -17  -2  -3    8.23   10.33
 -17  -2  -3   -0.58    7.07
 -17  -2   3   -8.45    9.33
 -17  -2   3  -23.02    7.11
 -17  -1  -3    2.40   12.89
 -17  -1  -3   -0.20   10.19
  17   1  -3   33.47    9.09
  17   1   3   -2.08    8.73
 -17  -1   3   -0.19   10.03
 -17  -1   3   20.45   11.17
 -17   0  -3    1.08   20.42
  17   0  -3   58.60   18.19
 -17   0  -3   28.80   21.27
 -17   0   3    0.62   19.87
 -17   0   3   24.98   18.81
 -17   1  -3   10.37   12.64
  17  -1  -3    0.53    9.55
 -17   1  -3   -0.68   11.37
  17  -1   3    0.34    9.33
 -17   1   3  -11.31   10.17
 -17   1   3   -0.45   11.38
 -17   2  -3    5.06   10.27
  17  -2  -3   -2.78    7.92
  17  -2  -3  -13.27   10.63
 -17   2  -3   -0.49    9.54
 -17   2   3   -0.75    9.66
 -17   2   3   -8.49    8.22
  17  -3  -3   -1.35    7.83
  17  -3  -3   -2.95   10.21
 -17   3   3  -11.61    7.92
  17  -3   3    7.49    7.87
 -17   3   3    0.28   11.49
  17  -4  -3   -6.61    8.70
 -17   4  -3   -6.03   10.33
  17  -4   3    1.34    7.77
 -17   5  -3    0.30   11.64
 -17   5  -3   -6.37    8.95
  17  -5   3    0.20   11.18
  17  -5   3    5.49    7.88
 -17   6  -3    1.05    9.16
 -17   6  -3  -24.68   12.12
  17  -6   3    3.84    8.01
  18   7  -3   -6.42   10.89
  18   6  -3   24.96   12.77
  18   6  -3    6.10   20.35
 -18  -6   3   41.00   14.71
  18   6   3  -16.35   18.67
 -18  -6   3   19.05   15.56
 -18  -5  -3    8.61    7.88
  18   5  -3   -2.54    5.38
  18   5  -3   -7.77    9.85
 -18  -5   3  -11.02    7.02
  18   5   3   -5.30    5.89
  18   5   3  -11.99   10.75
 -18  -5   3    1.59    9.82
  18   4  -3   -3.42    8.59
  18   4  -3  -10.00    5.14
 -18  -4  -3   -0.96    7.33
  18   4   3   15.09   10.64
 -18  -4   3   -3.26    9.64
  18   4   3    6.96    5.61
 -18  -4   3    0.77    6.37
 -18  -3  -3    6.43   10.98
  18   3  -3   -3.78    5.16
  18   3  -3    0.54    7.42
 -18  -3  -3   -1.14    7.26
 -18  -3   3   -2.05    6.38
  18   3   3   -5.86   10.14
 -18  -3   3    9.40   10.21
  18   3   3   -5.26    5.44
  18   2  -3    3.19    8.23
 -18  -2  -3   -0.22    7.43
 -18  -2  -3    0.32   11.33
  18   2  -3    0.14    5.74
 -18  -2   3   -6.52   10.08
  18   2   3   -0.73    5.35
 -18  -2   3   -6.81    7.10
  18   2   3   17.02    9.15
 -18  -1  -3    4.51   11.75
 -18  -1  -3   -0.22    7.81
  18   1  -3   -9.64    9.42
  18   1  -3    4.37    6.61
 -18  -1   3    0.88    9.56
  18   1   3  -12.43    8.52
 -18  -1   3   -3.83    7.90
  18   1   3   -0.89    5.62
 -18   0  -3    9.53   11.87
  18   0  -3   -8.58    7.18
 -18   0  -3    4.01    8.51
  18   0  -3   -3.62   10.00
 -18   0   3   -4.16    9.46
  18   0   3   -2.48    6.42
  18   0   3    0.39    8.60
 -18   0   3    6.15    8.33
 -18   1  -3   16.89   11.51
  18  -1  -3   -4.27   10.97
 -18   1  -3    3.29    9.48
  18  -1  -3    9.79    8.17
 -18   1   3  -10.39    9.36
  18  -1   3   19.17    7.20
 -18   1   3    8.66    8.92
  18  -1   3   -0.16   10.60
 -18   2  -3    0.27    9.88
  18  -2  -3   -6.14   11.25
  18  -2  -3    0.60    8.31
 -18   2  -3    5.36   11.23
  18  -2   3   15.89    8.20
 -18   2   3   -0.27   10.53
 -18   2   3   -0.61    8.84
  18  -2   3    1.44   11.14
 -18   3  -3   -0.56   10.73
  18  -3  -3    2.10   10.88
  18  -3  -3    0.21    8.42
  18  -3   3  -14.00    8.73
 -18   3   3    2.91   11.72
 -18   3   3   -3.77    8.60
 -18   4  -3   -0.29   11.40
  18  -4  -3   -1.72    8.83
  18  -4   3   -7.65    8.64
 -18   4   3   -4.28    8.52
 -18   4   3   -0.94   12.45
 -18   5  -3   -2.62    9.95
 -18   5  -3   -0.31   12.26
  18  -5   3  -16.07    9.14
  19   6  -3   16.09   10.71
  19   6  -3   -1.20    6.36
  19   6   3   12.59   11.55
 -19  -6   3    5.82    7.95
 -19  -6   3   -8.48   10.55
  19   5  -3   -7.76    9.97
 -19  -5  -3  -10.97    8.59
  19   5  -3    0.98    5.74
  19   5   3    6.20    6.40
 -19  -5   3   12.61   10.97
  19   5   3    8.53   11.31
 -19  -5   3    3.73    7.60
  19   4  -3   10.17    5.68
 -19  -4  -3  -14.28    9.09
  19   4  -3   11.09    8.96
 -19  -4  -3  -30.64   12.57
  19   4   3    8.48   11.32
  19   4   3    5.18    6.37
 -19  -4   3   -1.99    7.44
 -19  -4   3    0.31   10.92
 -19  -3  -3  -16.04   13.08
 -19  -3  -3   -8.74    8.86
  19   3   3  -13.14    6.85
 -19  -3   3    0.33   11.73
 -19  -3   3  -14.43    8.13
  19   1  -3  521.12  141.72
  19   1  -3  655.84  172.60
 -19   0  -3  220.61  100.68
  19   0  -3  353.16   90.60
 -19   0   3  164.23   98.46
 -19   0   3  193.30   95.04
 -19   1  -3    1.97   97.96
 -19   1  -3  157.42   93.83
  19  -1  -3  184.13   81.40
 -19   1   3  100.81   86.61
 -19   1   3   58.54   93.63
 -19   2  -3   -1.76   12.40
 -19   2  -3  -16.72   13.29
  19  -2  -3   25.91   14.13
 -19   2   3   -7.79   10.08
  19  -2   3    8.21   16.11
  19  -3  -3  -29.50   10.16
 -19   3  -3    7.31   12.31
 -19   3   3  -12.24   10.20
  19  -3   3  -10.27    9.92
 -19   3   3  -21.69   12.72
  19  -4  -3    0.23    9.47
 -19   4  -3   -0.32   12.35
 -19   4   3    7.64    9.36
  19  -4   3   -7.19    9.66
 -19   4   3    0.33   12.50
 -19   5  -3    8.79   11.20
 -19   5  -3  -21.69   13.69
  19  -5   3   21.95    9.78
 -19   6  -3    7.36   11.85
 -19   6  -3    0.35   14.54
  19  -6   3   27.03   10.33
  20   6  -3    7.10    6.30
  20   6  -3    5.05   10.15
 -20  -6   3   -7.49   11.45
 -20  -6   3   -9.39    8.50
  20   5  -3    0.18    6.48
  20   5  -3    0.53    9.37
 -20  -5   3   -5.36    8.62
 -20  -5   3   -9.61   12.11
  20   5   3   -3.31    7.09
  20   4  -3   10.71    9.15
  20   4  -3    7.31    6.45
 -20  -4  -3   11.92    9.87
 -20  -4  -3    0.36   10.39
  20   4   3    0.20    7.24
 -20  -4   3    8.87    8.40
 -20  -4   3    6.73   12.59
  20   3  -3    9.59    6.56
  20   3  -3    8.82    9.94
 -20  -3  -3   -5.51    9.32
  20   3   3  -21.30    7.14
  20   3   3    2.38   10.69
 -20  -3   3   -5.70    8.35
 -20  -3   3   -3.62   12.30
  20   2  -3  -10.24    6.76
 -20  -2  -3   15.86   14.56
  20   2  -3   11.70   11.96
 -20  -2  -3  -33.66   10.17
  20   2   3    3.44    9.17
 -20  -2   3   -0.72    8.55
 -20  -2   3  -12.70   12.25
  20   2   3    0.37    6.80
  20   1  -3    8.47   12.73
 -20  -1  -3   -7.59    9.95
 -20  -1  -3   15.05   14.99
  20   1  -3    0.72    7.31
  20   1   3   -3.56   10.21
 -20  -1   3  -10.53    9.68
 -20  -1   3  -10.65   11.92
  20   1   3   -5.21    7.21
  20   0  -3   -4.61   13.55
 -20   0  -3    2.34   10.22
  20   0  -3  -16.24    8.16
 -20   0  -3    3.92   14.27
  20   0   3   15.89    7.99
 -20   0   3   -7.24   10.05
 -20   0   3    1.12   11.65
  20   0   3    1.64   12.15
 -20   1  -3   16.88   11.75
  20  -1  -3   -5.40   13.89
  20  -1  -3   18.66    9.91
 -20   1  -3    4.41   14.59
  20  -1   3    8.69   14.28
  20  -1   3   17.97    8.95
 -20   1   3   -2.62   11.52
 -20   1   3   12.34   11.27
 -20   2  -3   10.03   11.97
  20  -2  -3   -6.59   13.26
  20  -2  -3   -1.44    9.89
 -20   2   3   10.66   11.17
 -20   2   3    6.53   11.78
  20  -2   3    8.65    9.39
  20  -2   3   -5.02   14.93
  20  -3  -3    5.86   10.25
 -20   3  -3    2.33   12.75
  20  -3  -3    1.17   13.56
 -20   3   3    3.12   10.50
  20  -3   3   -4.57   10.33
 -20   3   3   29.77   13.05
  20  -4  -3    3.52   10.63
 -20   4   3    3.50   13.53
   0   0  -4   87.79   21.44
   0   0  -4   75.94   23.71
   0   0   4   82.47   25.70
   0   1  -4   -0.01    0.10
   1   0  -4   -0.10    0.38
   0   1  -4   -0.02    0.26
   0  -1   4    0.05    0.29
  -1   0   4    0.14    0.50
  -1   1  -4    0.52    0.29
  -1   1  -4    0.33    0.28
  -1   1  -4    0.16    0.12
   1   1  -4    0.39    0.34
   1  -1   4    0.23    0.58
   1  -1   4    0.24    0.36
  -1  -1   4    0.37    0.36
   1  -1   4    0.41    0.29
  -1   2  -4    0.34    0.50
   2   1  -4    0.42    0.44
   2   1  -4    0.27    0.49
  -1   2  -4    0.64    0.30
  -1   2  -4    0.59    0.20
   2   1  -4    0.60    0.21
   2   1  -4    0.57    0.44
  -2  -1   4    0.33    0.53
  -2  -1   4    0.26    0.49
   1  -2   4    0.53    0.16
   0   2  -4   17.50    5.66
  -2   0  -4   30.16    6.77
   2   0  -4   23.52    6.67
   2   0  -4   27.33    5.77
   0   2  -4   19.92    6.49
   0  -2   4   21.85    5.51
   2   0   4   21.78    7.43
  -2   0   4   21.99    7.30
   2   0   4   20.09    7.11
  -2   1  -4    0.51    0.50
   1   2  -4    0.37    0.34
  -2   1  -4    0.57    0.17
  -2   1  -4    0.68    0.33
   2  -1   4    0.81    0.86
   2  -1   4    0.26    0.57
   2  -1   4    0.52    0.34
   2   2  -4   13.10    2.64
   2   2  -4    7.63    3.92
  -2   2  -4   10.94    3.19
  -2   2  -4    9.99    2.74
   2   2  -4   14.19    3.20
  -2   2  -4   11.58    2.93
   2   2  -4    9.29    3.10
  -2  -2   4    6.72    3.00
   2  -2   4   11.71    2.56
  -2  -2   4   11.24    2.59
   2  -2   4   10.81    3.32
   2  -2   4    5.47    3.93
   3   2  -4   15.46    5.11
   3   2  -4   12.34    5.64
   3   2  -4   17.10    3.98
   3   2  -4   17.30    4.80
  -3  -2   4   18.94    4.76
  -3  -2   4   14.68    3.93
   3   1  -4    4.06    1.36
   3   1  -4    1.45    1.59
   3   1  -4    2.70    1.34
   3   1  -4    2.93    1.02
  -3  -1  -4    3.55    1.43
   1  -3   4    4.36    0.98
   3   1   4    4.79    1.46
   3   1   4    4.72    1.53
  -3  -1   4    5.07    1.45
  -3  -1   4    4.89    1.28
  -3   0  -4    0.03    0.60
   3   0  -4    0.06    1.22
   3   0  -4    0.02    0.26
   0   3  -4    0.07    0.24
   3   0  -4    0.26    0.58
   3   0   4    0.12    1.08
   3   0   4    0.11    0.63
   0  -3   4    0.09    0.14
  -3   0   4   -0.24    0.77
  -3   0   4    0.15    0.86
   1   3  -4    4.64    1.10
  -3   1  -4    2.88    1.40
   3  -1   4    3.74    1.81
   3  -1   4    3.33    1.41
  -1  -3   4    5.12    1.02
   2   3  -4   17.34    4.28
  -3   2  -4   12.18    3.82
   2   3  -4   15.28    3.54
   3  -2   4   11.22    4.40
  -2  -3   4   14.36    3.34
   3  -2   4    6.63    5.06
   3   3  -4   23.84    7.38
   3   3  -4   26.93    6.22
   3   3  -4   19.85    8.65
  -3   3  -4   24.68    6.78
   3  -3   4   26.80    9.04
   4   3  -4   13.28    4.01
   4   3  -4   12.05    5.00
   4   3  -4   16.68    3.97
   4   3  -4   12.18    3.26
  -4  -3   4    5.78    3.93
  -4  -3   4   14.83    3.14
  -4  -2  -4    2.55    2.67
   4   2  -4    9.92    2.68
   4   2  -4    8.97    2.07
   4   2  -4    7.08    2.59
   4   2  -4    8.58    3.24
  -4  -2   4   11.12    2.61
  -4  -2   4    8.20    2.05
   4   1  -4    1.05    1.14
   4   1  -4    1.04    0.33
   4   1  -4    0.93    0.72
  -4  -1  -4    1.18    0.93
   4   1  -4    0.39    0.98
   4   1   4    0.56    0.89
  -4  -1   4    0.80    0.96
   4   1   4    0.66    1.25
  -4  -1   4    0.74    0.88
  -4  -1   4    0.87    1.02
   4   0  -4   44.91   13.28
   4   0  -4   33.43   15.95
   4   0  -4   46.81   10.87
  -4   0  -4   41.02   12.38
   4   0  -4   45.18   12.57
  -4   0   4   49.78   11.63
   4   0   4   41.08   15.20
   4   0   4   34.33   12.46
  -4   0   4   44.18   14.73
  -4   1  -4    0.98    1.08
   4  -1  -4    0.76    0.50
  -1  -4   4    0.72    0.29
   4  -1   4    0.42    1.07
  -4   1   4    0.71    1.17
   4  -1   4    0.39    1.59
  -4   2  -4    8.22    2.41
   4  -2   4    3.40    2.78
   4  -2   4    9.02    2.64
  -4   3  -4    9.84    3.76
   4  -3   4   11.08    4.13
   4  -3   4   13.40    5.15
   4   4  -4   10.39    3.97
   5   4  -4    3.57    2.17
   5   4  -4    2.60    0.96
  -5  -4   4    2.93    0.82
   5   3  -4    0.09    1.04
   5   3  -4    0.19    2.19
   5   3  -4   -0.03    0.79
  -5  -3   4   -0.08    1.19
   5   2  -4    7.25    2.59
   5   2  -4    4.36    3.36
   5   2  -4    7.54    2.50
   5   2  -4    7.23    1.91
  -5  -2   4    9.31    1.90
  -5  -2   4    7.03    2.69
  -5  -2   4    7.39    2.54
   5   1  -4   16.44    4.49
   5   1  -4    9.81    6.38
   5   1  -4   15.66    5.42
   5   1  -4   24.91    5.92
  -5  -1   4   20.20    5.39
  -5  -1   4   18.26    6.28
  -5  -1   4   17.91    4.91
   5   0  -4    0.54    0.99
   5   0  -4    0.12    0.38
   5   0  -4    1.48    2.02
   5   0  -4    0.43    1.57
  -5   0  -4   -0.08    1.22
  -5   0   4   -0.12    1.49
  -5   0   4    0.12    1.62
   5   0   4   -0.10    1.28
   5  -1  -4   16.45    5.88
   5  -1  -4   22.45    5.06
  -5   1  -4   21.19    5.78
   5  -1  -4   17.57    7.87
  -5   1   4   22.09    5.69
   5  -1   4   16.16    5.68
  -5   4  -4    3.71    2.33
   5  -4   4    0.90    3.55
   5   5  -4    2.52    1.28
  -5  -5   4    3.58    0.89
   6   5  -4    2.48    2.47
   6   5  -4    2.88    1.38
  -6  -5   4    3.54    0.94
   6   4  -4    0.09    0.61
   6   4  -4    0.43    0.90
  -6  -4   4    0.45    0.42
  -6  -3  -4    0.37    1.66
   6   2  -4   44.63   14.29
  -6  -2  -4   50.95   14.33
  -6  -2   4   48.90   13.24
   6   2   4   51.31   14.18
  -6  -2   4   43.03   15.13
   6   1  -4   -0.06    0.34
   6   1  -4    0.66    1.08
  -6  -1  -4   -0.25    1.48
  -6  -1   4    0.10    1.41
   6   1   4    0.19    1.26
   6   0  -4    6.09    1.58
   6   0  -4    7.81    2.34
  -6   0  -4    5.26    2.34
   6   0   4    6.86    2.35
   6   0   4    4.88    3.56
  -6   0   4    3.89    2.84
  -6   1  -4    0.85    1.97
   6  -1  -4    0.39    0.64
   6  -1   4    0.41    1.82
   6  -1   4    0.37    2.60
  -6   1   4    0.94    2.11
  -6   2  -4   46.74   11.03
   6  -2   4   48.05   12.40
   6  -2   4   23.70   13.73
  -6   2   4   37.38   11.67
  -6   3  -4    1.71    2.45
   6  -3   4    0.05    2.92
   6  -3   4    3.70    2.36
  -6   4  -4   -0.22    2.60
   6  -4   4   -0.64    2.58
   6  -4   4   -0.87    3.62
   7   6  -4    4.13    1.68
   7   5  -4    0.92    3.31
   7   5  -4    3.20    1.44
   7   5  -4    5.74    1.84
  -7  -5   4    5.78    1.27
   7   4  -4    3.01    1.54
   7   4  -4    2.37    1.11
  -7  -4   4    3.52    0.92
   7   3  -4    3.19    1.15
   7   3  -4    1.47    0.63
  -7  -3  -4    0.86    2.22
   7   3  -4   -5.54    3.22
   7   3  -4    0.86    1.59
  -7  -3   4    1.54    0.55
   7   3   4    0.25    1.83
  -7  -3   4   -0.36    1.88
   7   3   4    1.96    2.39
  -7  -2  -4    0.33    1.87
   7   2  -4   -2.46    1.92
   7   2   4    1.06    1.60
  -7  -2   4   -1.72    1.87
   7   1  -4    2.35    2.11
   7   1  -4    0.04    1.21
   7   1  -4    1.39    1.99
  -7  -1  -4    0.97    1.74
  -7  -1   4    0.04    1.66
  -7  -1   4    1.40    2.12
   7   1   4    0.57    1.48
  -7  -1   4   -0.51    2.07
   7   0  -4    0.04    2.27
   7   0  -4    1.04    2.21
   7   0  -4    0.23    0.45
  -7   0  -4    0.86    1.86
   7   0  -4    0.53    1.38
   7   0   4    0.15    1.85
  -7   0   4    0.25    2.05
   7   0   4   -2.58    3.17
  -7   0   4    0.78    2.24
   7  -1  -4   -3.03    3.48
   7  -1  -4    1.03    2.52
   7  -1  -4    1.09    0.65
  -7   1  -4    0.53    2.16
   7  -1   4    1.94    2.91
  -7   1   4    1.13    2.47
   7  -1   4    1.91    2.07
  -7   2  -4   -0.79    2.51
   7  -2  -4   -2.98    3.87
   7  -2  -4   -1.69    2.65
   7  -2   4    0.25    2.42
   7  -2   4   -2.07    2.21
  -7   2   4   -0.11    2.48
  -7   3  -4    0.51    2.73
   7  -3   4    1.84    2.64
   7  -3   4   -0.26    2.85
  -7   4  -4    2.39    3.18
   7  -4   4    4.13    4.60
   7  -4   4    5.26    3.34
  -7   5  -4    3.84    3.40
   7  -5   4    5.23    3.45
   8   6  -4    3.44    1.76
   8   6  -4    5.01    3.50
   8   5  -4    3.31    1.32
   8   5  -4    0.66    3.94
   8   5  -4    4.39    1.68
  -8  -5   4   -0.25    2.49
  -8  -5   4    4.81    1.07
   8   4  -4    4.91    2.28
   8   4  -4    3.09    1.74
   8   4  -4    6.49    4.08
   8   4  -4    4.65    1.27
  -8  -4   4    3.02    1.08
  -8  -4   4    3.53    2.46
   8   3  -4   -0.05    1.81
   8   3  -4   -0.16    0.64
   8   3  -4    0.04    1.23
  -8  -3  -4   -1.40    2.48
  -8  -3   4   -1.25    2.06
   8   3   4    0.93    2.05
  -8  -3   4   -0.03    1.65
  -8  -3   4    0.42    0.50
   8   3   4   -0.54    2.91
   8   1  -4   -6.84    3.17
  -8  -1  -4    0.72    2.19
  -8  -1   4   -9.61    3.49
   8   1   4    0.05    0.51
   8   1   4   -2.17    2.12
  -8   0  -4    5.52    2.43
   8   0  -4   -3.67    3.21
   8   0  -4   -0.06    1.76
  -8   0   4    2.45    2.97
   8   0   4    4.21    2.77
  -8   0   4    3.10    3.11
  -8   1  -4   -1.56    2.85
  -8   1  -4   -0.96    3.13
   8  -1  -4   -4.73    3.37
  -8   1   4   -1.77    3.06
   8  -1   4   -6.10    3.19
  -8   2  -4   10.25   11.57
  -8   2  -4    2.43    8.87
   8  -2  -4    7.91   10.23
   8  -2   4    6.58   10.66
  -8   2   4   10.61    9.71
   8  -3  -4   -0.49    3.11
  -8   3  -4    0.57    3.29
   8  -3   4    1.52    3.40
   8  -3   4    0.32    2.96
  -8   4  -4    2.88    3.50
   8  -4   4    1.30    3.32
   8  -4   4    6.14    4.62
  -8   5  -4    1.97    3.48
   8  -5   4    1.50    3.53
   8  -5   4   -2.87    5.12
   9   6  -4   19.75    4.74
   9   6  -4    3.95    6.56
   9   5  -4   -1.80    4.29
   9   5  -4    2.53    1.70
   9   5  -4    5.32    2.49
   9   5  -4    3.91    1.27
  -9  -5   4    2.85    0.97
  -9  -5   4    1.06    2.87
  -9  -4  -4   13.00    8.33
   9   4  -4   25.84    6.45
   9   4  -4   24.88    8.16
   9   4  -4   32.78    7.84
   9   4  -4    5.91   10.26
  -9  -4   4   29.74    6.12
   9   4   4   16.09    8.13
  -9  -4   4   36.05    7.91
  -9  -3  -4    3.13    2.95
   9   3  -4    3.39    2.27
   9   3  -4    4.25    1.20
   9   3  -4    2.97    4.33
   9   3  -4    4.20    1.93
   9   3   4    0.13    3.83
  -9  -3   4    3.07    2.28
  -9  -3   4    4.56    2.58
  -9  -3   4    3.43    1.09
   9   3   4    6.27    2.44
   9   2  -4    7.11    1.49
   9   2  -4   -2.76    4.07
  -9  -2  -4    7.70    2.88
   9   2  -4    8.51    2.90
   9   2  -4    7.26    2.32
  -9  -2   4    3.08    2.87
   9   2   4    7.02    4.56
  -9  -2   4    4.79    1.48
  -9  -2   4    3.32    2.73
   9   2   4    3.63    2.50
   9   1  -4   -2.00    2.70
   9   1  -4   -2.44    2.84
   9   1  -4   -0.19    0.49
  -9  -1  -4    2.01    2.39
  -9  -1   4    0.63    0.58
  -9  -1   4    1.99    2.90
  -9  -1   4   -0.31    2.84
   9   1   4    0.52    2.01
  -9   0  -4    1.17    2.64
   9   0  -4    0.61    3.06
   9   0  -4    0.15    3.12
   9   0   4    0.47    2.55
  -9   0   4   -0.80    3.07
   9  -1  -4    0.34    3.27
  -9   1  -4   -1.22    3.55
   9  -1  -4    3.42    4.04
  -9   1  -4   -0.89    3.06
   9  -1   4   -2.77    2.81
  -9   1   4    0.11    3.19
   9  -1   4   -2.16    3.61
  -9   2  -4    4.73    4.04
  -9   2  -4    5.36    3.94
   9  -2  -4    7.16    4.87
   9  -2  -4    5.29    3.72
   9  -2   4    1.52    3.22
  -9   2   4    1.72    3.53
   9  -2   4    7.94    3.59
   9  -3  -4    2.11    3.78
  -9   3  -4    5.03    3.90
   9  -3   4    3.32    3.52
  -9   3   4    3.10    3.64
   9  -3   4    0.26    3.87
  -9   4  -4   37.87    8.86
   9  -4   4   18.11   10.59
   9  -4   4   38.75    9.17
  -9   5  -4    2.44    4.10
   9  -5   4    6.19    4.06
   9  -5   4    5.80    5.29
   9  -6   4   14.12    5.85
  10   7  -4    2.66    2.10
  10   7  -4    9.42    4.67
  10   6  -4   -0.06    1.65
  10   6  -4   -2.07    4.85
  10   5  -4   12.14    4.19
  10   5  -4    4.85    6.60
  10   5  -4   13.66    4.56
 -10  -5   4   13.53    4.89
 -10  -5   4   14.11    3.18
  10   4  -4    2.22    1.86
  10   4  -4    1.47    1.16
  10   4  -4   -0.22    5.05
  10   4  -4    2.06    2.51
 -10  -4  -4    2.14    3.45
 -10  -4   4    2.93    2.86
  10   4   4    5.66    2.95
 -10  -4   4    1.59    2.28
  10   4   4    4.12    4.14
 -10  -4   4    3.18    0.92
  10   3  -4    2.20    1.23
 -10  -3  -4    4.29    3.15
  10   3  -4    3.87    2.02
  10   3  -4    5.71    2.57
  10   3  -4   10.70    4.84
  10   3   4    6.00    2.62
 -10  -3   4    2.68    1.12
  10   3   4    1.11    4.50
 -10  -3   4    5.99    2.88
 -10  -3   4    3.01    2.52
  10   2  -4    1.64    1.91
  10   2  -4    2.76    2.92
  10   2  -4    3.23    0.95
  10   2  -4    7.00    4.80
 -10  -2  -4    3.03    2.80
 -10  -2   4    3.39    3.56
 -10  -2   4    1.89    2.48
 -10  -2   4    3.30    2.90
  10   2   4    0.70    2.32
  10   2   4   -9.63    5.01
 -10  -2   4    3.50    0.92
  10   1  -4    1.78    3.06
  10   1  -4    0.99    3.10
  10   1  -4    0.12    1.76
  10   1  -4    0.68    0.58
 -10  -1  -4    0.08    2.80
  10   1   4    1.84    2.42
 -10  -1   4    2.19    3.22
 -10  -1   4   -0.63    3.51
 -10  -1   4    0.60    0.65
 -10  -1   4    0.96    2.53
 -10   0  -4   28.72    7.11
  10   0  -4   19.99    5.50
  10   0  -4   14.38    8.20
  10   0  -4   19.37    7.23
  10   0  -4   28.69    7.91
 -10   0   4   21.38    7.66
 -10   0   4   16.93    6.79
  10   0   4   27.03    6.84
 -10   1  -4    1.23    3.64
  10  -1  -4    2.33    4.45
 -10   1  -4    0.13    3.97
  10  -1  -4    0.13    0.64
  10  -1  -4    0.57    3.77
 -10   1   4    1.26    3.60
  10  -1   4    3.26    4.08
  10  -1   4    0.58    3.22
  10  -2  -4   -0.66    4.97
 -10   2  -4    5.37    4.54
 -10   2  -4    3.77    4.48
  10  -2  -4    2.67    3.84
  10  -2  -4    1.15    0.97
  10  -2   4    2.02    3.65
  10  -2   4    1.63    3.26
 -10   2   4    2.87    3.71
  10  -3  -4    4.26    4.20
 -10   3  -4    2.47    4.34
  10  -3   4    1.70    4.04
 -10   3   4    2.63    3.86
  10  -3   4    7.13    4.57
 -10   4  -4    2.67    4.35
  10  -4   4    4.61    4.21
  10  -4   4    2.79    5.46
 -10   5  -4    5.62    5.15
  10  -5   4    5.38    6.62
  10  -5   4    8.80    4.97
  11   7  -4   -1.02    5.07
  11   7  -4    1.24    1.84
  11   6  -4    2.39    1.93
  11   6  -4    0.40    5.61
 -11  -6   4   -1.04    3.55
  11   5  -4   -0.59    2.88
  11   5  -4   -0.25    5.70
  11   5  -4    1.03    1.93
 -11  -5   4    4.05    3.50
 -11  -5   4    0.26    0.85
  11   5   4   -1.53    4.54
  11   4  -4    9.11    3.23
 -11  -4  -4    6.15    4.54
  11   4  -4    9.25    6.43
  11   4  -4    4.31    3.63
  11   4  -4    7.23    2.43
  11   4   4   -1.68    5.58
 -11  -4   4    9.01    3.77
 -11  -4   4   13.96    2.17
  11   4   4    0.66    3.87
 -11  -4   4    8.02    3.87
 -11  -3  -4    0.78    3.43
  11   3  -4    2.08    2.64
  11   3  -4    3.77    5.17
  11   3   4   -0.23    2.64
 -11  -3   4    2.79    0.86
 -11  -3   4    1.98    2.55
 -11  -3   4    0.69    3.15
  11   3   4    0.34    5.28
  11   2  -4    3.56    4.42
 -11  -2  -4    3.66    3.26
  11   2  -4    3.94    3.19
 -11  -2   4    2.50    3.35
  11   2   4    2.40    2.69
  11   2   4   -3.78    5.98
 -11  -2   4   10.07    4.15
 -11  -1  -4   22.38    5.96
  11   1  -4   14.29    5.99
  11   1  -4    8.76    6.78
 -11  -1   4   18.52    6.15
 -11  -1   4   19.69    6.12
  11   1   4    9.18    5.56
  11   0  -4    1.36    4.03
 -11   0  -4   -1.55    3.59
  11   0  -4   -0.95    3.85
  11   0   4   -0.99    3.16
 -11   0   4    3.08    4.01
 -11   0   4   -3.53    4.60
  11  -1  -4   25.76    6.98
 -11   1  -4   21.46    7.10
 -11   1  -4   23.61    7.37
  11  -1  -4   12.55    8.21
 -11   1   4   14.15    6.62
  11  -1   4   21.25    6.68
  11  -2  -4   10.56    5.97
 -11   2  -4    6.00    5.25
 -11   2  -4   -1.59    5.11
  11  -2  -4    8.08    4.42
  11  -2   4    0.06    3.92
 -11   2   4    2.01    4.27
  11  -2   4    3.28    4.11
  11  -3  -4   -7.82    6.22
 -11   3  -4   -3.12    6.01
  11  -3  -4   -0.60    4.64
 -11   3  -4   -1.47    4.93
  11  -3   4    9.18    4.98
 -11   3   4    0.88    4.38
  11  -3   4    0.66    4.49
 -11   4  -4   -6.23    6.09
 -11   5  -4   -7.21    5.11
  11  -5   4  -10.75    4.87
 -11   6  -4    2.33    5.17
  11  -6   4    5.39    5.05
  12   7  -4    5.12    6.29
  12   6  -4    2.67    3.39
  12   6  -4    1.01    6.49
 -12  -6   4   -1.15    4.00
  12   5  -4    1.99    3.63
 -12  -5  -4    0.32    4.65
  12   5  -4    3.13    7.24
 -12  -5   4   -1.11    4.37
  12   5   4   -0.09    5.80
 -12  -4  -4    0.29    4.15
  12   4  -4   -1.01    2.96
  12   4  -4   -0.09    6.11
 -12  -4   4   -3.14    3.57
  12   4   4    1.26    3.25
  12   4   4   11.01    5.84
 -12  -3  -4    5.12    3.93
  12   3  -4   -6.49    5.93
  12   3  -4    1.27    2.97
  12   3   4    0.84    2.92
  12   3   4    2.77    6.32
 -12  -3   4   -0.29    3.49
  12   2  -4    8.37    3.97
  12   2  -4    6.51    5.25
 -12  -2  -4   13.48    4.10
  12   2   4    0.10    6.68
 -12  -2   4    8.95    5.04
 -12  -2   4    7.56    4.25
  12   2   4    1.73    3.46
 -12  -1  -4   -2.30    3.96
  12   1  -4   -0.77    3.73
  12   1  -4   -0.48    4.25
 -12  -1   4   -1.13    4.72
 -12  -1   4   -1.22    4.32
  12   0  -4   27.37    6.76
  12   0  -4    8.53    7.38
 -12   0   4   21.11    6.69
 -12   0   4   28.70    7.43
  12  -1  -4   -4.27    5.78
 -12   1  -4  -16.23    5.36
  12  -1  -4   -4.74    4.95
 -12   1   4   -1.38    4.45
 -12   1   4    1.68    5.99
 -12   2  -4    5.54    5.94
 -12   2  -4   14.07    6.16
  12  -2  -4   13.17    5.31
  12  -2  -4    5.82    6.61
  12  -2   4    1.36    5.11
 -12   2   4    5.88    4.94
  12  -2   4   -0.07    5.18
 -12   3  -4    3.82    6.38
  12  -3  -4    0.13    4.87
  12  -3  -4    7.48    6.19
 -12   3  -4    7.56    5.68
 -12   3   4    2.99    4.63
  12  -3   4  -15.69    5.88
  12  -3   4   -0.12    5.08
 -12   4  -4   -0.38    5.44
  12  -4   4   -6.85    5.26
  12  -4   4   -2.54    6.95
 -12   5  -4   30.35    8.42
  13   6  -4   -5.52    7.68
  13   6  -4    0.22    3.94
 -13  -6   4  -10.99    5.10
  13   5  -4   17.80    7.53
  13   5  -4    0.94    3.62
 -13  -5   4    6.53    4.55
  13   5   4   -1.76    6.27
  13   4  -4   -2.54    3.33
  13   4  -4    4.06    6.90
 -13  -4   4   -3.69    3.87
  13   3  -4   -0.94    6.24
  13   3  -4   -1.65    3.24
 -13  -3   4    2.15    3.79
 -13  -3   4    5.84    5.37
  13   2  -4    1.25    4.06
  13   2  -4    5.28    5.37
  13   2   4   -0.09    3.39
 -13  -2   4   -1.22    5.39
 -13  -2   4   -0.68    4.37
 -13  -1  -4    6.44    4.79
  13   1  -4    4.59    4.90
  13   1  -4    9.83    4.88
 -13  -1   4   10.85    5.76
 -13  -1   4    6.72    5.04
  13   1   4    6.08    4.08
  13   0  -4    4.76    4.94
 -13   0  -4   -3.21    4.85
  13   0  -4   -1.57    5.38
  13   0   4   -6.67    4.36
 -13   0   4    0.65    5.17
 -13   0   4    3.15    5.41
  13  -1  -4    3.92    5.43
 -13   1  -4    6.59    5.65
  13  -1  -4   -7.55    6.34
  13  -1   4    2.62    4.84
 -13   1   4    1.19    5.18
 -13   1   4    2.53    6.43
  13  -2  -4   31.87    7.78
  13  -2  -4    1.35    6.59
 -13   2   4   19.76    6.22
  13  -3  -4    8.86    5.94
 -13   5  -4    0.23    6.10
  13  -5   4    1.92    7.52
 -13   6  -4    0.98    6.13
  13  -6   4   -9.31    6.07
  14   8  -4   -2.76    7.99
  14   7  -4    6.89    7.96
 -14  -5  -4    2.26    5.66
  14   5   4    1.42    7.27
  14   5   4    8.94    4.52
 -14  -4  -4    0.34    6.36
  14   4   4    7.49    4.92
  14   4   4    7.64    8.53
 -14  -3  -4   -0.58    4.59
  14   3   4    1.73    3.58
  14   3   4   -2.33    7.62
 -14  -2  -4   -0.27    4.63
  14   2   4    0.11    7.57
  14   2   4    0.19    3.53
 -14  -1  -4   -0.14    4.88
 -14  -1  -4    0.42    7.46
  14   1   4    0.11    7.13
  14   1   4    3.92    3.99
 -14   0  -4    9.38    7.20
  14   0   4    9.88    8.88
  14   0   4   25.00    6.35
 -14   1  -4   -8.05    6.25
  14  -1   4   12.39    5.43
  14  -2  -4    3.54    7.51
 -14   2  -4    7.49    6.83
 -14   2  -4   -9.99    7.86
  14  -2   4  -12.17    5.92
 -14   2   4    6.62    5.60
  14  -3  -4   -8.27    6.35
  14  -3  -4   -5.04    7.21
 -14   3  -4    1.80    7.63
 -14   3  -4   -3.47    7.26
  14  -3   4   -8.65    7.46
 -14   3   4   -1.51    5.65
  14  -3   4   -4.93    6.04
 -14   4  -4   -5.80    9.54
 -14   4  -4    6.19    7.99
  14  -4   4   35.07    7.62
 -14   4   4   10.21    6.90
 -14   5  -4    3.49    7.02
  14  -5   4    0.15    6.56
  14  -5   4   14.53    8.96
 -14   6  -4    5.86    6.83
  14  -6   4    2.05    6.56
  15   7  -4  -13.83    9.91
  15   6  -4    0.23    8.51
  15   6  -4   -1.13    4.48
 -15  -6   4    4.15    5.44
  15   5  -4    0.77    3.86
  15   5  -4    1.22    8.18
 -15  -5  -4    0.61    5.68
  15   5   4   -3.28    8.15
  15   5   4    2.16    4.38
 -15  -5   4    0.31    5.05
 -15  -4  -4   -0.18    5.43
  15   4  -4   -1.01    3.94
  15   4  -4   -2.24    7.78
  15   4   4   -3.95    4.22
 -15  -4   4    0.19    7.05
  15   4   4    7.03    8.47
 -15  -4   4    1.36    4.61
 -15  -3  -4    0.16    5.24
  15   3  -4   -4.27    6.67
  15   3  -4   -4.35    4.06
  15   3   4   14.78    8.60
 -15  -3   4    0.13    4.87
  15   3   4   12.22    4.18
 -15  -3   4    8.20    7.02
  15   2  -4    2.15    5.45
 -15  -2  -4   -1.71    5.29
  15   2  -4   -4.20    4.74
 -15  -2   4    4.86    7.04
  15   2   4   -5.91    4.10
  15   2   4    0.24    8.28
 -15  -2   4   -0.14    5.28
 -15  -1  -4   -4.24    8.44
  15   1  -4   -3.27    5.76
  15   1  -4    2.63    6.49
 -15  -1  -4    0.31    5.57
  15   1   4    9.32    4.55
 -15  -1   4    1.80    6.84
  15   1   4    7.41    7.97
 -15  -1   4    1.07    5.92
 -15   0  -4   -0.34    6.06
  15   0  -4    0.28    5.95
  15   0  -4    3.92    6.70
 -15   0  -4   -5.76    8.64
 -15   0   4    0.20    6.40
  15   0   4    8.34    5.17
 -15   0   4    0.34    6.50
  15   0   4   -9.24    7.34
  15  -1  -4  -10.22    6.48
  15  -1  -4   -0.49    7.96
 -15   1  -4    0.18    6.71
  15  -1   4    3.04    6.03
 -15   1   4   -0.19    7.42
 -15   1   4   -9.30    6.71
 -15   2  -4    0.20    7.58
  15  -2  -4  -14.04    6.68
  15  -2  -4   -0.28    8.15
 -15   2   4   -0.22    8.63
 -15   2   4    5.95    6.10
  15  -2   4    3.69    6.30
  15  -3  -4   -4.68    7.80
 -15   3  -4  -14.09    8.06
  15  -3  -4    4.66    6.64
 -15   3  -4    3.74    8.70
  15  -3   4   -5.05    6.48
  15  -3   4    7.72    8.49
 -15   3   4    1.88    6.17
 -15   4  -4    2.40    7.89
 -15   4  -4   -0.24    9.24
  15  -4  -4    0.52    6.71
  15  -4   4  -10.27    9.51
 -15   4   4   -4.58    6.11
  15  -4   4   -0.16    6.37
 -15   5  -4   12.12    7.74
 -15   5  -4   -2.76    9.74
  15  -5   4  -19.89    9.01
  15  -5   4   -1.01    6.77
 -15   6  -4   15.44    7.67
  15  -6   4   -5.65    7.03
  16   7  -4   -2.00    9.30
 -16  -6   4   -7.97    6.12
 -16  -5  -4   -0.22    6.86
 -16  -5   4   -6.93    8.10
  16   5   4   -6.14    5.28
 -16  -5   4  -18.86    6.73
  16   5   4   -5.74    9.70
 -16  -4  -4   -0.20    6.01
  16   4  -4    6.53    4.32
  16   4  -4   -0.11    8.03
 -16  -4   4  -20.09    7.94
  16   4   4   -7.53    9.07
  16   4   4   -3.51    4.57
 -16  -4   4    0.90    5.06
  16   3  -4    3.61    6.65
 -16  -3  -4  -11.47    5.87
  16   3  -4    3.13    4.28
  16   3   4    6.68    4.47
 -16  -3   4    0.15    5.36
 -16  -3   4   -6.12    7.82
  16   3   4  -10.32    9.28
 -16  -2  -4   -0.17    5.95
  16   2  -4   -0.61    6.01
 -16  -2  -4    3.59    9.39
  16   2  -4    8.13    4.92
  16   2   4    2.19    8.76
 -16  -2   4   -3.17    5.81
  16   2   4    6.08    4.50
 -16  -2   4    6.12    7.72
 -16  -1  -4   25.16    9.73
 -16  -1  -4    0.18    6.21
  16   1  -4    5.17    6.86
  16   1  -4   -2.74    5.69
  16   1   4   -0.13    4.76
 -16  -1   4   -4.96    7.60
 -16  -1   4   -7.31    6.57
  16   1   4    0.12    8.45
  16   0  -4   -1.86    7.75
 -16   0  -4    0.28    9.39
 -16   0  -4    0.77    6.90
  16   0  -4    3.12    6.49
 -16   0   4   -0.94    7.13
 -16   0   4    2.28    6.99
  16   0   4    0.86    7.20
  16   0   4   -3.21    5.33
  16  -1  -4   -0.85    8.75
 -16   1  -4   -1.23    7.53
  16  -1  -4    9.97    6.92
  16  -1   4    1.52    6.07
 -16   1   4   -0.42    8.43
 -16   1   4    4.65    7.08
  16  -2  -4   -7.43    7.39
 -16   2  -4   -0.22    8.37
  16  -2  -4    0.30    8.69
 -16   2   4    7.55    6.90
 -16   2   4    1.16    9.17
  16  -2   4    0.17    6.81
  16  -3  -4    9.03    7.59
 -16   3  -4   -0.87    9.08
 -16   3  -4   -2.13    9.27
  16  -3  -4   12.05    9.13
 -16   3   4   13.57    7.27
 -16   3   4   -0.76   10.19
  16  -3   4    9.80    7.18
 -16   4  -4    1.49    8.88
  16  -4  -4   -1.50    7.61
 -16   4  -4    0.50    9.60
  16  -4   4  -11.56   10.26
  16  -4   4    3.17    7.23
 -16   4   4   -7.96    6.77
 -16   5  -4   10.41    8.45
 -16   5  -4  -16.99   10.90
  16  -5   4   -4.89    7.75
  16  -5   4  -11.94   10.24
 -16   6  -4    0.64    8.23
 -16   6  -4   11.50   10.81
  16  -6   4   -5.94    7.80
  17   6  -4   -0.72    5.14
  17   6  -4   -5.78    9.88
 -17  -6   4  -20.55    6.57
  17   5  -4  -12.19    8.69
 -17  -5  -4   -0.24    6.98
  17   5  -4    0.90    4.76
  17   5   4    0.58   10.13
 -17  -5   4    1.88    6.14
  17   5   4    9.54    5.31
 -17  -5   4   -5.34    8.46
  17   4  -4  -12.66    8.08
 -17  -4  -4    0.69    7.18
  17   4  -4   -5.31    4.74
 -17  -4   4   12.55    5.93
  17   4   4    8.06    9.85
 -17  -4   4   -1.42    8.31
  17   4   4    5.78    5.04
  17   3  -4    1.90    4.85
  17   3  -4   -2.08    6.72
 -17  -3  -4    0.21    6.62
 -17  -3   4   -7.36    8.89
 -17  -3   4   -8.20    5.99
  17   3   4    1.43    9.84
  17   3   4  -14.35    5.06
 -17  -2  -4    0.20    6.56
 -17  -2  -4   -0.29   10.19
 -17  -2   4    3.81    6.20
 -17  -2   4   -4.08    8.94
 -17  -1  -4   -5.58    7.64
 -17  -1  -4    7.67   10.55
 -17  -1   4    3.79    8.62
 -17  -1   4  -15.67    7.82
  17   0  -4   19.46    9.90
 -17   0  -4    0.32   11.33
 -17   0  -4  -24.37    8.41
 -17   0   4   -3.90    8.54
 -17   0   4  -21.09    8.58
  17   0   4  -16.07    8.42
 -17   1  -4  -11.50   10.99
 -17   1  -4   -3.89    9.02
  17  -1  -4  -14.78    8.03
  17  -1  -4  -11.00   10.29
 -17   1   4   -1.36    9.24
  17  -2  -4   -2.62    7.88
  17  -2  -4    3.61    9.53
 -17   2  -4    0.24    9.15
 -17   2   4    5.45    9.75
 -17   2   4   -8.54    7.93
  17  -2   4    0.18    7.48
  17  -3  -4   -7.95    9.38
  17  -3  -4   10.12    8.08
 -17   3  -4  -10.16   10.08
 -17   3  -4    0.26    9.88
 -17   3   4    1.11   11.03
 -17   3   4    5.34    7.43
  17  -3   4    9.71    7.79
  17  -4  -4   13.97    8.29
 -17   4  -4    5.50   10.77
 -17   4  -4   -0.66    9.50
 -17   4   4   10.43    7.58
 -17   4   4   -4.34   12.55
  17  -4   4    3.32   11.58
  17  -4   4    2.86    7.86
 -17   5  -4   -0.29   11.56
 -17   5  -4    6.49    9.43
  17  -5   4   -9.39   11.23
  17  -5   4   15.41    8.08
 -17   6  -4   12.40    9.18
 -17   6  -4  -32.33   12.55
  17  -6   4    5.40    8.29
  18   6  -4   49.83   13.11
  18   6  -4   33.31   20.43
 -18  -6   4  -11.35   14.77
 -18  -6   4    9.23   15.52
  18   5  -4   -5.29    8.70
  18   5  -4    3.48    5.19
 -18  -5  -4  -15.44    8.10
 -18  -5   4   -3.87    9.57
  18   5   4   -8.07   10.86
  18   5   4   -2.61    5.89
 -18  -5   4   10.29    6.97
  18   4  -4  -12.71    7.93
  18   4  -4   -1.45    4.91
  18   4   4   -8.41   10.43
 -18  -4   4  -24.76    9.96
  18   4   4   -0.16    5.75
 -18  -4   4    2.82    6.34
 -18  -3  -4    0.47    7.64
  18   3  -4    0.53    7.21
  18   3  -4    2.14    5.37
 -18  -3  -4    7.94   11.49
  18   3   4    2.40   10.32
 -18  -3   4  -14.37    9.96
 -18  -3   4    6.93    6.58
  18   3   4   -8.81    5.60
 -18  -2  -4    8.29   11.22
  18   2  -4   -4.80    5.67
 -18  -2  -4    0.22    7.37
  18   2  -4   -3.36    8.74
  18   2   4   -3.48    5.47
 -18  -2   4   10.38    7.12
  18   2   4   -5.20    9.18
 -18  -2   4    4.49    9.56
  18   1  -4   10.82    9.22
  18   1  -4   -3.84    6.56
 -18  -1  -4   -0.22    7.92
 -18  -1  -4    3.37   11.74
 -18  -1   4    6.84    9.36
 -18  -1   4   -7.77    8.04
  18   1   4  -15.83    5.89
  18   1   4   -7.59    8.45
  18   0  -4    0.18    7.73
  18   0  -4  -17.21   10.71
 -18   0  -4    1.19    8.15
 -18   0  -4   -5.00   12.25
  18   0   4   -0.32    6.30
 -18   0   4   -5.15    9.03
  18   0   4    1.30    8.54
 -18   0   4    8.79    8.67
 -18   1  -4   -1.02    9.07
  18  -1  -4   -4.88   10.71
 -18   1  -4    1.79   11.95
  18  -1  -4    2.94    8.10
 -18   1   4   -0.29    8.76
 -18   1   4  -10.57    9.75
  18  -1   4    5.14    7.18
  18  -1   4   -8.88   10.16
  18  -2  -4    4.04    8.22
  18  -2  -4    6.88   10.43
 -18   2  -4    0.27    9.73
 -18   2   4  -11.13   10.55
 -18   2   4  -11.88    8.54
  18  -2   4   -4.71    7.60
 -18   3  -4    0.28   10.65
  18  -3  -4   -6.52    8.73
  18  -3  -4   10.03   10.73
  18  -3   4   10.27    8.55
 -18   3   4   -0.29   11.44
 -18   3   4    3.40    8.35
 -18   4  -4   17.12   10.75
 -18   4  -4   -0.29   11.12
  18  -4  -4   15.29    9.03
  18  -4   4    9.10    8.67
  18  -4   4  -22.31   13.16
 -18   4   4   -0.31   12.78
 -18   5  -4   -0.38   10.45
 -18   5  -4    2.15   12.15
  18  -5   4   -0.21    9.34
  18  -5   4  -28.51   12.84
 -19  -6   4    1.72    7.60
 -19  -6   4  -14.27   10.44
 -19  -5  -4   -8.04    8.65
  19   5  -4    6.39    5.60
  19   5  -4    0.12    8.48
 -19  -5   4  -12.81   10.58
 -19  -5   4    7.48    7.39
  19   5   4   -7.61   11.67
  19   5   4   -1.91    6.30
  19   4  -4   -6.14    8.38
 -19  -4  -4   -0.29    8.97
 -19  -4  -4    4.24   12.33
  19   4  -4    5.40    5.73
  19   4   4   12.10    6.59
 -19  -4   4   22.98    7.36
 -19  -4   4    4.33   11.04
  19   4   4    0.16   10.89
 -19  -3  -4   -1.84    8.41
  19   3  -4   -3.08    5.90
 -19  -3  -4    6.44   12.44
  19   3   4   -0.35    6.41
 -19  -3   4  -22.77    7.73
 -19  -3   4   -4.71   11.09
  19   3   4  -22.99   11.20
 -19  -1  -4  -35.03   14.45
 -19  -1   4   -3.17   11.63
  19   0  -4  350.28   94.96
 -19   1  -4   22.89   14.82
 -19   1   4   -5.82   10.29
 -19   2  -4    0.30   12.16
  19  -2   4  -32.21   10.37
 -19   2   4  -18.19   12.47
 -19   2   4  -22.21   11.15
  19  -3  -4   11.78    9.61
 -19   3  -4    1.53   12.14
 -19   3   4   -4.79    9.25
  19  -3   4   12.14    9.58
 -19   3   4  -19.47   12.17
 -19   4  -4    1.27   12.26
  19  -4  -4   20.25    9.80
 -19   4  -4  -22.21   12.24
  19  -4   4    1.35    9.78
 -19   4   4   -7.25   12.56
 -19   5  -4   -0.33   13.05
 -19   5  -4   -7.24   11.90
  19  -5   4   -6.37    9.57
  19  -5   4  -20.12   14.22
 -19   6  -4    0.34   13.19
 -19   6  -4   -2.20   11.84
  19  -6   4   -2.33    9.83
  20   5  -4    2.79    6.24
  20   5  -4   -2.35    9.22
 -20  -5   4    1.25    8.14
 -20  -5   4   -3.00   12.21
  20   4  -4   15.49    9.68
 -20  -4  -4   -1.93    9.84
  20   4  -4    4.91    6.01
  20   4   4    3.13    7.24
 -20  -4   4  -10.53    8.20
 -20  -4   4   -4.43   11.95
  20   3  -4   -4.19    6.25
  20   3  -4    6.08   11.23
 -20  -3  -4   11.41   10.04
 -20  -3  -4   -0.38   10.48
  20   3   4    8.30    7.06
 -20  -3   4   -2.31    8.27
 -20  -3   4    1.37   11.62
  20   2  -4   -4.15    6.67
 -20  -2  -4    0.29    9.65
  20   2  -4   -0.68   11.53
  20   2   4    3.08    7.15
  20   2   4   -1.91   10.06
 -20  -2   4    3.51   11.81
 -20  -2   4  -13.45    8.71
 -20  -1  -4   -6.69   10.09
  20   1  -4   -9.14    7.68
 -20  -1  -4    6.90   14.63
  20   1  -4   10.52   13.26
 -20  -1   4   -6.34   11.23
  20   1   4   -6.72    7.39
 -20  -1   4    1.77    9.46
  20   1   4    5.33   10.36
  20   0  -4   18.51    8.47
  20   0  -4   11.20   13.33
 -20   0  -4    6.20   10.34
 -20   0  -4   27.20   15.10
  20   0   4  -17.72    7.69
 -20   0   4    1.92   10.37
  20   0   4   -0.18   11.89
 -20   0   4   11.79   11.20
  20  -1  -4    4.61   13.52
 -20   1  -4    5.26   11.33
  20  -1  -4    3.45    9.61
  20  -1   4   17.92   12.90
 -20   1   4   12.35   10.86
 -20   1   4   -8.15   11.33
  20  -1   4   -3.92    8.69
 -20   2  -4   -6.83   11.70
  20  -2  -4   -5.56   13.19
 -20   2  -4   -5.21   11.97
  20  -2  -4    1.45   10.10
  20  -2   4  -20.96   15.15
 -20   2   4   19.00   12.14
 -20   2   4    6.27   10.46
  20  -2   4    6.74    9.06
  20  -3  -4    2.70   10.16
 -20   3   4   -6.93   12.58
 -20   3   4    8.76    9.96
   0   0  -5    0.19    0.24
   0   0  -5    0.12    0.42
   0   0   5   -0.16    0.59
  -1   0  -5    3.25    1.31
   0   1  -5    5.25    1.24
   0   1  -5    4.85    1.51
   1   0  -5    3.57    1.53
  -1   0   5    4.68    1.70
   0  -1   5    6.60    1.56
  -1   1  -5    0.13    0.31
  -1   1  -5    0.09    0.40
   1   1  -5    0.32    0.44
  -1   1  -5    0.04    0.14
   1  -1   5   -0.09    0.43
   1  -1   5    0.26    0.69
  -1  -1   5   -0.02    0.51
   1  -1   5    0.07    0.34
  -1   2  -5    6.32    2.32
   2   1  -5    6.25    3.07
   2   1  -5    7.71    2.30
  -1   2  -5    7.24    2.00
  -1   2  -5    8.69    2.15
   2   1  -5    9.09    2.43
   2   1  -5    7.81    1.96
  -2  -1   5    7.92    2.16
   1  -2   5    7.28    1.93
   1  -2   5    5.07    2.88
   1  -2   5    8.49    2.36
  -2  -1   5    9.94    2.52
   0   2  -5   -0.03    0.14
   0   2  -5   -0.15    0.34
  -2   0  -5   -0.07    0.47
   2   0  -5    0.10    0.56
   2   0  -5    0.06    0.29
  -2   0   5   -0.10    0.81
   2   0   5   -0.08    0.72
   2   0   5    0.27    0.52
   0  -2   5    0.14    0.15
  -2   1  -5   10.42    2.38
  -2   1  -5    6.06    2.06
  -2   1  -5    8.74    2.34
   1   2  -5    7.61    2.00
   1   2  -5    8.68    2.38
   2  -1   5    7.73    2.50
  -1  -2   5    7.87    1.97
   2  -1   5    6.87    2.90
   2  -1   5    8.34    2.36
   2   2  -5    0.13    0.63
  -2   2  -5   -0.07    0.79
   2   2  -5   -0.02    0.18
  -2   2  -5   -0.06    0.16
  -2   2  -5    0.19    0.34
   2   2  -5   -0.07    0.47
  -2  -2   5   -0.04    0.34
   2  -2   5   -0.22    0.76
   2  -2   5   -0.24    0.84
   2  -2   5    0.03    0.12
  -2   3  -5    0.84    0.36
  -2   3  -5    0.95    1.01
   3   2  -5    0.59    0.67
   3   2  -5    1.54    0.35
   3   2  -5    0.82    1.08
   3   2  -5    1.08    0.66
  -3  -2   5    0.73    0.69
   2  -3   5    0.95    0.29
  -1   3  -5    9.78    2.65
   3   1  -5    4.42    4.05
   3   1  -5   14.95    3.31
  -3  -1  -5    5.22    3.26
   3   1  -5   10.68    2.53
   3   1  -5    9.85    3.06
   1  -3   5   12.40    2.44
  -3  -1   5    8.73    2.86
   3   1   5   10.01    3.31
  -3  -1   5    6.55    3.44
   3   0  -5    0.42    0.71
   0   3  -5    0.20    0.38
  -3   0  -5    0.14    0.66
   0   3  -5    0.07    0.26
   3   0  -5    0.03    0.33
   3   0   5    0.14    1.09
  -3   0   5    0.22    1.00
   3   0   5    0.02    0.67
   0  -3   5    0.04    0.19
   1   3  -5    9.17    2.76
  -3   1  -5   13.43    2.83
  -3   1  -5   11.19    3.25
  -3   1  -5    8.78    3.20
   1   3  -5   14.31    3.27
   3  -1   5    8.77    3.20
   3  -1   5    7.84    4.04
   3  -1   5   11.69    3.48
  -1  -3   5   10.36    2.65
  -3   2  -5    0.87    0.43
  -3   2  -5    0.77    0.31
  -3   2  -5    1.14    1.06
   2   3  -5    0.60    0.55
   3  -2   5    0.36    1.05
   3  -2   5    0.94    0.25
   3  -2   5    0.27    1.08
   3   3  -5    0.03    1.15
  -3   3  -5    0.88    1.30
   3   3  -5    0.37    0.56
   3   3  -5    0.42    0.33
   3  -3   5    0.29    2.11
  -3  -3   5    0.36    0.28
   3  -3   5    0.42    1.44
   4   3  -5   28.18   11.26
   4   3  -5   33.44    9.38
  -4  -3   5   29.91    9.10
   4   2  -5    7.78    2.94
   4   2  -5   10.08    4.28
   4   2  -5   13.38    3.71
   4   2  -5   12.27    3.70
  -4  -2   5   12.92    3.60
  -4  -2   5   13.74    3.91
   4   1  -5   17.57   11.84
  -4  -1  -5   39.68   10.93
   4   1  -5   31.44    8.69
   4   1  -5   29.63    9.98
   4   1  -5   35.30   10.76
  -4  -1   5   40.78   11.30
   4   1   5   52.08   10.94
  -4  -1   5   39.09    9.22
   0   4  -5    0.07    0.34
  -4   0  -5   -0.38    0.93
   4   0  -5    0.08    1.30
   4   0  -5   -0.39    0.88
   4   0  -5    0.06    0.37
   4   0  -5   -0.32    1.93
  -4   0   5   -0.32    1.29
   4   0   5   -0.25    1.66
   4   0   5   -0.03    0.88
  -4   0   5    0.16    1.18
   0  -4   5    0.07    0.20
   4  -1  -5   37.74    8.64
   1   4  -5   28.77    8.58
  -4   1  -5   36.91    9.55
   4  -1   5   29.60   11.74
   4  -1   5   30.68    9.44
  -4   2  -5   17.87    3.64
  -4   2  -5   13.64    3.84
   2   4  -5   16.61    3.72
   4  -2   5    4.69    4.23
   4  -2   5   11.48    3.92
  -4   3  -5   28.02    7.62
   4  -3   5   17.96   10.30
   4  -3   5   27.30    8.70
   4   4  -5    0.04    0.56
   4   4  -5    0.40    1.52
  -4  -4   5    0.03    0.36
   5   4  -5    1.20    0.89
   5   4  -5   -0.47    2.01
   5   4  -5    0.62    0.61
  -5  -4   5    0.62    0.45
  -5  -4   5    0.20    1.07
   5   3  -5    5.30    3.06
   5   3  -5    6.41    2.26
  -5  -3   5    7.06    2.22
   5   2  -5    1.98    2.03
   5   2  -5    1.17    1.14
   5   2  -5    2.38    1.44
   5   2   5    2.18    1.72
  -5  -2   5    1.56    1.32
  -5  -2   5    2.21    1.41
   5   1  -5    3.37    0.84
   5   1  -5    3.33    1.42
   5   1  -5    2.12    1.70
   5   1  -5    1.91    1.68
  -5  -1   5    3.26    1.75
  -5  -1   5    2.71    1.67
   5   0  -5    5.87    2.39
   5   0  -5    5.49    1.51
   5   0  -5    6.54    2.14
   5   0  -5    6.42    3.27
  -5   0   5    3.80    2.61
  -5   0   5    6.03    2.35
   5  -1  -5    2.43    1.07
  -5   1   5    4.59    1.99
   3   5  -5    3.28    1.60
  -3  -5   5    7.00    1.43
  -5   4  -5   -0.10    2.26
   4   5  -5    1.02    0.90
   4   5  -5    1.08    0.67
   5  -4   5   -0.26    3.23
  -4  -5   5    0.33    0.44
   5   5  -5    0.58    0.97
   5   5  -5   -0.22    0.70
  -5  -5   5    0.19    0.44
   6   5  -5   -0.06    0.84
   6   5  -5    0.04    1.13
  -6  -5   5    0.08    0.54
   6   4  -5    4.75    1.76
   6   4  -5    3.81    1.33
  -6  -4   5    4.58    1.20
   6   3  -5   48.95   13.25
   6   3  -5   53.32   16.46
  -6  -3   5   54.64   13.09
  -6  -3   5   53.44   15.79
  -6  -2  -5    1.23    1.73
   6   2  -5    0.12    1.62
   6   2   5    0.65    2.02
   6   2   5    1.08    1.54
  -6  -2   5    0.67    1.53
  -6  -1  -5   11.25    2.84
   6   1  -5    7.94    2.75
   6   1   5    8.79    3.61
  -6  -1   5    5.85    3.13
   6   1   5    4.44    2.74
  -6  -1   5    9.36    2.98
  -6   0  -5   -0.79    1.59
   6   0  -5    0.32    1.34
   6   0  -5    0.46    0.46
   6   0   5   -0.24    3.03
  -6   0   5    0.05    1.92
   6   0   5    0.67    1.51
   6  -1  -5    9.85    2.18
  -6   1  -5    7.52    2.91
  -6   1   5    8.30    3.09
   6  -1   5    6.10    3.93
   6  -1   5    6.94    2.89
  -6   2  -5    1.54    2.29
  -6   2  -5    0.44    2.19
   6  -2   5    1.20    2.13
   6  -2   5    0.50    2.20
  -6   3  -5   43.71   13.48
   6  -3   5   51.56   17.37
   6  -3   5   53.17   15.30
  -6   4  -5    3.28    2.90
   6  -4   5    5.50    3.01
   6  -4   5    7.30    4.17
  -6   5  -5   -1.16    3.19
   5   6  -5    0.04    0.94
   6  -5   5   -0.38    2.95
   6   6  -5    0.45    1.07
   7   6  -5    0.05    1.20
   7   6  -5    0.09    2.67
  -7  -6   5    0.76    0.65
   7   5  -5    1.05    0.90
   7   5  -5    0.50    1.19
   7   5  -5    0.65    3.11
  -7  -5   5    0.81    0.54
  -7  -3  -5    0.99    2.25
   7   3  -5    2.05    1.58
   7   3  -5    0.41    0.54
   7   3  -5   -7.49    3.23
   7   3  -5    0.09    1.28
  -7  -3   5    4.24    1.79
  -7  -3   5    0.03    0.49
   7   3   5    0.33    1.83
  -7  -3   5   -0.50    1.55
   7   2  -5   17.35    3.77
  -7  -2  -5    3.11    3.03
   7   2  -5   18.79    3.04
   7   2   5    4.32    2.84
  -7  -2   5   10.69    2.95
  -7  -1  -5    0.47    1.81
   7   1  -5   -4.13    2.22
   7   1   5    1.27    1.53
   7   1   5    1.40    2.99
  -7  -1   5   -1.09    2.25
  -7  -1   5   -0.20    2.11
   7   0  -5   -2.01    2.69
   7   0  -5   -2.72    2.51
  -7   0  -5   -1.44    2.02
  -7   0   5   -0.25    2.33
   7   0   5   -2.84    3.53
   7   0   5   -1.74    2.03
  -7   1  -5   -0.95    2.14
   7  -1  -5   -2.06    2.62
   7  -1  -5    0.07    3.81
   7  -1   5    0.16    2.05
   7  -1   5   -5.42    3.34
  -7   1   5   -0.30    2.46
   7  -2  -5    1.24    2.87
  -7   2  -5    3.36    2.74
  -7   2  -5    3.16    2.98
   7  -2   5    4.87    2.73
   7  -2   5    3.79    2.79
  -7   2   5    1.19    2.67
  -7   3  -5   -0.20    2.83
   7  -3   5   -1.53    2.90
   7  -3   5   -1.25    2.71
  -7   4  -5    1.63    3.63
   7  -4   5   23.62    5.28
   7  -4   5   -1.30    3.64
  -7   5  -5   -0.55    3.15
   7  -5   5    1.26    3.19
   8   7  -5    7.66    2.76
   8   6  -5    6.19    2.50
   8   6  -5    5.67    4.31
  -8  -6   5    7.37    1.82
   8   5  -5    0.20    0.90
   8   5  -5   -0.61    2.04
   8   5  -5    0.28    3.80
   8   5  -5    0.44    1.35
  -8  -5   5    0.56    2.26
  -8  -5   5    1.07    0.62
   8   4  -5   -0.55    1.41
   8   4  -5   -1.09    3.80
   8   4  -5   -0.63    0.80
   8   4  -5   -0.16    1.88
  -8  -4   5    0.66    2.08
  -8  -4   5    0.38    0.54
   8   3  -5    0.23    0.63
   8   3  -5    2.24    1.94
   8   3  -5    5.54    3.57
  -8  -3  -5    0.10    2.51
   8   3  -5    0.64    1.44
  -8  -3   5    0.82    2.05
   8   3   5    1.57    2.15
  -8  -3   5   -0.34    0.54
  -8  -3   5    1.17    1.80
   8   2  -5    1.49    0.66
  -8  -2  -5    2.92    2.21
   8   2  -5    0.72    1.74
  -8  -2   5   -1.41    2.96
  -8  -2   5    1.77    0.67
  -8  -2   5   -3.00    2.45
  -8  -2   5    0.57    2.22
   8   2   5    4.06    1.92
  -8   0  -5    9.53    3.95
  -8   0   5    8.66    4.08
   8  -1  -5   23.04    5.91
   8  -2  -5   -0.06    1.00
   8  -2  -5   -4.59    3.43
  -8   2  -5    1.44    3.37
  -8   2  -5    6.47    3.28
   8  -2   5    1.12    3.08
  -8   2   5    2.45    3.19
  -8   3  -5    0.45    3.23
   8  -3   5    2.31    3.17
   8  -3   5   -0.55    3.18
  -8   4  -5    1.14    3.30
   8  -4   5    2.04    3.19
   8  -4   5   -2.45    4.43
  -8   5  -5    1.92    3.50
   8  -5   5    0.27    3.47
   8  -5   5    1.51    4.89
   8  -6   5    9.77    4.36
   9   7  -5    8.51    3.22
   9   7  -5   10.90    5.10
   9   6  -5    5.38    1.98
   9   6  -5    4.43    4.53
  -9  -6   5    3.09    1.27
   9   5  -5    3.54    6.16
   9   5  -5   14.11    4.45
   9   5  -5   14.30    3.35
   9   5  -5   14.14    4.17
  -9  -5   5   12.98    3.06
  -9  -5   5    7.92    4.63
   9   4  -5    0.76    1.59
   9   4  -5    1.13    0.92
   9   4  -5    1.48    2.11
   9   4  -5   -0.67    4.36
  -9  -4  -5    0.72    2.85
  -9  -4   5    1.62    0.71
   9   4   5    0.30    3.19
  -9  -4   5    2.92    2.45
   9   3  -5    1.08    3.75
   9   3  -5    2.57    1.91
   9   3  -5    3.07    2.30
   9   3  -5    2.28    1.08
  -9  -3  -5    3.08    3.03
  -9  -3   5    3.23    2.37
   9   3   5    2.50    2.43
  -9  -3   5    6.92    2.53
  -9  -3   5    3.22    0.97
   9   2  -5   -1.06    2.48
   9   2  -5    1.69    1.70
   9   2  -5   -0.97    3.07
   9   2  -5    0.78    0.61
  -9  -2  -5    3.28    2.53
  -9  -2   5    0.95    2.23
  -9  -2   5    1.26    0.67
  -9  -2   5    3.98    2.85
   9   2   5    0.72    2.03
  -9  -2   5   -1.91    2.54
   9   1  -5    0.15    2.34
   9   1  -5    1.68    2.68
   9   1  -5    0.49    0.53
  -9  -1  -5   -1.43    2.36
   9   1  -5    1.12    1.68
  -9  -1   5   -0.88    2.44
   9   1   5   -1.42    2.04
  -9  -1   5    1.52    2.94
  -9  -1   5    1.12    2.99
  -9   0  -5    0.70    2.65
   9   0  -5   -1.96    3.39
   9   0  -5    3.23    3.07
   9   0  -5    1.58    0.72
   9   0  -5    1.15    1.95
  -9   0   5    2.36    2.80
   9   0   5    5.63    2.41
  -9   0   5    2.88    3.14
   9   0   5   -2.19    4.46
  -9   1  -5    1.20    2.88
  -9   1  -5    2.17    3.68
   9  -1  -5    1.11    0.72
   9  -1  -5   -1.90    3.33
   9  -1  -5   -1.39    4.29
   9  -1   5    0.83    4.06
  -9   1   5   -0.36    3.14
   9  -1   5   -2.29    2.86
  -9   2  -5    0.84    3.79
   9  -2  -5    3.10    4.84
   9  -2  -5    0.75    1.00
  -9   2  -5    5.67    3.63
   9  -2  -5    1.94    3.45
   9  -2   5   -0.64    3.14
  -9   2   5    1.38    3.40
   9  -2   5    0.05    3.08
  -9   3  -5    2.32    3.86
   9  -3  -5    3.06    3.89
   9  -3   5    5.31    3.72
   9  -3   5    8.22    3.90
  -9   4  -5    2.56    3.92
   9  -4   5   -1.22    3.74
   9  -4   5   -3.93    4.92
  -9   5  -5    9.88    5.07
   9  -5   5    5.20    6.57
   9  -5   5   13.17    4.99
   9  -6   5    0.43    4.14
  10   7  -5    6.20    2.41
  10   7  -5    1.38    5.40
  10   6  -5   -5.20    5.41
  10   6  -5    9.11    2.63
  10   5  -5    1.13    2.54
  10   5  -5   -2.39    4.95
  10   5  -5   -1.17    1.19
  10   5  -5   -0.36    1.79
 -10  -5   5   -1.89    3.05
 -10  -5   5   -0.35    0.73
 -10  -4  -5   20.69    8.18
  10   4  -5   12.89    9.87
  10   4  -5   20.13    7.82
  10   4  -5   26.79    6.19
  10   4  -5   21.81    7.43
 -10  -4   5   25.78    8.71
  10   4   5   22.39    7.63
 -10  -4   5   30.04    5.95
 -10  -4   5   31.64    7.47
  10   4   5   16.14    8.13
  10   3  -5   -0.10    0.79
  10   3  -5   -0.49    2.40
  10   3  -5   -0.12    1.87
 -10  -3  -5    0.44    3.14
  10   3  -5   -0.54    3.99
 -10  -3   5   -0.05    0.69
 -10  -3   5   -0.05    2.29
  10   3   5   -0.07    4.22
  10   3   5   -3.99    2.51
 -10  -3   5    3.24    2.69
  10   2  -5    3.86    2.93
 -10  -2  -5    5.53    2.87
  10   2  -5    0.58    3.59
  10   2  -5    1.46    0.84
  10   2  -5    1.19    1.83
 -10  -2   5    5.38    3.31
 -10  -2   5    2.45    2.60
 -10  -2   5    2.49    2.95
  10   2   5    1.86    2.40
 -10  -2   5    1.84    0.83
  10   1  -5    9.87    3.69
 -10  -1  -5   17.53    3.92
  10   1  -5    1.86    4.17
  10   1  -5    7.10    4.15
  10   1  -5    8.74    2.48
 -10  -1   5    4.73    4.54
  10   1   5   14.27    3.61
 -10  -1   5    9.12    4.35
 -10  -1   5   14.35    4.29
  10   0  -5    0.03    0.61
  10   0  -5   -1.90    3.60
 -10   0  -5   -0.90    3.01
  10   0  -5    4.52    3.92
  10   0  -5    1.95    2.12
 -10   0   5   -2.19    3.45
 -10   0   5    0.45    3.00
 -10   0   5   -1.74    4.15
  10   0   5    5.48    2.82
  10   0   5    3.42    5.09
  10  -1  -5    8.30    4.74
 -10   1  -5   11.18    4.53
  10  -1  -5    9.99    2.61
  10  -1  -5    9.12    5.89
 -10   1  -5   15.02    5.24
 -10   1   5   10.96    4.53
  10  -1   5    4.08    5.58
  10  -1   5   13.16    4.31
 -10   2  -5    1.23    4.31
  10  -2  -5    2.20    1.06
  10  -2  -5    4.51    3.98
 -10   2  -5    0.94    4.31
  10  -2  -5    3.93    5.25
 -10   2   5    0.45    3.83
  10  -2   5    3.13    3.57
  10  -2   5   -2.16    3.55
 -10   3  -5    3.22    4.52
  10  -3  -5    1.96    4.10
 -10   3  -5    0.82    4.91
 -10   3   5   -0.17    3.94
  10  -3   5   -7.60    4.12
  10  -3   5   -5.64    4.29
 -10   4  -5   27.36    7.78
  10  -4   5   15.33    9.44
  10  -4   5   24.86    7.95
 -10   5  -5   -0.86    4.53
  10  -5   5    1.85    4.28
  10  -5   5   -3.42    6.05
 -10   6  -5   15.21    6.07
  11   7  -5    1.07    2.06
  11   7  -5   -0.31    5.79
  11   6  -5    0.24    5.54
  11   6  -5    0.40    1.98
 -11  -6   5   -3.56    3.65
  11   5  -5    6.51    2.98
  11   5  -5    4.47    2.31
  11   5  -5   -3.93    5.94
  11   5  -5    2.58    1.66
 -11  -5   5    1.21    3.60
 -11  -5   5    4.50    1.29
 -11  -5   5    5.35    2.81
  11   4  -5   22.78    5.22
 -11  -4  -5   14.03    6.09
  11   4  -5   23.22    7.62
  11   4   5   37.13    5.63
 -11  -4   5    5.82    5.47
 -11  -4   5   12.29    5.38
  11   3  -5    8.78    3.07
  11   3  -5    7.01    3.28
  11   3  -5    3.89    5.32
 -11  -3  -5    9.20    4.02
  11   3  -5    5.96    2.01
 -11  -3   5    7.70    3.61
 -11  -3   5    8.06    1.96
  11   3   5    0.17    5.45
  11   3   5    8.31    3.42
 -11  -3   5    9.40    3.68
  11   2  -5   12.53    7.33
  11   2  -5   15.81    6.20
 -11  -2  -5   31.99    6.33
 -11  -2   5   20.47    4.97
 -11  -2   5   16.87    6.22
 -11  -2   5   21.32    6.32
  11   2   5   18.12    5.91
 -11  -2   5   11.16    7.45
 -11  -1  -5    6.20    3.27
  11   1  -5    3.35    3.47
  11   1  -5    2.66    3.64
 -11  -1   5    2.92    4.04
  11   1   5   -1.22    2.74
 -11  -1   5   -0.99    3.76
 -11  -1   5    1.52    0.85
 -11  -1   5    1.11    3.24
 -11   0  -5   75.11   16.73
  11   0  -5   43.57   19.69
  11   0  -5   58.94   16.71
 -11   0   5   55.91   15.39
  11   0   5   43.29   16.11
  11   0   5   42.45   21.55
 -11   0   5   55.49   17.22
  11  -1  -5    2.86    5.21
 -11   1  -5    5.44    4.15
 -11   1  -5    3.31    5.03
  11  -1  -5    0.11    4.35
  11  -1   5    0.09    3.79
  11  -1   5    0.08    4.93
 -11   1   5    2.25    4.00
 -11   2  -5   34.45    7.64
 -11   2  -5   37.75    7.86
  11  -2  -5   22.44    7.25
  11  -2  -5   22.53    8.84
  11  -2   5   23.56    7.18
  11  -2   5    6.89    7.70
 -11   2   5   13.33    7.00
 -11   3  -5    1.38    6.15
  11  -3  -5    7.53    4.81
 -11   3  -5    9.10    5.29
  11  -3   5   -8.84    4.88
  11  -3   5   -4.04    5.10
 -11   3   5    8.32    4.46
 -11   4  -5   41.55   10.43
 -11   5  -5    3.56    5.28
  11  -5   5    6.45    6.58
  11  -5   5    5.93    5.02
 -11   6  -5    2.92    5.11
  11  -6   5    0.25    4.90
  12   8  -5   -0.94    5.85
  12   7  -5    5.82    6.48
  12   6  -5    3.51    6.35
  12   6  -5    0.81    3.37
 -12  -6   5   -0.97    4.05
  12   5  -5   -2.64    6.28
  12   5  -5    0.09    3.05
 -12  -5   5   -2.75    3.60
  12   4  -5    6.20    6.31
 -12  -4  -5    1.82    4.31
  12   4  -5    0.67    2.90
  12   4   5   11.40    5.69
  12   4   5    0.31    3.40
 -12  -4   5    1.58    3.50
 -12  -3  -5    7.04    4.04
  12   3  -5    1.25    5.62
  12   3  -5    3.14    3.28
 -12  -3   5    2.90    4.57
 -12  -3   5    1.99    3.60
  12   3   5    2.93    3.30
  12   3   5   -0.09    6.01
  12   2  -5    0.45    3.77
  12   2  -5   -7.17    4.18
 -12  -2  -5   -0.11    3.74
 -12  -2   5   -2.21    4.63
 -12  -2   5    0.70    3.80
  12   2   5   -7.15    3.05
  12   2   5   -0.10    6.77
  12   1  -5   18.65    5.82
 -12  -1  -5   24.45    5.54
  12   1  -5    6.25    6.00
  12   1   5   10.18    5.04
 -12  -1   5   15.57    6.02
 -12  -1   5   16.24    5.86
  12   0  -5   -2.67    4.80
 -12   0  -5   -1.05    4.10
  12   0  -5   -0.32    4.41
 -12   0   5    2.77    4.99
 -12   0   5    1.44    4.51
  12   0   5   -6.77    3.62
  12  -1  -5    9.42    7.25
  12  -1  -5   12.84    5.90
 -12   1  -5   18.14    6.17
 -12   1  -5   22.19    7.06
  12  -1   5    6.42    5.46
 -12   1   5   18.51    5.69
  12  -1   5   -6.41    7.15
  12  -2  -5   -3.83    6.16
 -12   2  -5   -3.47    5.52
  12  -2  -5   -5.09    5.15
 -12   2  -5    0.37    6.05
  12  -2   5   -9.15    4.69
 -12   2   5   -2.22    4.79
  12  -2   5   -8.06    5.02
 -12   3  -5    1.67    6.06
  12  -3  -5    9.94    5.27
 -12   3  -5    9.78    6.61
  12  -3   5    5.89    5.45
  12  -3   5   12.94    6.39
 -12   3   5   -0.58    4.97
 -12   4  -5    4.09    5.78
 -12   4  -5    1.47    7.20
  12  -4   5   -2.01    6.86
  12  -4   5   -8.74    5.50
 -12   5  -5   18.88    5.18
  12  -5   5   -6.63    5.45
  12  -5   5   -0.13    5.95
  13   7  -5   40.71   16.12
  13   6  -5   -1.08    4.19
  13   6  -5   -3.08    7.48
 -13  -6   5  -10.29    5.47
 -13  -5  -5    1.07    4.90
  13   5  -5    6.28    7.24
  13   5  -5    0.46    3.73
 -13  -5   5    1.50    4.44
  13   5   5   -0.48    6.12
  13   4  -5    5.71    6.55
  13   4  -5    0.49    3.20
  13   4   5   -0.10    6.42
 -13  -4   5    6.87    3.75
  13   3  -5   -3.17    5.60
  13   3  -5   -1.53    3.44
 -13  -3   5    0.53    3.82
 -13  -3   5    0.14    4.99
  13   2  -5   10.89    4.78
  13   2  -5    6.36    6.04
 -13  -2   5    5.38    5.06
 -13  -2   5    6.93    5.90
  13   1  -5    0.99    4.50
  13   1  -5   -1.82    4.49
 -13  -1   5    1.99    5.11
 -13  -1   5    1.24    4.93
  13   0  -5   27.46    6.53
  13   0  -5   16.66    7.63
  13   0   5   -0.10    5.80
 -13   0   5   12.58    7.08
 -13   0   5   14.81    6.49
  13  -1  -5    8.15    6.41
  13  -1  -5   -2.18    5.27
 -13   1   5    1.18    6.79
 -13   1   5   -0.68    4.92
  13  -2  -5   13.04    7.46
  13  -2  -5   10.89    8.42
 -13   2   5   33.69    7.00
  13  -3  -5   -1.85    5.44
 -13   5  -5    9.60    6.77
  13  -5   5    7.33    8.43
 -13   6  -5  -11.21    6.45
  13  -6   5   -7.40    6.28
  13  -6   5  -16.45    8.56
  14   7  -5   29.13   12.97
 -14  -5  -5    0.96    5.36
  14   5   5   -7.44    6.95
 -14  -4  -5    0.18    5.39
  14   4   5    2.87    3.96
  14   4   5    2.01    7.47
 -14  -3  -5   -1.68    5.15
  14   3   5  -19.93    7.87
  14   3   5   -3.37    3.90
 -14  -3   5   -3.77    4.51
 -14  -2  -5   -0.28    4.71
 -14  -2   5    1.63    4.57
  14   2   5   -2.80    3.66
  14   2   5   -0.12    7.66
 -14  -1  -5    3.63    5.02
  14   1   5    8.95    4.18
  14   1   5   -0.11    7.88
 -14   0  -5    8.01    5.61
  14   0   5    2.60    4.87
 -14   1  -5    0.49    5.97
 -14   1  -5    9.23    7.99
  14  -1   5   -1.30    5.46
  14  -2  -5  -13.74    7.13
 -14   2  -5    5.43    7.88
 -14   2  -5    2.86    6.67
 -14   2   5    1.40    5.50
  14  -2   5   -1.23    5.57
  14  -2   5    0.09    5.99
 -14   3  -5   -6.76    7.83
 -14   3  -5   -5.94    7.62
 -14   3   5   -0.22    5.93
 -14   4  -5   -0.22    8.57
 -14   4  -5   10.24    7.30
  14  -4   5  -11.23    6.65
  14  -4   5   -2.73    8.88
 -14   5  -5   -3.03    6.73
 -14   5  -5   -0.23    8.93
  14  -5   5   -0.46    6.45
  14  -5   5    0.15    8.87
 -14   6  -5   16.82    7.32
  14  -6   5   -9.46    8.93
  14  -6   5    3.78    6.47
  15   6  -5   12.68    8.43
  15   6  -5   -2.23    4.35
 -15  -6   5  -10.21    5.47
 -15  -5  -5    0.63    5.92
  15   5  -5    6.70    4.17
  15   5  -5    5.43    8.10
 -15  -5   5    0.88    4.97
  15   5   5    0.24    8.02
  15   4  -5    0.87    6.99
  15   4  -5   -2.13    3.89
 -15  -4  -5    0.19    5.73
  15   4   5    0.37    4.24
 -15  -4   5    0.79    4.70
  15   4   5   -0.12    8.22
 -15  -4   5    0.36    6.57
 -15  -3  -5   -0.68    5.48
  15   3  -5    4.00    4.15
  15   3  -5    5.56    6.08
 -15  -3   5    8.42    6.77
  15   3   5   -2.21    8.09
  15   3   5    1.46    4.03
 -15  -3   5    0.39    4.79
  15   2  -5    7.39    5.59
  15   2  -5   -7.06    4.79
 -15  -2  -5   -3.78    5.27
 -15  -2   5    0.39    6.69
  15   2   5   -5.64    8.55
 -15  -2   5   -0.42    5.24
  15   2   5   -3.54    4.14
  15   1  -5    4.96    5.62
 -15  -1  -5   -0.16    5.48
  15   1  -5    3.32    6.26
 -15  -1  -5   -9.71    8.75
 -15  -1   5   -3.89    6.36
  15   1   5    0.22    4.18
 -15  -1   5   -0.15    6.03
  15   1   5  -21.42    8.26
  15   0  -5   -1.97    6.12
  15   0  -5    4.49    7.14
 -15   0  -5   -0.17    5.95
 -15   0   5    4.20    6.17
 -15   0   5    0.17    6.53
  15   0   5   -4.33    4.88
 -15   1  -5   -0.55    6.86
  15  -1  -5   14.11    8.03
  15  -1  -5   -1.97    6.66
 -15   1   5   -1.24    6.25
  15  -1   5   -7.81    5.89
 -15   1   5    0.20    7.81
 -15   2  -5    9.67    9.10
  15  -2  -5   13.51    7.99
 -15   2  -5    0.40    7.55
  15  -2  -5   11.29    7.03
 -15   2   5    0.44    9.06
  15  -2   5    0.23    7.65
  15  -2   5    1.07    6.35
 -15   2   5   15.74    6.49
 -15   3  -5    6.45    8.17
 -15   3  -5    9.24    8.40
  15  -3  -5   -0.17    6.95
  15  -3  -5    0.45    8.05
  15  -3   5    8.94    6.63
  15  -3   5    0.27    8.50
 -15   3   5    6.83    6.04
 -15   4  -5    6.13    9.09
 -15   4  -5    9.70    8.02
  15  -4   5   -0.31    9.72
  15  -4   5   -8.11    6.85
 -15   5  -5    3.27    9.74
 -15   5  -5    5.27    7.86
  15  -5   5   10.99    7.00
  15  -5   5   -3.30    9.65
 -15   6  -5   -3.52    7.84
  15  -6   5    3.76    7.02
  15  -6   5  -20.43    9.68
  16   6  -5   -5.56    4.65
 -16  -6   5   -1.90    5.82
  16   5  -5   18.21    9.04
 -16  -5   5   41.57   10.89
  16   4  -5   -5.13    4.56
 -16  -4  -5   -0.21    6.31
  16   4  -5    0.60    7.06
  16   4   5   12.42    4.76
 -16  -4   5    2.65    7.39
 -16  -4   5   -4.97    5.11
  16   4   5    0.13    9.17
 -16  -3  -5    1.89    6.02
  16   3  -5   -0.11    4.43
  16   3  -5   -0.50    5.78
 -16  -3   5   19.15    7.62
 -16  -3   5   -2.17    5.07
  16   3   5    1.19    9.04
  16   3   5    3.62    4.62
  16   2  -5   -4.60    6.25
 -16  -2  -5   -0.18    5.78
  16   2  -5   -2.62    5.09
 -16  -2   5   -2.41    7.40
  16   2   5    0.13    8.90
  16   2   5    3.19    4.56
 -16  -2   5    0.62    5.73
  16   1  -5   -7.78    6.15
 -16  -1  -5    1.25    6.25
  16   1  -5  -10.23    7.34
 -16  -1  -5    7.40    9.80
  16   1   5    7.15    4.62
  16   1   5    0.12    8.29
 -16  -1   5   -6.54    7.26
 -16  -1   5    1.18    6.49
  16   0  -5   -2.31    6.44
  16   0  -5   10.89    8.37
 -16   0  -5    1.13    6.97
 -16   0   5   -0.19    7.40
  16   0   5    4.44    5.43
 -16   0   5    7.98    7.06
  16  -1  -5   -1.81    6.75
  16  -1  -5    9.39    8.59
 -16   1  -5    3.69    7.50
 -16   1   5    0.21    8.44
 -16   1   5    5.53    6.87
  16  -1   5    1.38    6.14
 -16   2  -5   -1.31    8.23
  16  -2  -5    3.42    8.47
 -16   2  -5   -2.65    9.50
  16  -2  -5    3.49    7.36
  16  -2   5   -7.06    8.39
 -16   2   5  -12.95    7.00
  16  -2   5    5.46    6.72
 -16   2   5    0.24    9.42
 -16   3  -5   -0.23    9.01
  16  -3  -5   -5.29    7.63
 -16   3  -5    4.18    9.54
 -16   3   5    0.26   10.14
  16  -3   5    2.13    9.35
 -16   3   5    6.38    6.66
  16  -3   5    6.00    7.15
 -16   4  -5   10.28    9.08
 -16   4  -5    0.25    9.89
  16  -4   5    8.61    7.30
  16  -4   5    4.18   10.85
 -16   5  -5   -5.57    9.74
 -16   5  -5    3.98   11.53
  16  -5   5    8.55   12.68
  16  -5   5   -9.00    8.55
 -16   6  -5    2.90    8.65
 -16   6  -5   21.55   11.19
  16  -6   5   -0.18    7.64
  16  -6   5    9.56   10.65
  17   6  -5    5.25    4.88
 -17  -6   5    0.66    8.27
 -17  -6   5    0.82    6.23
  17   5  -5    2.22    8.48
 -17  -5  -5    0.25    7.45
  17   5  -5    1.14    4.62
 -17  -5   5   10.52    5.98
  17   5   5   -0.14   10.15
 -17  -5   5    3.79    8.21
  17   4  -5   -4.77    4.53
 -17  -4  -5    0.70    7.25
  17   4  -5   -2.96    6.96
 -17  -4   5    3.24    5.69
  17   4   5   -6.00    5.07
 -17  -4   5   12.33    8.34
  17   4   5   10.81   10.07
  17   3  -5   -4.07    6.43
 -17  -3  -5    0.85    6.77
  17   3  -5    3.76    4.63
  17   3   5  -14.03    9.54
 -17  -3   5    9.51    8.32
 -17  -3   5    1.92    5.62
  17   3   5    0.43    5.12
 -17  -2  -5    1.23    6.92
 -17  -2  -5   23.88   10.76
  17   2  -5    0.26    5.27
  17   2  -5  -11.29    8.11
  17   2   5    2.86    5.01
  17   2   5  -10.65    9.57
 -17  -2   5   -3.62    8.10
 -17  -2   5   10.41    6.33
 -17  -1  -5    2.96   10.28
 -17  -1  -5   -0.20    7.24
  17   1  -5  -22.49    6.53
 -17  -1   5   -8.72    8.10
 -17  -1   5    4.48    7.32
 -17   0  -5   -0.21    8.27
  17   0  -5  -25.58    8.02
 -17   0   5   -1.49    8.11
 -17   0   5  -16.31    8.72
 -17   1  -5    1.60    8.17
  17  -1  -5  -19.63    7.81
 -17   1   5   -0.23    9.20
  17  -1   5   -2.42    6.61
 -17   1   5   -2.79    7.59
 -17   2  -5   -1.32   10.59
  17  -2  -5    3.20    7.91
  17  -2  -5    3.58    9.29
 -17   2  -5    0.24    8.82
 -17   2   5    3.70    7.57
 -17   2   5    0.51   10.15
  17  -2   5    5.82    7.28
  17  -3  -5   -9.06    8.35
 -17   3  -5   -0.77    9.86
 -17   3  -5    3.32   10.29
 -17   3   5    5.54   11.14
  17  -3   5   -7.13   10.90
  17  -3   5  -10.19    7.77
 -17   3   5    4.74    7.23
 -17   4  -5   21.60   10.35
 -17   4  -5    4.76    9.93
  17  -4   5  -11.41   11.59
  17  -4   5   -2.28    7.95
 -17   5  -5   -4.51   10.67
 -17   5  -5    7.60    9.74
  17  -5   5   29.98   11.79
  17  -5   5  -11.64    8.01
 -17   6  -5   -8.59    9.81
 -17   6  -5   -9.15   11.68
  17  -6   5    2.59    7.99
  17  -6   5   -8.62   11.75
 -18  -6   5    7.48    9.20
 -18  -5  -5  -25.51    9.11
  18   5  -5  -13.85    5.60
  18   5  -5    4.77    8.96
 -18  -5   5  -27.01    9.38
  18   5   5    8.12   10.81
  18   4  -5    3.42    7.16
 -18  -4  -5   -0.26    7.94
  18   4  -5    3.13    4.87
  18   4   5  -14.61   10.54
  18   4   5    0.52    5.71
 -18  -4   5   10.62    6.42
 -18  -4   5  -13.68    9.40
  18   3  -5  -16.88    7.93
  18   3  -5   -9.83    5.10
 -18  -3  -5    0.71    7.80
 -18  -3  -5   17.96   11.33
  18   3   5    5.22    5.52
 -18  -3   5   -7.05    9.42
 -18  -3   5    8.03    6.48
  18   3   5   -1.48    9.88
 -18  -2  -5   -9.79   11.62
  18   2  -5   -4.71    8.93
  18   2  -5   -2.19    5.74
 -18  -2  -5   -0.46    7.97
  18   2   5    0.14    9.49
  18   2   5   -3.48    5.45
 -18  -2   5    7.93    7.13
 -18  -2   5   -8.89    9.11
  18   1  -5  -18.16    9.73
 -18  -1  -5    4.32    7.51
  18   1  -5   -0.63    6.32
 -18  -1  -5   10.13   12.05
  18   1   5    4.43    5.84
  18   1   5  -16.86    8.59
 -18  -1   5   -2.46    8.73
 -18  -1   5   -3.10    7.59
  18   0  -5    5.50   10.32
  18   0  -5   -3.31    7.77
 -18   0  -5    0.24    8.45
 -18   0  -5  -14.09   12.64
  18   0   5   -6.32    8.06
 -18   0   5    6.71    8.71
 -18   0   5   -7.14    8.54
  18   0   5    0.80    6.21
 -18   1  -5   -2.05    9.11
  18  -1  -5    0.19    8.27
  18  -1  -5  -10.46   10.62
 -18   1   5   12.22    9.63
 -18   1   5   22.32    8.52
  18  -1   5    5.08    6.68
  18  -2  -5   -9.16    8.49
  18  -2  -5   20.72   10.56
 -18   2  -5    1.88   10.32
  18  -2   5    0.57    7.71
 -18   2   5   11.04   10.62
 -18   2   5   -0.87    8.12
 -18   3  -5    0.56   10.59
  18  -3  -5   -7.85    8.60
 -18   3  -5    2.25   11.78
  18  -3   5   -3.65    8.24
  18  -3   5   -9.10   12.32
 -18   3   5   12.80   11.71
 -18   3   5    0.61    7.92
 -18   4  -5    6.05   11.18
 -18   4  -5    0.29   11.20
  18  -4   5    1.03    8.46
  18  -4   5   -5.25   13.08
 -18   5  -5   -2.15   12.83
 -18   5  -5   -5.42   11.14
 -18   6  -5   -2.89   13.31
 -18   6  -5    1.99   10.98
 -19  -5  -5   -0.30    8.84
 -19  -5   5  -15.71   10.41
 -19  -5   5    4.84    7.41
  19   5   5   14.73   11.00
 -19  -4  -5   -0.88    8.54
  19   4  -5    4.44    5.58
  19   4  -5    1.23    7.95
  19   4   5    3.05    6.61
  19   4   5    0.49   11.40
 -19  -4   5   -2.23    7.05
 -19  -4   5    9.77   10.33
 -19  -3  -5  -12.50   12.26
  19   3  -5    0.29    5.51
 -19  -3  -5    9.49    8.94
  19   3  -5   -2.47    9.60
 -19  -3   5   15.86    7.28
 -19  -3   5   -1.19   10.19
  19   3   5    0.15   10.33
  19   3   5   -1.05    6.31
  19   2  -5   -8.63    6.59
 -19  -2  -5   13.11    8.89
 -19  -2  -5  -30.38   13.11
 -19  -2   5  -12.69   10.48
  19   2   5  -15.14    6.85
 -19  -2   5   -1.04    7.87
 -19  -1  -5   -0.26   10.35
 -19  -1  -5  -28.07   15.21
 -19   0  -5  -12.52   12.96
 -19   0   5  -36.42   11.66
 -19   1  -5   -5.89   11.46
 -19   1   5  -28.62   11.70
 -19   1   5  -36.23   10.84
 -19   2  -5   -2.67   11.51
  19  -2  -5   -6.16    9.60
 -19   2   5   20.42   11.17
  19  -2   5   -6.75    8.46
 -19   2   5   -0.32    9.26
  19  -3  -5    0.69    9.49
 -19   3  -5  -23.66   12.87
 -19   3  -5    1.23   11.62
  19  -3   5    3.10    9.48
 -19   3   5  -15.49    8.94
 -19   3   5  -19.73   12.22
 -19   4  -5   -2.21   12.21
 -19   4  -5    0.43   12.15
  19  -4   5  -11.66   14.58
  19  -4   5    1.59    9.43
 -19   5  -5    3.45   11.83
 -19   5  -5   -1.97   12.75
  19  -5   5    8.41    9.75
  19  -5   5   -3.96   14.09
 -19   6  -5    1.78   11.51
 -19   6  -5    2.05   13.58
  19  -6   5   -0.23    9.74
  20   4  -5   -2.38    9.43
  20   4  -5   -2.90    6.09
 -20  -4   5  -23.00   11.75
 -20  -4   5   14.17    8.09
 -20  -3  -5   -8.21   10.01
  20   3  -5    6.68    6.15
  20   3  -5  -29.43   11.79
 -20  -3   5   -3.15    8.09
  20   3   5    2.92    7.05
 -20  -3   5    3.95   11.25
  20   2  -5   -0.72   11.90
 -20  -2  -5  -23.47    9.98
  20   2  -5    3.12    6.72
 -20  -2   5    3.47    8.57
 -20  -2   5    3.34   11.18
  20   2   5    4.05    7.21
  20   2   5    1.02    8.90
 -20  -1  -5  -10.64   10.42
 -20  -1  -5    0.43   13.17
  20   1  -5    0.39   12.74
  20   1  -5    4.05    7.64
 -20  -1   5   16.35   10.58
 -20  -1   5   -7.85    9.62
  20   1   5   12.93    7.38
 -20   0  -5   12.57   10.64
 -20   0  -5    0.88   14.19
  20   0  -5   -9.49    8.79
  20   0  -5  -19.56   13.21
 -20   0   5   -7.57   10.18
  20   0   5    4.35    7.42
 -20   0   5    9.58   10.38
 -20   1  -5   -0.45   11.84
  20  -1  -5   30.28   13.08
 -20   1  -5    7.49   11.60
 -20   1   5   -0.58   11.11
 -20   1   5   -8.03   10.37
  20  -1   5   -2.79    8.28
  20  -2  -5   -1.43   10.08
 -20   2  -5   -1.65   12.07
  20  -2  -5  -17.03   12.86
  20  -2   5   -5.71    9.20
 -20   2   5  -19.79   10.14
 -20   2   5   17.35   12.15
  20  -3  -5   -5.94   10.62
 -20   3   5   14.54    9.79
 -20   3   5    0.99   12.91
   0   0  -6    0.13    0.31
   0   0  -6   -0.14    0.56
   0   0   6   -0.07    0.74
  -1   0  -6   -0.06    0.30
   1   0  -6   -0.17    0.32
   0   1  -6   -0.09    0.21
   1   0  -6   -0.04    0.62
   0   1  -6   -0.03    0.53
   0  -1   6    0.13    0.61
  -1   0   6    0.14    0.80
   1   1  -6    9.52    2.62
   1   1  -6   10.58    2.16
  -1   1  -6    9.54    2.62
  -1   1  -6    6.72    2.56
  -1   1  -6    9.07    2.21
  -1  -1   6    6.02    2.73
   1  -1   6    7.05    2.70
   1  -1   6    8.84    2.71
   1  -1   6    7.44    3.02
  -1   2  -6    1.82    0.71
  -1   2  -6    1.21    0.67
  -1   2  -6    1.89    0.46
  -1   2  -6    1.65    0.78
   2   1  -6    2.22    0.81
   1  -2   6    0.73    0.87
  -2  -1   6    1.75    0.95
   1  -2   6    1.17    0.72
   1  -2   6    1.42    0.44
   2   0  -6   16.67    5.86
  -2   0  -6    9.41    5.84
   2   0  -6   18.44    4.99
   0   2  -6   17.54    4.86
   0   2  -6   23.34    5.73
   2   0   6   19.08    6.06
   0  -2   6   23.72    5.86
  -2   0   6   24.83    6.43
  -2   1  -6    1.29    0.75
   1   2  -6    2.34    0.76
  -2   1  -6    2.25    0.77
   1   2  -6    2.48    0.51
  -2   1  -6    1.96    0.52
   2  -1   6    1.81    1.30
   2  -1   6    2.23    0.83
  -1  -2   6    0.76    0.79
   2  -1   6    0.93    0.85
  -2   2  -6  119.22   24.49
   2   2  -6   93.59   28.39
  -2   2  -6   81.15   27.17
  -2   2  -6  105.14   24.74
  -2   2  -6  117.26   28.62
   2  -2   6  100.38   23.85
   2  -2   6   82.07   27.13
  -2  -2   6   89.80   29.40
   2  -2   6   54.35   31.00
  -2   3  -6   14.68    4.52
  -2   3  -6   13.49    4.96
   3   2  -6    6.30    5.68
   3   2  -6   17.60    5.02
   3   2  -6   20.15    5.07
   3   2  -6   16.06    4.06
  -2   3  -6   18.53    4.32
   2  -3   6   18.11    4.02
  -3  -2   6   15.78    5.21
   2  -3   6   15.97    5.17
   2  -3   6   18.64    6.11
  -3  -2   6   17.47    4.89
   3   1  -6    6.61    1.49
  -1   3  -6    6.78    1.79
   3   1  -6    4.99    1.88
  -1   3  -6    7.05    1.53
   3   1  -6    5.90    2.69
   3   1  -6    5.23    1.96
  -3  -1   6    5.80    1.85
   1  -3   6    5.63    1.43
   3   1   6    2.91    1.94
  -3  -1   6    5.03    2.15
   0   3  -6   -0.20    0.27
   3   0  -6    0.28    0.40
  -3   0  -6   -0.10    0.73
   3   0  -6    0.14    0.83
   0   3  -6   -0.13    0.47
   3   0   6    0.15    0.78
  -3   0   6    0.34    1.15
   3   0   6   -0.21    1.21
   0  -3   6    0.08    0.21
   1   3  -6    7.12    1.52
  -3   1  -6    4.53    1.85
  -3   1  -6    6.87    1.56
   1   3  -6    5.65    1.81
  -3   1  -6    5.16    1.87
   3  -1   6    4.79    1.91
   3  -1   6    5.91    2.04
  -1  -3   6    5.72    1.46
   3  -1   6    4.77    2.61
  -3   2  -6   16.55    4.41
  -3   2  -6   17.50    4.36
   2   3  -6   17.18    4.93
   2   3  -6   20.82    6.05
  -3   2  -6   21.08    5.04
  -3   2  -6   17.80    4.86
   3  -2   6    8.13    5.57
   3  -2   6   12.08    4.83
   3  -2   6   15.48    5.07
  -3   3  -6    0.25    0.49
   3   3  -6    0.28    0.72
  -3   3  -6    0.16    0.31
  -3   3  -6   -0.22    1.50
   3   3  -6   -0.09    1.20
   3  -3   6    0.35    2.15
   3  -3   6   -0.07    1.50
   3  -3   6   -0.02    0.21
  -3  -3   6   -0.20    0.54
   4   3  -6   10.96    3.95
   4   3  -6    9.80    3.25
  -4  -3   6    8.91    3.13
   4   2  -6   40.01   11.28
   4   2  -6   15.43   12.95
   4   2  -6   42.95   11.68
  -4  -2   6   44.49   12.18
  -4  -2   6   39.33   11.04
   4   1  -6   10.28    5.11
  -1   4  -6   14.19    3.39
   4   1  -6   12.11    4.08
   4   1  -6   13.99    3.87
  -4  -1  -6   13.60    4.31
   1  -4   6   13.81    3.14
   4   1   6   12.54    4.23
   4   1   6   12.20    4.20
  -4  -1   6   12.59    3.75
  -4  -1   6   10.40    4.40
  -4   0  -6    1.83    1.12
   4   0  -6    0.84    1.11
   0   4  -6    1.46    0.55
   0   4  -6    1.81    0.69
   4   0  -6    1.44    0.61
   4   0   6    0.79    1.93
  -4   0   6    1.47    1.28
   4   0   6    1.37    1.03
  -4   0   6    1.48    1.56
   0  -4   6    1.05    0.43
  -4   1  -6   14.66    3.96
   1   4  -6   15.42    3.98
  -4   1  -6   13.24    3.55
   4  -1   6   11.24    5.08
   4  -1   6   13.89    3.95
   4  -1   6   12.89    4.24
  -4   2  -6   44.41   10.59
  -4   2  -6   43.42   11.59
  -4   2  -6   46.04   10.47
  -4   2  -6   33.80   12.28
   4  -2   6   23.59   13.18
   4  -2   6   36.42   11.44
   4  -2   6   47.70    9.86
   4  -2   6   37.85   12.17
   3   4  -6    8.27    2.51
   3   4  -6    6.75    3.58
  -4   3  -6   11.95    3.09
  -4   3  -6   10.15    3.21
   4  -3   6    6.74    3.44
  -3  -4   6   12.47    2.38
   4  -3   6    7.47    4.00
   4   4  -6    6.86    1.63
   4   4  -6    5.29    2.77
   4   4  -6    5.34    2.01
   4  -4   6    6.43    2.72
  -4  -4   6    5.76    1.54
   5   4  -6   14.66    4.32
   5   4  -6   19.21    5.64
   5   4  -6   13.06    3.48
  -5  -4   6   16.32    3.34
  -5  -4   6    3.84    4.14
   5   3  -6   38.61   14.49
   5   3  -6   43.61   11.18
   5   3  -6   32.18   15.89
  -5  -3   6   49.80   11.04
  -5  -3   6   54.34   13.54
  -5  -2  -6    7.39    5.68
   5   2  -6   10.08    6.13
   5   2  -6   15.66    5.20
  -5  -2   6   20.71    5.11
  -5  -2   6   17.80    4.59
   5   2   6   17.53    5.45
   5   1  -6    9.31    5.53
   5   1  -6   19.32    4.79
   5   1  -6   19.37    4.59
  -5  -1   6   17.79    4.41
  -5  -1   6   13.26    5.21
   5   0  -6   -0.03    0.43
   5   0  -6    0.25    2.79
   5   0  -6    0.24    1.81
   5   0  -6   -0.05    1.37
  -5   0   6    0.81    1.73
  -5   0   6    0.51    1.94
   1   5  -6   19.95    4.51
  -1  -5   6   18.19    4.29
  -5   2  -6   20.63    6.07
   5  -2   6   19.54    5.96
   3   5  -6   45.48   11.74
  -5   3  -6   54.72   14.39
   3   5  -6   40.20   13.43
  -3  -5   6   44.00   11.05
   4   5  -6   12.30    3.87
   4   5  -6   14.64    4.47
  -5   4  -6   14.57    4.70
  -4  -5   6   16.79    3.62
   5  -4   6   15.91    6.09
   5   5  -6    0.45    0.98
   5   5  -6    0.38    0.72
   5   5  -6    0.66    1.98
   5  -5   6   -0.67    2.47
  -5  -5   6    0.56    0.48
  -6  -5   6    3.63    1.05
   6   4  -6   15.65    4.91
   6   4  -6   15.88    3.94
  -6  -4   6   13.07    4.95
  -6  -4   6   15.71    3.81
   6   3  -6    5.86    2.33
   6   3  -6    4.92    2.21
   6   3  -6    4.65    1.59
  -6  -3   6    6.57    1.58
  -6  -3   6    9.25    2.36
  -6  -3   6    4.78    2.44
  -6  -2  -6   24.99   12.18
   6   2  -6   34.33    9.26
   6   2  -6   36.33   10.86
   6   2   6   53.95   11.87
   6   2   6   34.83   11.62
  -6  -2   6   36.42   10.73
   6   1  -6   -0.13    1.79
  -6  -1  -6    0.52    1.58
   6   1   6    0.66    2.40
   6   1   6    0.60    1.42
  -6   0  -6    3.03    1.89
   6   0   6    4.94    3.19
   6   0   6    3.18    1.81
  -6   1  -6    0.05    1.69
   6  -1   6    0.49    1.77
  -6   1   6   -1.70    2.08
   6  -1   6    0.55    2.88
  -6   2  -6   39.56   10.57
  -6   2  -6   31.96    9.40
   6  -2   6   17.92   12.19
   6  -2   6   35.40   10.23
  -6   3  -6    7.69    2.07
  -6   3  -6    8.36    3.05
   6  -3   6    6.63    3.00
  -3  -6   6    5.94    1.66
   6  -3   6    4.31    3.23
  -6   4  -6   10.60    5.13
   4   6  -6   17.10    4.80
  -4  -6   6   11.72    3.99
   6  -4   6   22.97    6.52
   6  -4   6   24.42    5.49
  -6   5  -6    5.37    3.59
   6  -5   6    8.27    3.60
   6   6  -6    1.17    1.02
   6   6  -6    1.77    1.32
   6   6  -6    3.22    2.42
  -6  -6   6    1.91    0.72
   7   6  -6    1.47    1.03
   7   6  -6    1.42    1.39
   7   6  -6    1.85    2.94
  -7  -6   6    1.47    0.75
   7   5  -6    1.79    1.35
   7   5  -6    3.36    3.19
   7   5  -6    1.45    0.86
  -7  -5   6   -0.06    1.71
  -7  -5   6    0.65    0.63
   7   4  -6    2.21    0.99
   7   4  -6    2.37    1.83
   7   4  -6    2.01    1.66
  -7  -4   6    4.50    1.98
  -7  -4   6    2.88    0.87
  -7  -3  -6    3.82    4.19
   7   3  -6   12.44    3.78
   7   3  -6   12.31    2.84
   7   3  -6   16.34    3.82
  -7  -3   6    8.82    4.24
  -7  -3   6   10.06    2.82
   7   2  -6    6.67    2.75
  -7  -2  -6    5.72    3.17
   7   2  -6    2.92    3.43
   7   2  -6    5.45    1.82
   7   2   6   11.20    3.45
   7   2   6    9.51    2.88
  -7  -2   6    7.76    2.82
  -7  -2   6    6.33    3.06
  -7  -1  -6    2.50    2.01
   7   1  -6    6.64    2.36
   7   1  -6    0.44    2.34
   7   1  -6    4.71    1.81
   7   1  -6    2.37    0.92
   7   1   6    3.14    3.18
  -7  -1   6    2.41    2.15
   7   1   6    3.03    1.76
  -7  -1   6    1.95    2.41
  -7  -1   6   11.03    2.54
   7   0  -6    3.16    2.38
  -7   0  -6    0.18    1.82
   7   0  -6    0.18    0.68
   7   0  -6   11.70    3.58
   7   0   6   -0.23    3.42
   7   0   6    0.33    1.74
  -7   0   6    0.61    2.39
  -7   1  -6    1.34    2.17
   7  -1  -6    4.25    3.96
   7  -1  -6    1.61    0.98
   7  -1  -6    2.65    2.82
   7  -1   6    6.11    3.50
   7  -1   6    0.48    2.23
  -7   1   6    0.94    2.56
  -7   2  -6    8.08    3.30
  -7   2  -6    8.95    3.36
   7  -2   6    4.73    3.63
   7  -2   6    5.03    3.07
  -7   3  -6    9.98    4.00
   7  -3   6    5.66    4.39
   7  -3   6   13.05    4.29
  -7   4  -6    4.34    3.11
   7  -4   6    4.55    3.15
   7  -4   6    0.07    4.10
  -7   5  -6    0.27    3.22
   7  -5   6    0.86    4.56
   7  -5   6    3.10    3.18
   7  -6   6    1.61    3.32
   7   7  -6    7.79    2.79
   8   7  -6    1.40    1.57
   8   7  -6   -1.56    3.46
   8   6  -6    1.31    1.57
   8   6  -6    1.41    1.13
   8   6  -6    0.43    3.54
  -8  -6   6    1.19    0.75
   8   5  -6    3.15    2.10
   8   5  -6    1.59    1.66
   8   5  -6    2.46    4.20
   8   5  -6    2.80    1.21
  -8  -5   6    2.19    2.30
  -8  -5   6    2.12    0.88
   8   4  -6    0.97    1.51
   8   4  -6   -0.05    3.75
   8   4  -6    0.60    1.81
   8   4  -6   -0.10    0.79
  -8  -4   6    0.89    0.61
  -8  -4   6   -1.73    2.09
  -8  -3  -6    0.62    2.59
   8   3  -6   -2.93    3.29
   8   3  -6   -0.85    1.87
   8   3  -6    1.29    0.66
   8   3  -6    0.98    1.56
  -8  -3   6    0.86    2.01
  -8  -3   6    0.93    2.09
   8   3   6    1.92    2.29
  -8  -3   6    0.98    0.62
   8   2  -6    3.54    2.46
   8   2  -6    8.15    2.81
   8   2  -6    5.03    1.51
   8   2  -6   -1.43    3.49
  -8  -2  -6    7.37    2.94
   8   2   6    8.33    3.74
  -8  -2   6    5.43    1.52
   8   2   6    7.28    2.61
  -8  -2   6    5.22    2.94
  -8  -2   6    3.70    2.85
  -8  -2   6    7.27    2.81
   8   1  -6   -7.24    2.71
   8   1  -6   -0.59    0.60
  -8  -1  -6    1.23    2.09
   8   1  -6   -1.25    1.79
  -8  -1   6   -0.77    2.51
   8   1   6   -5.54    3.89
   8   1   6    0.10    1.75
  -8  -1   6   -3.16    2.83
  -8  -1   6   -2.23    2.77
   8   0  -6   -7.49    3.54
   8   0  -6    8.18    1.53
  -8   0  -6    9.39    2.75
   8   0  -6    4.55    2.93
   8   0   6    3.82    2.72
  -8   0   6    2.01    3.95
  -8   0   6    4.22    3.46
   8  -1  -6   -4.20    3.11
  -8   1  -6   -1.08    2.52
   8  -1  -6    0.23    0.78
   8  -1   6   -3.20    2.56
  -8   1   6   -1.48    3.00
  -8   2  -6    2.26    3.89
  -8   2  -6    7.41    3.78
   8  -2  -6   13.96    3.97
   8  -2   6   12.81    4.13
   8  -2   6    8.26    3.72
  -8   3  -6    1.96    3.55
   8  -3   6    1.69    3.21
   8  -3   6    2.52    2.95
  -8   4  -6    0.76    3.56
   8  -4   6    0.50    3.36
   8  -4   6    0.67    4.39
  -8   5  -6    3.90    3.68
   8  -5   6    4.40    3.74
   8  -5   6    1.91    5.11
   8  -6   6   -0.29    3.70
   9   7  -6    6.66    5.12
   9   7  -6    9.24    3.11
   9   6  -6   12.31    5.99
   9   6  -6    6.83    3.82
   9   6  -6   10.72    3.15
  -9  -6   6   13.36    2.83
   9   5  -6    4.47    2.07
   9   5  -6    4.08    1.47
   9   5  -6    5.36    4.74
   9   5  -6    1.32    2.53
  -9  -5   6    4.30    3.01
  -9  -5   6    3.83    1.18
   9   4  -6    0.88    1.76
   9   4  -6    4.53    4.59
   9   4  -6    0.11    0.91
   9   4  -6    0.76    1.99
  -9  -4   6   -0.37    2.23
  -9  -4   6    1.42    2.35
  -9  -4   6    1.98    0.73
   9   3  -6    1.02    1.75
   9   3  -6   -0.75    2.12
   9   3  -6   -2.64    3.51
  -9  -3  -6    0.33    2.95
   9   3  -6    0.78    0.72
  -9  -3   6    0.39    2.20
  -9  -3   6    0.85    0.63
   9   3   6    1.58    2.44
  -9  -3   6   -0.40    2.34
   9   2  -6    3.87    2.40
  -9  -2  -6    3.42    2.88
   9   2  -6    1.75    3.18
   9   2  -6    2.43    2.90
   9   2  -6    5.51    1.33
  -9  -2   6    4.40    3.03
  -9  -2   6    5.17    2.83
  -9  -2   6    6.42    1.36
   9   2   6    5.41    2.52
  -9  -2   6    2.54    2.99
   9   1  -6    0.81    0.60
   9   1  -6    0.75    2.87
  -9  -1  -6   -0.92    2.42
   9   1  -6    0.28    2.55
   9   1  -6    0.52    1.90
  -9  -1   6   -0.06    2.70
  -9  -1   6    2.82    3.06
   9   1   6    1.00    1.99
   9   1   6    0.72    4.31
  -9  -1   6   -0.19    2.98
   9   0  -6   -2.41    3.28
   9   0  -6    0.08    2.01
   9   0  -6    0.36    0.64
   9   0  -6   -2.46    3.67
  -9   0  -6   -1.71    2.52
  -9   0   6    1.81    3.00
   9   0   6    3.31    4.62
   9   0   6    0.61    2.25
  -9   0   6    0.64    3.06
   9  -1  -6    1.09    0.83
   9  -1  -6   -0.67    4.62
   9  -1  -6    0.79    3.38
  -9   1  -6   -0.50    2.89
  -9   1   6    0.12    3.17
   9  -1   6    3.52    4.31
   9  -1   6    3.62    2.78
  -9   2  -6    4.88    3.67
   9  -2  -6    4.60    3.83
  -9   2  -6    4.75    3.91
   9  -2  -6    4.13    1.50
   9  -2   6    1.94    3.38
  -9   2   6    1.44    3.65
   9  -2   6    2.72    3.72
  -9   3  -6    2.13    4.40
  -9   3  -6    2.64    3.91
   9  -3   6   -1.30    3.58
   9  -3   6   -4.80    3.36
  -9   4  -6   -1.82    3.87
   9  -4   6    3.88    4.85
   9  -4   6   -0.65    3.91
  -9   5  -6    2.18    4.17
   9  -5   6   -2.43    5.65
   9  -5   6    4.13    4.00
  -9   6  -6   10.04    5.31
   9  -6   6   13.98    5.27
  10   8  -6   11.16    3.85
  10   7  -6    0.66    1.86
  10   7  -6    0.48    4.92
  10   6  -6    6.39    1.87
  10   6  -6    3.98    2.46
  10   6  -6   -0.42    5.69
 -10  -6   6   -2.62    3.39
 -10  -6   6    7.78    1.50
  10   5  -6   20.60    6.28
  10   5  -6   16.59    6.25
  10   5  -6   21.77    4.98
  10   5  -6    8.92    8.41
 -10  -5   6   20.47    4.73
 -10  -5   6   18.85    6.57
  10   4  -6    0.54    0.99
  10   4  -6   -0.67    2.27
  10   4  -6    1.56    1.99
 -10  -4  -6    6.87    3.41
  10   4  -6   -2.22    5.13
 -10  -4   6    1.13    2.50
 -10  -4   6    0.64    0.76
  10   4   6    0.07    3.84
 -10  -4   6   -1.18    2.72
  10   3  -6   18.60    4.92
  10   3  -6   17.47    5.97
 -10  -3  -6   21.09    6.75
  10   3  -6    8.44    7.55
  10   3  -6   18.04    6.53
 -10  -3   6   21.27    4.95
 -10  -3   6   27.46    6.10
 -10  -3   6   23.56    6.14
  10   3   6   17.56    6.18
 -10  -3   6   15.96    7.24
  10   2  -6    2.27    0.87
  10   2  -6    0.30    2.84
  10   2  -6    2.65    2.06
  10   2  -6    4.04    2.96
 -10  -2  -6    4.98    2.98
 -10  -2   6    1.26    3.34
 -10  -2   6    5.88    3.01
 -10  -2   6    1.18    2.81
 -10  -2   6    1.75    0.89
  10   2   6    0.34    2.39
  10   1  -6    2.81    0.82
 -10  -1  -6    2.67    2.77
  10   1  -6    2.15    3.31
  10   1  -6    2.14    2.19
  10   1  -6    1.20    3.01
 -10  -1   6    1.93    3.42
 -10  -1   6    2.11    3.55
  10   1   6    0.06    2.43
  10   1   6    1.23    5.25
 -10  -1   6    2.37    3.23
  10   0  -6   10.12    4.00
 -10   0  -6   13.05    4.11
  10   0  -6   10.82    5.34
  10   0  -6   11.76    2.51
  10   0  -6   14.33    4.63
  10   0   6    0.08    6.17
  10   0   6    4.81    3.82
 -10   0   6    8.61    4.32
 -10   0   6    5.48    5.00
 -10   1  -6    2.50    3.44
  10  -1  -6    7.18    5.05
  10  -1  -6    1.72    0.95
 -10   1  -6    7.29    4.57
  10  -1  -6    0.58    4.01
  10  -1   6   -0.16    3.26
 -10   1   6    3.07    3.55
  10  -1   6    0.37    4.77
 -10   2  -6    1.26    4.51
  10  -2  -6    3.12    5.38
  10  -2  -6    2.78    1.21
 -10   2  -6    4.15    4.05
  10  -2  -6    2.26    4.16
 -10   2   6    0.77    3.80
  10  -2   6    0.79    3.61
  10  -2   6   -4.36    3.78
 -10   3  -6   22.86    7.25
 -10   3  -6   35.37    8.00
  10  -3   6   10.02    7.83
  10  -3   6   23.29    7.14
 -10   4  -6    3.32    4.67
  10  -4   6    1.56    4.33
  10  -4   6    3.80    5.07
 -10   5  -6   16.98    6.64
  10  -5   6   23.30    6.77
  10  -5   6    9.76    8.50
 -10   6  -6    0.96    4.90
  10  -6   6  -15.69    5.04
  11   8  -6   -0.66    2.05
  11   7  -6    3.66    2.55
  11   7  -6    6.29    5.78
  11   6  -6    1.92    1.74
  11   6  -6    1.58    2.41
  11   6  -6    2.99    5.84
 -11  -6   6    4.97    1.34
 -11  -6   6    9.19    3.77
  11   5  -6   -1.82    6.22
  11   5  -6    5.09    2.91
  11   5  -6    1.94    1.44
  11   5  -6    2.59    2.23
 -11  -5   6    2.78    1.14
 -11  -5   6    3.07    3.41
 -11  -5   6    1.35    2.86
 -11  -4  -6    3.21    4.46
  11   4  -6   -1.40    3.09
  11   4  -6   -3.75    5.84
  11   4  -6    6.16    1.74
  11   4  -6    5.41    2.78
 -11  -4   6    9.54    1.56
  11   4   6    0.08    4.90
 -11  -4   6    5.62    3.37
  11   4   6   -0.10    3.68
 -11  -4   6    8.50    3.37
  11   3  -6    6.14    2.81
 -11  -3  -6    2.72    4.09
  11   3  -6    2.76    3.14
  11   3  -6   -1.47    4.46
  11   3  -6    6.37    1.56
 -11  -3   6    9.23    3.44
  11   3   6   -6.27    3.51
 -11  -3   6    7.88    1.50
 -11  -3   6    3.80    3.41
 -11  -3   6    3.82    4.11
  11   2  -6    1.72    2.10
 -11  -2  -6    3.27    3.37
  11   2  -6    2.40    3.36
  11   2  -6    1.38    0.78
  11   2  -6   -0.39    3.35
 -11  -2   6    1.04    0.79
 -11  -2   6    2.38    2.97
  11   2   6   -1.92    2.51
 -11  -2   6   -3.07    3.38
 -11  -2   6    1.66    3.78
  11   1  -6   39.75   11.27
 -11  -1  -6   62.99   11.30
  11   1  -6   34.55   12.67
  11   1  -6   17.60   13.16
  11   1  -6   36.77    9.45
 -11  -1   6   43.33   10.74
 -11  -1   6   40.98   11.47
 -11  -1   6   35.48   15.00
  11   1   6   37.24   10.97
  11   1   6   13.23   14.65
  11   0  -6    0.49    4.02
  11   0  -6    0.96    4.52
 -11   0  -6   -6.14    3.53
 -11   0   6    2.48    3.86
  11   0   6   -0.71    3.13
  11   0   6    0.09    5.89
 -11   0   6   -0.26    3.46
 -11   0   6   -2.57    4.71
  11  -1  -6   33.52   14.66
  11  -1  -6   47.80   12.40
 -11   1  -6   48.52   12.65
 -11   1  -6   63.01   12.54
 -11   1   6   42.11   11.78
  11  -1   6   21.92   15.00
  11  -1   6   37.13   11.95
  11  -2  -6   -2.27    5.77
 -11   2  -6    4.32    5.30
  11  -2  -6    0.58    4.48
 -11   2  -6   -2.63    4.64
  11  -2   6    0.10    4.06
 -11   2   6   -2.13    4.06
  11  -2   6    2.87    4.30
 -11   3  -6   -5.02    5.94
 -11   3  -6   -5.54    6.08
  11  -3  -6    7.22    4.86
 -11   4  -6   -1.32    6.71
 -11   4  -6   -0.88    5.72
 -11   5  -6    4.89    5.07
  11  -5   6   -8.52    6.70
  11  -5   6   -4.39    4.99
 -11   6  -6    5.57    5.38
  11  -6   6    1.39    6.99
  11  -6   6   -4.03    4.99
  11  -7   6    0.64    5.17
  12   8  -6    1.04    2.44
  12   7  -6    2.81    6.36
  12   7  -6   -1.25    2.24
  12   6  -6    1.13    6.50
  12   6  -6    3.16    3.39
 -12  -6   6    5.76    3.06
 -12  -6   6    2.13    1.32
 -12  -6   6   -0.95    4.13
  12   5  -6    5.38    3.11
  12   5  -6   -4.87    5.96
 -12  -5   6   -1.12    3.48
 -12  -5   6    1.24    0.97
  12   4  -6    7.76    3.32
  12   4  -6    2.71    5.84
 -12  -4  -6    6.23    4.69
 -12  -4   6    9.19    3.82
  12   4   6    6.02    3.91
  12   4   6   -0.09    4.89
  12   3  -6    3.82    4.75
  12   3  -6    3.53    3.13
 -12  -3  -6    5.11    4.15
 -12  -3   6   -1.95    4.44
  12   3   6   -2.68    5.88
 -12  -3   6   -0.28    3.53
  12   3   6    0.09    3.13
  12   2  -6    6.74    7.50
 -12  -2  -6   25.12    6.86
  12   2  -6   32.44    6.68
  12   2   6   12.36    6.28
 -12  -2   6   18.97    6.95
 -12  -2   6   19.72    6.72
  12   1  -6   -0.77    4.13
  12   1  -6    5.00    4.45
 -12  -1  -6   -2.63    3.85
 -12  -1   6    0.45    4.24
  12   1   6    1.24    2.98
 -12  -1   6    2.15    4.40
  12   0  -6   26.19   11.12
  12   0  -6   40.68    9.50
 -12   0  -6   22.99    9.31
  12   0   6   25.43    8.94
 -12   0   6   41.34   10.10
 -12   0   6   24.56    8.91
  12   0   6   10.75   12.50
 -12   1  -6    5.76    6.32
 -12   1  -6   -6.89    4.70
  12  -1  -6   -3.44    6.17
  12  -1  -6   -2.12    5.03
 -12   1   6   -0.47    4.53
  12  -2  -6   16.36    9.63
 -12   2  -6   37.31    8.48
  12  -2  -6   37.88    7.99
 -12   2  -6   30.75    8.67
  12  -2   6   18.45    7.84
 -12   2   6   16.79    7.54
  12  -2   6    3.00    8.58
 -12   3  -6   -0.65    6.07
 -12   3  -6   -2.08    6.21
  12  -3  -6    4.47    5.33
  12  -3   6    3.43    5.43
 -12   3   6    0.59    4.66
  12  -3   6    4.64    5.82
 -12   4  -6    1.56    6.10
 -12   4  -6   10.39    7.53
  12  -4   6    3.03    7.09
  12  -4   6    8.16    5.49
  12  -5   6   -2.47    5.30
  13   6  -6   16.89    9.98
  13   6  -6   17.51   13.54
 -13  -6   6   51.53   10.94
  13   5  -6    3.15    3.98
  13   5  -6  -17.77    7.38
 -13  -5   6    4.86    4.58
  13   4  -6   -2.00    3.16
  13   4  -6   -4.11    5.75
 -13  -4   6    1.78    3.67
  13   4   6    3.85    6.34
 -13  -4   6    5.24    5.07
  13   3  -6    5.53    5.25
  13   3  -6    4.28    3.63
 -13  -3   6    5.51    4.14
 -13  -3   6    1.38    5.05
  13   2  -6    4.05    4.21
  13   2  -6    0.10    4.19
 -13  -2   6    0.66    4.24
 -13  -2   6    6.83    5.25
  13   1  -6   17.76    6.58
  13   1  -6   11.55    7.69
 -13  -1   6   10.72    6.65
 -13  -1   6   19.44    6.91
  13   0  -6   -2.40    5.59
  13   0  -6   -0.24    4.88
 -13   0   6    4.10    5.80
 -13   0   6   -0.32    4.84
  13  -1  -6   20.34    9.35
  13  -1  -6   14.85    7.71
 -13   1   6   20.49    8.87
 -13   1   6   20.30    7.12
  13  -2  -6    1.51    5.86
  13  -2  -6    2.28    6.95
 -13   2   6   15.17    5.30
  13  -3  -6    2.32    5.82
  13  -4   6   -2.12    7.65
 -13   6  -6   19.99   11.99
  13  -6   6   61.48   12.11
  13  -6   6   36.65   14.60
  13  -7   6   -6.38    6.37
 -14  -5  -6    0.20    5.38
  14   5   6    0.11    6.91
 -14  -4  -6    0.37    5.54
  14   4  -6   -5.26    3.79
  14   4   6   -2.11    7.48
 -14  -4   6    0.12    4.15
  14   4   6   -5.35    4.08
  14   3  -6   32.41    7.27
 -14  -3  -6    0.97    8.05
  14   3   6    4.91    6.65
  14   3   6    6.64   10.68
 -14  -3   6    3.24    7.33
 -14  -2  -6   -0.14    4.74
  14   2  -6   -5.24    4.71
 -14  -2   6    1.73    4.91
  14   2   6   -2.89    3.76
 -14  -1  -6   -4.48    5.18
  14   1   6   -6.12    4.09
 -14   0  -6    5.24    8.64
 -14   0  -6   21.44    6.13
  14   0   6    2.59    5.32
 -14   1  -6  -27.24    9.26
 -14   1  -6    6.45    6.34
  14  -1   6  -11.93    6.57
  14  -1   6  -11.67    5.65
  14  -2  -6   -4.10    7.15
 -14   2  -6   -6.48    8.63
 -14   2   6    8.07    5.46
  14  -3  -6   92.71   18.90
  14  -3   6   89.03   20.14
  14  -3   6   65.05   18.55
 -14   4  -6    4.92    8.42
 -14   4  -6    0.25    7.42
  14  -4   6   -5.06    6.49
  14  -4   6  -19.35    9.15
 -14   5  -6    1.27    7.17
 -14   5  -6   18.42    9.41
  14  -5   6    5.53    6.76
  14  -5   6    9.58    9.32
 -14   6  -6    2.67    7.21
  14  -6   6   10.07    6.80
  14  -6   6    2.71    8.83
  14  -7   6   12.06    7.59
 -15  -6   6   -1.01    5.31
 -15  -5  -6   -0.42    5.78
  15   5  -6   -2.10    7.43
  15   5  -6    3.37    3.76
 -15  -5   6    1.73    6.46
  15   5   6   -6.92    7.78
 -15  -5   6    3.59    4.73
  15   4  -6    0.77    4.09
  15   4  -6    6.79    6.42
 -15  -4  -6    0.20    6.00
 -15  -4   6    1.57    6.46
  15   4   6    0.24    8.27
  15   4   6   16.09    4.70
 -15  -4   6    9.70    4.89
  15   3  -6    2.96    3.95
  15   3  -6   -4.95    5.16
 -15  -3  -6   -1.26    5.54
  15   3   6    0.12    8.35
  15   3   6    2.70    4.14
 -15  -3   6   -0.26    4.74
 -15  -3   6    3.16    6.53
  15   2  -6   -0.87    5.46
 -15  -2  -6    0.16    5.40
  15   2  -6   -2.92    4.93
  15   2   6    0.12    8.50
 -15  -2   6   -8.86    6.34
 -15  -2   6    1.24    5.04
  15   2   6    4.53    4.03
 -15  -1  -6    0.16    5.49
  15   1  -6    9.76    5.75
  15   1  -6   -6.96    6.53
 -15  -1   6    1.66    5.81
  15   1   6   -1.52    4.23
 -15  -1   6   -1.14    6.11
  15   0  -6    0.56    6.14
 -15   0  -6    2.68    5.95
 -15   0  -6   -0.25    8.96
  15   0  -6  -21.07    7.49
 -15   0   6   -1.88    6.69
  15   0   6    6.04    5.01
 -15   0   6   -1.37    5.88
 -15   1  -6   -0.18    6.37
  15  -1  -6    3.21    6.37
 -15   1  -6   -0.51    9.41
  15  -1  -6   -7.51    7.91
  15  -1   6   -4.57    6.77
 -15   1   6   13.35    5.99
 -15   1   6    1.57    7.83
  15  -1   6   -4.04    5.56
 -15   2  -6   -1.37    7.12
  15  -2  -6   -6.19    7.07
 -15   2  -6    5.69    9.13
  15  -2  -6    2.20    7.85
  15  -2   6   16.64    6.52
  15  -2   6   -6.41    6.99
 -15   2   6   -1.97    6.05
 -15   2   6   -0.22    8.75
  15  -3  -6    3.74    7.11
 -15   3  -6   -5.92    8.09
 -15   3  -6   -7.34    8.79
  15  -3   6  -11.93    8.25
 -15   3   6    6.43    5.92
  15  -3   6    8.92    6.60
 -15   4  -6    6.36    8.45
 -15   4  -6   -6.43    9.22
  15  -4   6   -3.68    9.60
  15  -4   6   -0.48    6.76
 -15   5  -6    8.04    9.82
 -15   5  -6    3.68    7.85
  15  -5   6   -3.86   10.03
  15  -5   6    3.15    6.86
 -15   6  -6   -0.29    8.00
 -15   6  -6    6.17   10.31
  15  -6   6    8.69    7.31
  15  -6   6   13.42    9.96
 -15   7  -6   -3.12    7.56
  15  -7   6   11.66    7.29
 -16  -6   6    4.01    7.13
 -16  -4  -6   -0.22    6.41
  16   4   6  -12.67    5.12
 -16  -4   6   -7.20    7.59
  16   4   6   -2.38    9.01
  16   3  -6   -4.19    5.67
  16   3  -6    4.58    4.48
 -16  -3  -6   -0.20    6.32
  16   3   6   10.87    8.90
  16   3   6    0.13    4.57
 -16  -3   6   -0.63    7.30
 -16  -3   6    7.65    5.26
  16   2  -6   -1.11    5.16
  16   2  -6    0.69    6.87
 -16  -2  -6   -1.11    6.08
  16   2   6  -19.43    9.08
  16   2   6   -2.21    4.43
 -16  -2   6    2.90    6.87
 -16  -2   6   -2.00    5.81
  16   1  -6    7.56    7.67
 -16  -1  -6   -1.26    6.24
  16   1  -6    0.14    6.13
 -16  -1   6   -0.17    6.33
 -16  -1   6   11.15    6.88
  16   1   6    0.12    4.58
 -16   0  -6    0.38    6.71
  16   0  -6    3.08    8.05
  16   0  -6   -1.85    6.60
  16   0   6    1.42    4.91
 -16   0   6    0.37    7.09
 -16   0   6    3.71    6.64
 -16   1  -6    1.23    7.52
  16  -1  -6    3.31    7.18
  16  -1  -6    2.41    8.55
 -16   1  -6   11.06   10.57
  16  -1   6    1.16    5.79
  16  -1   6    4.01    6.91
 -16   1   6    0.84    8.23
 -16   1   6   11.31    6.77
 -16   2  -6   11.36   10.03
  16  -2  -6   -5.21    8.26
 -16   2  -6   -1.09    7.80
  16  -2  -6    3.69    7.73
 -16   2   6    1.44    9.43
  16  -2   6   -3.99    8.16
  16  -2   6   -5.95    6.80
 -16   2   6    1.67    6.53
 -16   3  -6   -0.93    8.54
  16  -3  -6   -3.14    7.70
 -16   3  -6    0.91    9.60
  16  -3   6   11.59    7.16
 -16   3   6   -3.08    6.72
  16  -3   6  -10.03    9.68
 -16   4  -6    0.31    9.41
 -16   4  -6   -7.90    9.87
  16  -4   6    1.93    7.14
  16  -4   6   -3.40   10.60
 -16   5  -6    9.49   17.34
 -16   5  -6    4.78   20.76
  16  -5   6   -5.56   16.14
  16  -5   6   25.04   23.49
 -16   6  -6    4.77   10.83
 -16   6  -6   -0.33    8.75
  16  -6   6    4.21    7.66
  16  -6   6   -3.64   10.59
 -16   7  -6   -5.83    8.47
 -16   7  -6  -19.73   11.14
  16  -7   6   16.02    8.03
 -17  -5  -6   -0.25    7.18
 -17  -5   6   -6.23    7.93
 -17  -5   6    6.99    5.60
  17   5   6    0.14   10.35
 -17  -4  -6   -0.24    7.15
  17   4  -6   -4.40    6.28
  17   4  -6    0.71    4.62
  17   4   6    5.81    9.71
  17   4   6   -3.32    5.36
 -17  -4   6    8.78    8.04
 -17  -4   6    3.31    5.51
  17   3  -6   -2.79    4.67
  17   3  -6   -9.79    6.72
 -17  -3  -6    0.22    7.20
 -17  -3   6   -2.10    7.99
  17   3   6    3.15    5.06
 -17  -3   6    1.57    5.60
  17   3   6   -1.58    9.78
  17   2  -6  -13.97    8.22
  17   2  -6    1.81    5.38
 -17  -2  -6    4.53   10.47
 -17  -2  -6   -0.83    7.03
  17   2   6    5.86    4.86
 -17  -2   6   -0.69    7.74
  17   2   6    0.41    9.29
 -17  -2   6   12.44    6.25
 -17  -1  -6   -2.44    6.94
  17   1  -6    6.58    8.46
  17   1  -6    1.50    6.45
 -17  -1   6  -14.71    7.23
  17   1   6   -7.42    5.24
  17   1   6   -6.08    9.19
 -17  -1   6   -7.58    7.58
  17   0  -6   -4.27    7.67
  17   0  -6  -26.46    9.80
 -17   0  -6    2.33    7.92
  17   0   6  -15.44    6.12
 -17   0   6  -11.21    8.51
 -17   0   6   10.58    7.58
  17  -1  -6   10.40    7.82
 -17   1  -6   -1.33   11.17
 -17   1  -6    0.23    8.14
  17  -1  -6  -11.04    9.21
  17  -1   6   -1.23    6.15
 -17   1   6   -0.25    7.21
 -17   1   6    2.92    8.97
  17  -2  -6   16.35    9.23
 -17   2  -6   -0.24    8.93
  17  -2  -6   -8.35    8.40
  17  -2   6    4.16    9.15
  17  -2   6   -1.73    7.04
 -17   2   6   13.32    7.68
 -17   2   6   14.15   10.22
  17  -3  -6    9.98    8.60
 -17   3  -6   -7.13    9.65
 -17   3  -6   15.34   11.04
  17  -3   6   12.81    7.72
 -17   3   6   -0.28   11.28
 -17   3   6  -13.62    7.63
  17  -3   6    0.17   10.61
 -17   4  -6  -15.23   10.43
 -17   4  -6  -10.34   10.17
  17  -4   6    4.68   11.79
  17  -4   6   14.65    7.98
 -17   5  -6   10.50    9.93
 -17   5  -6  -15.26   10.96
  17  -5   6   -0.20   11.83
  17  -5   6    0.19    7.94
 -17   6  -6    0.73    9.62
 -17   6  -6   14.46   11.72
  17  -6   6   -0.99    7.88
  17  -6   6    4.22   11.76
 -17   7  -6    5.60   11.98
  17  -7   6   -9.14    8.40
 -18  -5  -6    9.77    9.22
  18   4  -6    6.28    6.93
 -18  -4  -6   -0.27    7.87
  18   4  -6   -5.14    4.86
 -18  -4   6   -6.94    9.04
 -18  -4   6    7.31    6.33
  18   4   6   -7.73   10.45
  18   4   6   -3.14    5.87
  18   3  -6  -12.13    8.41
  18   3  -6   -2.81    5.04
 -18  -3  -6   -0.25    8.21
  18   3   6    5.56    5.59
 -18  -3   6    4.71    6.31
  18   3   6    5.48   10.42
 -18  -3   6    6.90    8.87
 -18  -2  -6   -3.46   11.36
 -18  -2  -6    0.24    7.69
  18   2  -6    8.34    6.10
  18   2  -6    1.70    8.70
 -18  -2   6    1.30    8.56
  18   2   6    2.43    9.79
 -18  -2   6   -0.19    7.07
  18   2   6   13.97    5.88
  18   1  -6    7.63    7.02
 -18  -1  -6    0.33   11.61
  18   1  -6    7.26   10.17
 -18  -1  -6   -1.41    7.95
  18   1   6   -2.90    9.12
  18   1   6  -10.68    5.90
 -18  -1   6    8.54    7.79
 -18  -1   6   -8.12    8.24
  18   0  -6   -0.92    7.72
  18   0  -6   14.48   10.28
 -18   0  -6    0.48    8.47
  18   0   6    4.80    6.13
 -18   0   6    0.22    8.56
 -18   0   6   -5.11    8.29
  18  -1  -6   -0.19    8.14
  18  -1  -6   -4.74   10.07
 -18   1  -6   -0.50    9.15
 -18   1   6    0.82    7.86
 -18   1   6    1.72    9.44
  18  -1   6   14.69    6.74
 -18   2  -6    9.01   12.19
  18  -2  -6   25.21    8.91
 -18   2  -6    1.61    9.69
  18  -2  -6   -9.92   10.17
 -18   2   6   -4.60    7.92
  18  -2   6   -3.44    7.37
  18  -2   6    0.34   10.58
 -18   2   6   15.29   10.53
  18  -3  -6   -7.31    9.14
 -18   3  -6    1.68   11.00
 -18   3  -6    3.41   11.92
  18  -3   6  -10.22   12.72
  18  -3   6   -0.20    8.30
 -18   3   6   -7.81   11.89
 -18   3   6    2.42    7.58
 -18   4  -6   -5.04   11.57
 -18   4  -6    2.34   10.94
  18  -4   6  -20.35   13.25
  18  -4   6    5.43    8.69
 -18   5  -6    0.79   11.90
 -18   5  -6    1.81   12.08
 -18   6  -6   -1.57   12.81
 -18   6  -6  -18.58   11.93
 -18   7  -6    6.54   12.84
  18  -7   6  -16.85    9.51
 -19  -5  -6   -2.17    8.52
  19   5   6    6.81   11.05
 -19  -4  -6    7.91    9.47
 -19  -4   6    7.50    7.20
 -19  -4   6   -8.53    9.86
  19   4   6   21.11   11.16
  19   4   6   -0.58    6.76
 -19  -3  -6    4.35   12.28
  19   3  -6    0.80    9.82
  19   3  -6   -2.86    5.61
 -19  -3  -6   10.84    9.26
  19   3   6    8.92    6.78
  19   3   6   -3.04   11.01
 -19  -3   6    1.16    7.14
 -19  -3   6    1.14    9.44
  19   2  -6   -0.91    6.30
 -19  -2  -6   -1.41   12.59
  19   2  -6  -18.20   10.39
 -19  -2  -6    0.55    8.98
  19   2   6  -19.15   10.11
  19   2   6   -1.74    6.51
 -19  -2   6    8.83    7.81
 -19  -2   6   -7.49    9.66
 -19  -1  -6   -0.27    9.25
 -19  -1  -6    0.37   13.40
  19   1  -6   -9.21    7.77
 -19  -1   6   -7.35    9.28
 -19  -1   6  -12.85    9.06
  19   1   6  -11.18    7.42
  19   0  -6   16.29    8.68
 -19   0  -6    1.61    9.82
  19   0   6  -18.55    7.46
 -19   0   6    2.42    9.37
 -19   0   6   -1.19    9.19
  19  -1  -6  -29.16   12.24
  19  -1  -6  -24.25    9.69
 -19   1  -6   -0.85   10.56
 -19   1   6   -2.39   10.72
 -19   1   6   10.98    9.17
  19  -1   6  -17.78    7.99
 -19   2  -6    0.30   11.06
 -19   2  -6   17.47   13.68
  19  -2  -6   -6.03   11.30
  19  -2  -6   -9.07    9.34
  19  -2   6  -11.43    8.26
 -19   2   6    8.53    8.76
 -19   2   6    2.87   11.20
 -19   3  -6    1.54   11.74
 -19   3  -6    9.40   13.38
  19  -3  -6   16.21    9.90
 -19   3   6  -16.41   12.71
  19  -3   6   -7.66   14.36
  19  -3   6    0.42    8.70
 -19   4  -6    0.32   12.15
 -19   4  -6   13.37   13.17
  19  -4   6   -5.14   14.89
  19  -4   6   -5.60    9.29
 -19   5  -6    0.33   12.83
 -19   5  -6   18.07   12.80
  19  -5   6   -0.23    9.37
  19  -5   6    3.99   14.64
 -19   6  -6    5.36   13.06
 -19   6  -6  -16.72   12.32
  19  -6   6    8.98    9.76
  20   3  -6   -4.71    6.16
  20   3  -6   -9.01   11.30
 -20  -3   6   -6.34   11.03
 -20  -3   6   -2.41    7.81
  20   2  -6    8.56    7.21
  20   2  -6   16.63   11.96
 -20  -2   6    2.55   10.52
 -20  -2   6    1.58    8.73
 -20  -1  -6    0.60   10.16
  20   1  -6    3.83    7.45
  20   1  -6   -0.20   13.00
  20   1   6  -14.52    7.56
 -20  -1   6    7.71    9.22
 -20  -1   6   13.65   10.13
  20   0  -6    2.10    8.84
  20   0  -6   -3.67   13.25
 -20   0  -6   -1.21   10.79
 -20   0   6    8.96    9.88
  20   0   6  -25.98    8.24
 -20   0   6  -11.48   10.30
  20  -1  -6    0.41   12.08
 -20   1  -6   -0.63   11.44
  20  -1  -6   -5.98    9.66
  20  -1   6    3.61    8.18
 -20   1   6  -10.04   11.15
 -20   1   6   -8.79    9.90
  20  -2  -6   14.42   10.60
 -20   2   6   11.91   10.00
 -20   2   6    4.93   12.41
  20  -3  -6  -10.74   10.75
 -20   3   6    4.35   13.34
  21   2  -6   17.32    8.96
   0   0  -7   -0.17    0.70
   0   0  -7    0.04    0.40
   0   0   7   -0.11    0.88
   1   0  -7    3.10    1.79
   0   1  -7    6.56    1.45
   1   0  -7    6.96    1.49
   0   1  -7    6.16    1.77
  -1   0  -7    3.85    1.51
   0  -1   7    5.81    1.89
  -1   0   7    5.15    2.03
   1   1  -7    0.07    0.68
   1   1  -7   -0.17    0.33
  -1   1  -7   -0.04    0.25
  -1   1  -7    0.17    0.38
  -1   1  -7   -0.21    0.63
  -1  -1   7   -0.23    0.86
   1  -1   7    0.03    0.79
   1  -1   7    0.18    0.80
  -1   2  -7    4.41    1.37
  -1   2  -7    3.31    1.47
   2   1  -7    4.84    1.56
  -1   2  -7    3.11    1.30
  -1   2  -7    4.68    1.12
   1  -2   7    3.85    1.40
   1  -2   7    2.64    1.66
  -2  -1   7    5.40    1.76
   1  -2   7    3.99    1.51
   2   0  -7    0.29    0.85
  -2   0  -7   -0.10    0.37
   0   2  -7   -0.30    0.23
   0   2  -7    0.34    0.60
   2   0   7   -0.11    0.80
  -2   0   7    0.53    1.16
   0  -2   7   -0.26    0.68
  -2   1  -7    5.37    1.64
  -2   1  -7    6.23    1.65
  -2   1  -7    4.81    1.36
   1   2  -7    5.61    1.63
   1   2  -7    6.02    1.29
   2  -1   7    3.36    1.78
   2  -1   7    4.45    2.12
  -1  -2   7    4.90    1.68
   2  -1   7    4.68    1.71
  -2   2  -7   -0.04    0.69
   2   2  -7   -0.10    0.77
  -2   2  -7    0.17    0.20
  -2   2  -7    0.03    0.92
  -2   2  -7    0.05    0.62
  -2  -2   7    0.13    0.83
   2  -2   7    0.07    0.80
   2  -2   7    0.30    1.22
   2  -2   7   -0.13    0.67
   3   2  -7   80.93   22.11
  -2   3  -7   73.36   19.40
   3   2  -7   45.05   26.62
  -2   3  -7   78.74   22.00
   3   2  -7   77.47   21.84
  -2   3  -7   76.18   19.62
   2  -3   7   70.47   21.80
  -3  -2   7   89.66   19.64
  -3  -2   7   59.58   22.89
   2  -3   7   75.97   18.48
   2  -3   7   68.78   25.33
  -3  -2   7   78.41   21.28
   3   1  -7    7.63    3.06
   3   1  -7    7.66    2.98
   3   1  -7   11.33    2.41
  -1   3  -7    9.41    2.92
  -1   3  -7    8.83    2.47
  -3  -1   7    7.63    3.35
   1  -3   7   10.43    2.36
   1  -3   7    8.51    3.04
  -3   0  -7   34.61   12.91
   3   0  -7   49.14   10.47
   3   0  -7   47.06   12.49
   0   3  -7   36.23   12.07
   0   3  -7   44.40   10.43
   0  -3   7   38.89   10.11
   3   0   7   50.99   12.88
  -3   0   7   30.22   13.66
   3   0   7   36.17   13.05
  -3   1  -7   11.94    3.11
  -3   1  -7   10.58    3.13
   1   3  -7   10.49    3.09
   1   3  -7   11.01    2.61
  -3   1  -7   11.16    2.76
   3  -1   7    9.47    3.21
   3  -1   7    7.88    3.96
  -1  -3   7   10.77    2.54
   3  -1   7    9.05    3.35
  -3   2  -7   68.83   20.32
   2   3  -7   75.45   21.32
  -3   2  -7   78.79   18.90
   3  -2   7   68.12   20.11
   3  -2   7   78.87   21.98
   3  -2   7   78.00   18.09
   3  -2   7   52.95   23.85
  -3   3  -7   -0.09    0.37
  -3   3  -7    0.02    0.62
  -3   3  -7    0.11    1.61
   3   3  -7   -0.12    1.23
  -3  -3   7    0.32    0.59
   3  -3   7   -0.05    0.24
   3  -3   7   -0.18    2.05
   3  -3   7   -0.37    1.51
   4   3  -7   24.42   11.72
  -3   4  -7   42.38   10.53
  -3   4  -7   36.33    9.44
   4   3  -7   34.08   10.89
   4   3  -7   37.27    8.61
  -4  -3   7   35.00    8.49
  -4  -3   7   30.55   10.21
   3  -4   7   27.60   10.61
  -4  -3   7   43.94   10.83
   4   2  -7    0.34    1.24
  -2   4  -7    0.02    0.65
  -2   4  -7    0.48    0.49
   4   2  -7    0.48    1.06
   2  -4   7    0.21    0.28
  -4  -2   7    0.41    1.30
  -4  -2   7    0.51    1.10
  -1   4  -7   11.38    2.52
  -4  -1  -7    3.18    2.87
   4   1  -7   10.37    3.95
   4   1  -7    7.64    2.70
  -1   4  -7    9.39    2.19
   1  -4   7    7.86    2.01
  -4  -1   7    5.89    2.64
   4   0  -7   -0.11    1.23
  -4   0  -7    0.37    1.19
   0   4  -7   -0.08    0.66
  -4   0   7   -0.36    1.75
   4   0   7    0.47    1.81
   4   0   7   -0.06    1.11
  -4   1  -7    7.25    2.52
  -4   1  -7    9.05    2.08
   4  -1   7    6.11    2.53
   4  -1   7    7.82    2.68
   4  -1   7    5.12    3.69
  -4   2  -7   -0.56    1.39
  -4   2  -7    0.58    0.28
  -4   2  -7    0.26    0.76
  -2  -4   7   -0.03    0.38
   4  -2   7    0.36    0.23
   4  -2   7    0.57    2.04
   4  -2   7    0.52    0.82
   4  -2   7    0.41    1.45
   3   4  -7   26.98   12.18
  -4   3  -7   39.40   10.31
  -4   3  -7   32.81    8.80
   3   4  -7   37.01    8.24
   3   4  -7   37.03    9.78
  -4   3  -7   33.51    8.81
  -3  -4   7   35.01    7.99
   4  -3   7   24.29    9.90
   4  -3   7   19.23   11.22
   4  -3   7   32.93    8.07
   4   4  -7    0.20    0.98
  -4   4  -7    0.26    0.64
   4   4  -7    0.02    1.74
   4   4  -7    0.44    0.52
   4  -4   7    1.12    2.03
  -4  -4   7    0.03    0.41
   5   4  -7   27.89    5.74
   5   4  -7   20.13    6.82
   5   4  -7   30.30    8.53
   5   4  -7   24.48    7.06
  -5  -4   7   23.69    5.61
  -5  -4   7   10.90    6.72
   5   3  -7   23.95    7.72
   5   3  -7   25.15    5.98
   5   3  -7   22.06    8.25
   5   3  -7   25.86    7.38
  -5  -3   7   23.79    7.74
  -5  -3   7   23.04    7.24
   5   2  -7   55.33   13.02
   5   2  -7   51.12   15.12
   5   2  -7   28.76   17.43
   5   2  -7   62.17   16.22
  -5  -2   7   60.25   13.71
  -5  -2   7   57.38   14.87
   5   1  -7    0.74    2.49
   5   1  -7    0.57    1.59
  -5  -1   7    0.92    1.67
   5   1   7    1.31    1.99
   0   5  -7  124.94   30.79
   5   0  -7   97.78   34.74
  -5   0   7  102.83   32.47
   0  -5   7  129.19   28.37
  -5   1  -7    0.99    0.30
   1   5  -7    1.39    0.80
   1   5  -7    0.71    0.67
  -1  -5   7    0.67    0.45
  -5   2  -7   63.26   16.57
  -5   2  -7   59.76   14.86
   2   5  -7   56.71   16.00
   2   5  -7   61.67   14.19
   5  -2   7   38.87   13.87
   5  -2   7   58.77   16.86
  -2  -5   7   61.71   13.48
  -5   3  -7   25.73    7.58
   3   5  -7   25.37    6.15
   3   5  -7   21.16    7.10
   4   5  -7   26.77    8.19
  -5   4  -7   17.33    6.71
   4   5  -7   26.16    5.92
   4   5  -7   22.88    6.88
  -5   4  -7   21.57    7.33
  -4  -5   7   23.03    5.61
   5  -4   7   24.13    8.48
  -5   5  -7   -1.01    2.40
   5   5  -7   -0.43    2.18
   5   5  -7   -0.52    0.77
   5   5  -7   -0.61    1.17
   5  -5   7   -2.01    2.66
  -5  -5   7   -0.57    0.51
   6   5  -7    2.52    1.39
   6   5  -7    2.51    1.01
  -6  -5   7    1.99    0.80
   6   4  -7   15.51    5.08
   6   4  -7   18.18    4.01
   6   4  -7   17.22    5.09
  -6  -4   7    9.34    5.09
  -6  -4   7   16.57    3.92
   6   3  -7   44.94    9.98
   6   3  -7   30.74    9.13
   6   3  -7   32.25    9.11
   6   3  -7   24.06    7.43
  -6  -3   7   23.80    8.75
  -6  -3   7   32.28    9.55
  -6  -3   7   27.28    7.38
   6   2  -7   23.72    8.71
  -6  -2  -7   16.20    8.98
   6   2  -7   20.52    9.13
   6   2  -7   28.78    7.92
  -6  -2   7   28.00    7.19
  -6  -2   7   24.53    7.81
   6   2   7   37.14    8.76
   6   2   7   27.21    8.38
  -6  -2   7   26.58    9.19
   6   1  -7    8.28    3.19
   6   1  -7    6.25    2.31
   6   1  -7   11.06    3.12
  -6  -1  -7   12.66    3.27
  -6  -1   7    9.70    3.54
   6   1   7    8.79    3.12
   6   1   7   11.14    3.75
   6   0  -7    0.40    0.61
  -6   0  -7    0.05    1.54
   6   0   7    1.26    3.06
   6   0   7    0.51    1.45
   6  -1  -7    8.15    2.28
  -6   1  -7    7.67    2.88
  -1  -6   7    6.03    2.07
   6  -1   7    8.92    2.94
   6  -1   7   13.15    4.43
   2   6  -7   31.78    8.10
  -6   2  -7   33.00    7.81
  -6   2  -7   20.45    8.29
   6  -2   7   25.82    9.80
   6  -2   7   25.60    8.08
  -2  -6   7   25.99    6.71
   3   6  -7   33.87    8.24
  -6   3  -7   24.33    7.88
  -6   3  -7   26.32    9.02
   6  -3   7   29.79    8.61
   6  -3   7   29.07    9.41
   4   6  -7   17.95    4.23
   4   6  -7   15.10    4.84
  -6   4  -7   16.07    5.20
  -6   4  -7   14.76    5.09
   6  -4   7   12.76    6.40
   6  -4   7   14.60    5.50
  -4  -6   7   19.29    3.92
  -6   5  -7    2.18    2.93
   5   6  -7    3.17    1.43
   5   6  -7    3.12    1.15
  -5  -6   7    3.17    0.87
   6  -5   7    3.67    2.99
   6  -5   7   -7.69    4.44
   6   6  -7    0.49    1.00
   6   6  -7    0.20    1.28
   6  -6   7    0.80    2.96
  -6  -6   7    0.05    0.61
   7   6  -7    2.98    1.44
   7   6  -7    4.78    3.39
   7   6  -7    3.24    1.78
  -7  -6   7    3.41    1.12
   7   5  -7    0.59    0.92
   7   5  -7    0.05    1.40
   7   5  -7    0.09    3.28
  -7  -5   7   -0.33    0.60
  -7  -5   7   -0.31    1.65
   7   4  -7   16.37    6.40
   7   4  -7   16.86    4.06
   7   4  -7   13.97    5.15
  -7  -4   7   16.01    3.99
   7   3  -7   17.08    3.32
   7   3  -7   12.42    4.61
   7   3  -7   -0.31    5.73
  -7  -3   7   15.81    3.30
  -7  -3   7   11.19    5.15
   7   2  -7   34.97    8.42
  -7  -2  -7   29.46   11.09
   7   2  -7   33.03   11.02
   7   2   7   38.62   10.61
  -7  -2   7   23.93    9.07
  -7  -2   7   27.56   11.75
   7   2   7   50.37   10.62
  -7  -1  -7   -1.28    2.04
   7   1  -7    0.85    0.62
   7   1  -7    0.48    1.64
   7   1  -7    8.57    2.14
  -7  -1   7    0.76    2.25
  -7  -1   7    2.04    2.39
   7   1   7    0.44    1.63
   7   1   7    2.31    2.96
   7   0  -7    0.49    0.67
   7   0  -7    0.65    1.81
  -7   0  -7   -0.06    1.84
   7   0  -7    1.49    3.75
   7   0  -7   -2.07    2.62
   7   0   7   -3.50    3.68
  -7   0   7    1.10    2.59
   7   0   7    1.28    1.65
  -7   0   7    1.66    2.43
   7  -1  -7   -1.38    2.75
  -7   1  -7    0.59    1.98
   7  -1  -7    0.38    0.85
  -7   1   7   -0.77    2.56
   7  -1   7   -1.13    2.14
   7  -1   7   -1.67    3.68
  -7   2  -7   31.04    9.43
  -7   2  -7   34.61    8.77
   7  -2   7   33.12    9.11
   7  -2   7    4.18   11.51
  -7   3  -7   21.40    5.11
  -7   3  -7   17.08    5.53
  -7   3  -7   17.95    4.82
   7  -3   7    4.81    5.65
   7  -3   7   15.72    5.26
  -7   4  -7   18.52    5.39
  -7   4  -7   15.65    5.56
   7  -4   7   19.98    5.79
   7  -4   7   15.12    6.52
  -7   5  -7    1.04    3.30
   5   7  -7    1.14    1.29
  -5  -7   7    1.32    0.69
   7  -5   7    2.87    3.26
   7  -5   7   -3.14    4.56
   6   7  -7    4.07    1.85
   7  -6   7    4.42    3.65
  -6  -7   7    4.18    1.22
   7   7  -7    0.72    2.98
   7   7  -7   -0.80    1.56
  -7  -7   7    1.44    0.75
   8   7  -7   16.80    5.30
   8   7  -7    5.66    3.74
  -8  -7   7   12.90    2.92
   8   6  -7    0.16    3.79
   8   6  -7   -0.24    1.66
   8   6  -7    1.35    1.18
  -8  -6   7   -0.64    0.72
   8   5  -7    0.46    1.99
   8   5  -7   -0.31    3.75
   8   5  -7    0.64    0.99
   8   5  -7   -0.18    1.67
  -8  -5   7    0.41    0.68
  -8  -5   7    2.13    2.15
   8   4  -7    3.93    4.14
   8   4  -7   10.13    2.73
   8   4  -7    4.20    1.77
   8   4  -7    7.36    2.56
  -8  -4   7    6.64    1.72
  -8  -4   7    7.28    2.80
  -8  -4   7    5.85    2.96
   8   3  -7    0.48    1.63
   8   3  -7   -0.82    2.83
  -8  -3  -7   -1.41    2.59
   8   3  -7    0.82    0.64
   8   3  -7   -1.26    2.00
  -8  -3   7   -1.08    2.07
  -8  -3   7    0.44    0.62
   8   3   7    0.05    2.73
  -8  -3   7   -0.14    2.13
   8   2  -7   11.71    3.38
   8   2  -7    3.03    4.89
  -8  -2  -7   12.95    4.81
   8   2  -7   16.91    4.41
   8   2  -7   12.38    4.62
  -8  -2   7   13.80    5.22
   8   2   7   14.32    5.19
  -8  -2   7   14.38    4.28
  -8  -2   7   15.37    4.40
   8   2   7   20.25    4.53
   8   1  -7    6.61    3.07
   8   1  -7    6.31    3.58
   8   1  -7    5.46    1.47
  -8  -1  -7    8.30    2.76
   8   1  -7    3.63    2.53
   8   1   7    6.02    2.48
  -8  -1   7    3.54    3.13
   8   1   7    4.37    4.06
  -8  -1   7    4.17    3.05
  -8  -1   7    1.98    3.25
  -8   0  -7   -0.60    2.21
   8   0  -7    0.77    0.77
   8   0  -7    0.48    1.99
   8   0  -7    3.86    2.88
   8   0  -7    4.61    4.22
   8   0   7    4.18    4.04
   8   0   7    1.82    2.00
  -8   0   7   -0.45    2.85
  -8   0   7    0.20    2.70
  -8   1  -7    2.79    2.96
   8  -1  -7    7.40    3.55
   8  -1  -7    6.02    4.79
   8  -1  -7    4.60    1.72
  -8   1   7    5.17    3.35
   8  -1   7   15.64    4.79
   8  -1   7    7.37    3.06
   8  -2  -7    9.95    4.90
  -8   2  -7   16.07    4.93
  -8   2  -7   14.56    4.77
   8  -2   7   11.66    5.68
   8  -2   7   10.73    4.60
  -8   3  -7    0.30    3.64
  -8   3  -7   -0.58    3.50
   8  -3   7    1.82    2.97
   8  -3   7   -1.34    3.18
  -8   4  -7    5.39    3.77
   8  -4   7    6.66    3.96
   8  -4   7    5.04    4.56
  -8   5  -7   -1.00    3.79
   8  -5   7    0.53    5.17
   8  -5   7    0.44    3.53
  -8   6  -7   -0.49    3.62
   8  -6   7   -0.28    3.76
   9   8  -7   29.09    8.80
   9   7  -7    4.20    4.41
   9   7  -7    2.94    2.01
  -9  -7   7    1.65    1.11
   9   6  -7   11.75    5.78
   9   6  -7    8.90    2.90
   9   6  -7    8.22    3.62
  -9  -6   7   10.89    2.60
   9   5  -7   11.00    2.41
   9   5  -7    3.21    5.30
   9   5  -7    5.39    3.19
   9   5  -7   11.22    3.46
  -9  -5   7    8.65    2.17
  -9  -5   7    6.18    3.63
   9   4  -7    3.05    2.06
   9   4  -7   -1.63    3.93
   9   4  -7    0.94    0.87
   9   4  -7    0.07    1.88
  -9  -4   7    0.36    0.70
  -9  -4   7    0.50    2.27
  -9  -4   7   -1.75    2.26
   9   3  -7   -4.67    3.32
   9   3  -7    0.59    0.68
   9   3  -7    1.87    2.34
   9   3  -7    0.66    1.86
  -9  -3  -7   -4.21    3.14
   9   3   7   -1.23    3.42
  -9  -3   7    1.33    2.51
  -9  -3   7    0.24    0.71
  -9  -3   7    0.06    2.36
  -9  -3   7    0.31    2.80
   9   3   7    0.08    2.58
   9   2  -7   -0.20    1.87
   9   2  -7   -1.90    2.63
  -9  -2  -7   -1.78    2.65
   9   2  -7    2.52    2.53
   9   2  -7   -0.15    0.64
  -9  -2   7    0.23    2.61
   9   2   7   -1.31    3.78
  -9  -2   7   -0.33    0.66
  -9  -2   7   -0.20    2.55
  -9  -2   7    1.38    2.88
   9   2   7    4.04    2.25
  -9  -1  -7   -1.73    2.37
   9   1  -7    1.02    3.21
   9   1  -7   -0.07    2.93
   9   1  -7   -0.07    2.02
   9   1  -7    1.73    0.67
   9   1   7    0.52    2.04
  -9  -1   7    2.20    2.85
  -9  -1   7    0.96    2.89
   9   1   7   -1.64    4.39
  -9  -1   7    4.07    3.17
   9   0  -7    4.42    4.59
   9   0  -7   -0.37    0.70
  -9   0  -7   -0.54    2.55
   9   0  -7   -2.45    3.20
   9   0  -7   -0.43    2.18
   9   0   7   -1.89    2.21
  -9   0   7   -0.88    3.14
   9   0   7    2.58    4.73
  -9   0   7    0.08    3.12
   9  -1  -7   -1.41    4.60
  -9   1  -7    3.90    2.78
   9  -1  -7    4.17    3.59
   9  -1  -7    0.51    0.89
  -9   1   7    0.52    3.24
   9  -1   7   -1.38    2.78
   9  -1   7    1.03    4.49
   9  -2  -7    0.43    1.09
   9  -2  -7    1.55    3.86
  -9   2  -7   -1.22    3.96
  -9   2  -7   -3.61    3.30
   9  -2   7    3.08    3.10
   9  -2   7   -0.52    3.83
  -9   3  -7   -0.80    4.30
  -9   3  -7    4.23    4.30
   9  -3   7    2.92    3.53
   9  -3   7    5.39    3.60
  -9   4  -7   -1.96    4.09
   9  -4   7    1.38    3.85
   9  -4   7    4.25    4.69
  -9   5  -7    5.41    4.30
   9  -5   7   -5.28    6.20
   9  -5   7   11.68    4.57
  -9   6  -7   11.05    5.47
   9  -6   7   13.95    5.28
   9  -7   7   16.04    5.68
  10   8  -7    0.29    2.05
  10   7  -7    0.75    6.28
  10   7  -7   12.03    3.88
 -10  -7   7   12.41    2.78
  10   6  -7    1.58    5.81
  10   6  -7    4.76    2.53
  10   6  -7    5.43    1.87
 -10  -6   7    1.17    3.30
 -10  -6   7    6.60    1.53
  10   5  -7    2.00    2.61
  10   5  -7   -4.25    4.94
  10   5  -7    2.31    1.30
  10   5  -7    2.32    2.20
 -10  -5   7    5.73    3.19
 -10  -5   7    1.51    2.65
 -10  -5   7    2.65    1.05
  10   4  -7   -0.70    5.19
  10   4  -7    9.77    3.39
  10   4  -7    7.80    3.37
  10   4  -7    8.18    2.31
 -10  -4   7   11.37    2.21
 -10  -4   7    8.52    3.58
 -10  -4   7    5.61    3.89
  10   3  -7   -1.16    2.15
  10   3  -7    1.49    3.55
  10   3  -7   -1.06    2.52
 -10  -3  -7    4.94    3.43
  10   3  -7   -0.14    0.78
 -10  -3   7   -1.25    2.76
 -10  -3   7    0.57    0.80
 -10  -3   7    1.42    3.14
  10   3   7   -1.12    2.66
 -10  -3   7    0.30    2.74
  10   2  -7    2.12    0.96
  10   2  -7    4.52    2.25
  10   2  -7   -0.47    3.08
 -10  -2  -7    2.75    2.99
  10   2  -7    5.23    3.02
 -10  -2   7    2.45    1.00
 -10  -2   7    2.86    3.09
 -10  -2   7    3.48    3.04
 -10  -2   7    2.78    3.37
  10   2   7   -0.07    2.55
  10   2   7    2.49    4.75
  10   1  -7    8.90    2.19
  10   1  -7    7.15    3.61
 -10  -1  -7   14.03    3.74
  10   1  -7    2.77    4.76
  10   1  -7    5.66    4.09
 -10  -1   7   10.43    4.23
 -10  -1   7   10.28    4.04
  10   1   7    5.05    3.35
 -10  -1   7    9.35    4.80
  10   1   7    0.08    5.91
  10   0  -7    2.79    4.76
  10   0  -7   -0.17    0.77
  10   0  -7   -2.29    3.65
 -10   0  -7    1.16    2.97
  10   0  -7    0.27    2.32
 -10   0   7   -0.53    3.42
 -10   0   7    0.12    3.43
  10   0   7   -2.73    2.60
  10   0   7   -8.50    5.27
 -10   1  -7   13.72    4.46
  10  -1  -7   10.97    2.74
  10  -1  -7    7.00    4.92
  10  -1  -7   12.50    6.29
  10  -1   7   11.32    4.31
 -10   1   7   12.51    4.67
  10  -1   7    3.59    6.33
  10  -2  -7    1.66    4.28
 -10   2  -7    3.21    4.06
  10  -2  -7    2.18    1.49
 -10   2  -7    2.93    4.87
  10  -2   7   13.73    3.89
  10  -2   7    3.94    4.36
 -10   2   7    4.66    3.91
 -10   3  -7    5.62    4.90
 -10   3  -7    4.41    4.53
  10  -3   7   -0.91    3.80
  10  -3   7   -0.38    3.95
 -10   4  -7    6.29    5.08
 -10   4  -7    9.42    5.85
  10  -4   7   -3.12    5.72
  10  -4   7   10.78    4.90
 -10   5  -7   -5.08    5.12
 -10   6  -7    5.47    4.95
  10  -6   7  -14.27    6.84
  10  -6   7    5.24    4.75
  10  -7   7    9.51    5.56
  11   8  -7    7.74    3.26
  11   7  -7    2.04    2.53
 -11  -7   7    4.19    1.35
  11   6  -7    4.60    2.85
  11   6  -7    2.93    1.98
  11   6  -7    0.30    5.95
  11   6  -7    7.10    3.44
 -11  -6   7    7.29    1.62
 -11  -6   7    3.00    3.89
  11   5  -7   12.38    4.15
  11   5  -7   17.18    5.42
  11   5  -7   10.63    5.37
  11   5  -7   11.33    7.95
 -11  -5   7   24.02    5.72
 -11  -5   7   17.22    6.02
 -11  -5   7   15.97    3.99
  11   4  -7   -0.19    2.45
  11   4  -7   -5.87    4.87
  11   4  -7   -0.31    2.36
 -11  -4  -7   -1.20    3.76
  11   4  -7    0.73    1.11
 -11  -4   7    2.76    2.96
 -11  -4   7   -0.90    0.86
 -11  -4   7   -1.99    3.06
  11   3  -7   21.91    6.13
  11   3  -7   10.19    4.70
 -11  -3  -7    1.20    5.79
  11   3  -7    6.72    3.19
  11   3  -7    5.77    5.19
 -11  -3   7    7.90    4.81
 -11  -3   7    1.03    4.94
 -11  -3   7    8.36    3.30
 -11  -3   7    4.13    6.19
 -11  -2  -7    8.02    4.86
  11   2  -7   -0.67    4.97
  11   2  -7   12.33    4.40
  11   2  -7   20.00    4.74
  11   2  -7   15.96    3.08
 -11  -2   7   14.17    4.91
 -11  -2   7   10.87    4.74
 -11  -2   7   11.91    5.45
 -11  -2   7   13.06    3.15
  11   1  -7    0.08    0.70
  11   1  -7   -0.08    2.37
  11   1  -7   -1.76    4.00
  11   1  -7   -3.47    3.72
 -11  -1  -7   -3.25    3.30
 -11  -1   7   -1.14    4.00
  11   1   7    0.63    2.57
 -11  -1   7    2.04    3.79
 -11  -1   7    0.25    3.61
  11   1   7  -13.97    6.16
  11   0  -7   23.10    9.45
 -11   0  -7   34.91    7.72
  11   0  -7   23.30    8.57
  11   0  -7   24.30    6.02
  11   0  -7   23.46    8.08
 -11   0   7   29.99    7.65
  11   0   7   15.25   10.29
  11   0   7   18.76    7.36
 -11   0   7   25.97    8.42
 -11   0   7   17.04   10.02
 -11   1  -7   -3.77    5.29
 -11   1  -7  -12.43    4.06
  11  -1  -7    0.19    5.49
  11  -1  -7    0.54    4.47
  11  -1  -7    1.06    0.87
  11  -1   7   -3.44    5.80
 -11   1   7    0.15    4.03
 -11   2  -7   -1.80    7.36
  11  -2  -7    5.81    5.50
 -11   2   7   12.77    5.05
  11  -3   7   97.02   20.71
 -11   4  -7    4.53    6.29
 -11   4  -7   -3.01    5.24
  11  -4   7   -8.27    4.90
  11  -4   7   -0.38    5.99
 -11   5  -7   15.89    7.19
  11  -5   7   21.63    8.93
  11  -5   7   21.78    7.25
 -11   6  -7    2.65    5.55
  11  -6   7   10.68    5.42
  11  -6   7    6.45    7.24
  11  -7   7  -10.46    5.32
  12   8  -7    0.85    2.57
  12   7  -7    0.42    2.49
  12   6  -7    0.16    2.45
  12   6  -7   -0.48    3.32
  12   6  -7   -4.88    6.73
  12   6  -7   -0.31    1.46
 -12  -6   7   -0.71    1.00
 -12  -6   7   -0.80    3.90
 -12  -6   7    0.39    3.12
  12   5  -7    3.26    3.14
  12   5  -7   -1.76    5.75
  12   5  -7    3.35    2.76
 -12  -5   7    4.16    3.49
 -12  -5   7    3.59    1.40
 -12  -5   7   10.55    3.78
  12   4  -7   -3.50    4.93
  12   4  -7    0.92    2.73
 -12  -4  -7   -1.29    4.57
 -12  -4   7   -0.07    0.90
 -12  -4   7   -1.80    3.31
 -12  -4   7    1.28    4.27
 -12  -4   7   -1.11    3.32
  12   3  -7   14.68    4.86
  12   3  -7    0.24    5.95
 -12  -3  -7   13.17    5.63
  12   3   7   14.43    4.90
 -12  -3   7   19.90    5.63
 -12  -3   7   17.14    5.00
  12   2  -7    0.35    3.71
 -12  -2  -7   -0.72    3.88
  12   2  -7   -1.02    3.73
  12   2   7    0.08    3.02
 -12  -2   7    0.26    4.34
 -12  -2   7    2.64    3.86
  12   1  -7   60.55   15.62
  12   1  -7   30.45   19.01
 -12  -1  -7   71.74   15.89
 -12  -1   7   46.20   15.91
  12   1   7   36.16   20.52
  12   1   7   51.19   15.37
 -12  -1   7   39.44   14.59
 -12   0  -7    4.90    4.16
  12   0  -7    1.95    4.79
  12   0  -7    1.15    5.57
 -12   0   7   -0.59    4.38
  12   0   7    0.10    6.75
  12   0   7    7.33    3.64
 -12   0   7   -2.59    5.57
 -12   1  -7   81.44   18.19
  12  -1  -7   58.22   21.04
 -12   1  -7   78.10   18.12
  12  -1  -7   47.28   17.64
 -12   1   7   51.31   16.70
  12  -1   7   41.38   21.96
 -12   2  -7    0.37    6.46
  12  -2  -7   -3.96    5.31
 -12   2  -7    2.75    5.10
 -12   2   7   -1.26    4.62
  12  -2   7    2.42    4.96
 -12   3  -7   17.34    7.61
 -12   3  -7   24.09    7.70
  12  -3  -7   18.45    6.93
  12  -3   7   10.39    6.60
 -12   4  -7    3.77    6.93
 -12   4  -7    4.58    6.15
  12  -4   7    3.97    5.39
  12  -5   7    7.13    5.85
 -13  -6   7   -8.23    5.45
  13   5  -7   -0.09    3.57
  13   5  -7   -2.46    6.36
 -13  -5   7   -4.61    4.29
 -13  -4  -7    6.20    4.69
  13   4  -7    2.40    3.31
  13   4  -7   -0.72    5.60
  13   4   7   -3.59    6.13
 -13  -4   7    1.53    3.91
  13   4   7   14.51    3.89
 -13  -4   7    6.69    5.05
  13   3  -7   -0.72    4.28
  13   3  -7    3.29    3.44
 -13  -3   7    5.30    4.87
 -13  -3   7    0.52    3.87
  13   2  -7    4.96    5.32
  13   2  -7    8.75    4.86
 -13  -2   7   10.11    5.50
 -13  -2   7    9.40    4.97
  13   1  -7    1.92    4.59
  13   1  -7    4.87    5.02
 -13  -1   7    0.74    4.75
 -13  -1   7   -1.95    4.89
  13   0  -7   31.80    9.36
  13   0  -7   31.09   11.22
 -13   0   7   21.32    9.92
 -13   0   7   15.83    8.67
  13  -1  -7   -2.48    5.68
  13  -1  -7    0.44    6.60
 -13   1   7   -1.38    4.80
  13  -2  -7   -0.87    7.49
  13  -2  -7    8.05    6.15
 -13   4  -7    2.02    6.89
  13  -4   7    9.31    7.55
 -13   5  -7   56.20   10.47
  13  -5   7   35.57    8.65
  13  -5   7    8.68   10.43
 -13   6  -7   15.09    7.16
  13  -6   7  -20.21    7.20
  13  -6   7  -19.79    9.51
 -13   7  -7    4.47    6.65
  13  -7   7    4.73    6.36
  14   5  -7    6.99    3.69
 -14  -5   7   -0.77    4.28
 -14  -4  -7    0.19    5.54
  14   4  -7    2.77    3.93
 -14  -4   7    3.82    4.38
  14   4   7    4.33    4.35
  14   4   7   20.01    7.55
 -14  -3  -7    0.17    5.48
 -14  -3   7   -8.40    4.88
  14   3   7    0.57    4.19
  14   2  -7   27.11    6.58
 -14  -2  -7    0.89    6.74
  14   2   7    6.31    5.70
 -14  -2   7   12.32    6.53
 -14  -1  -7   -4.66    5.35
  14   1  -7  -11.11    5.80
 -14  -1   7  -11.84    5.88
 -14   0  -7  -17.33    9.55
 -14   1  -7   -3.99    6.29
 -14   1  -7   14.26   13.65
 -14   2  -7   31.84    8.54
 -14   2  -7   10.80   10.23
  14  -2   7   19.44    8.82
 -14   2   7   -7.80    6.89
 -14   3  -7   -0.25    8.34
 -14   3  -7  -10.40    7.57
  14  -3   7  -21.99    7.06
  14  -3   7  -14.99    8.14
 -14   4  -7   21.79    8.51
 -14   4  -7   -9.83    8.00
  14  -4   7    7.53    6.57
  14  -4   7    6.08    8.41
 -14   5  -7    0.51    7.38
 -14   5  -7   -7.57    8.85
  14  -5   7   11.29    9.31
  14  -5   7    2.29    6.47
 -14   6  -7   12.50    9.60
 -14   6  -7    1.34    7.39
  14  -6   7    0.16    6.62
  14  -6   7  -13.67    9.18
 -14   7  -7   12.02    7.50
  14  -7   7    0.48    7.00
 -15  -5   7    2.97    6.19
 -15  -5   7    3.90    4.85
  15   4  -7    1.65    5.76
 -15  -4  -7   -0.20    6.20
  15   4   7  -13.94    8.06
 -15  -4   7    5.29    6.37
  15   4   7    0.27    4.63
 -15  -3  -7   -0.18    5.65
  15   3  -7    3.22    5.09
  15   3   7   -5.34    4.32
  15   3   7  -11.17    8.10
 -15  -3   7   -6.77    6.11
 -15  -3   7    2.27    4.42
 -15  -2  -7    0.17    5.26
  15   2  -7   -1.81    6.20
 -15  -2   7    4.48    5.21
  15   2   7   -0.92    4.20
 -15  -2   7   -3.05    6.07
 -15  -1  -7    0.64    5.32
  15   1  -7    6.87    6.74
  15   1  -7    2.77    5.68
 -15  -1   7   -6.49    6.01
 -15  -1   7    2.11    5.92
  15   1   7   -0.88    4.16
 -15   0  -7  -13.24    9.63
  15   0  -7    6.45    7.64
  15   0  -7   -1.27    6.10
 -15   0  -7    0.17    5.79
 -15   0   7   -0.17    6.71
 -15   0   7    1.35    5.88
  15   0   7   -9.38    4.84
  15   0   7    0.12    8.10
  15  -1  -7    0.77    7.56
 -15   1  -7    0.36    6.56
 -15   1  -7   -7.80   11.03
  15  -1  -7   -0.62    6.74
 -15   1   7   -1.22    8.04
 -15   1   7    6.53    5.91
  15  -1   7    0.50    6.90
  15  -1   7   -7.98    6.30
 -15   2  -7   13.16    7.03
  15  -2  -7   -3.22    7.82
 -15   2  -7    0.82    9.69
  15  -2  -7   -2.80    7.12
  15  -2   7   -1.05    6.37
  15  -2   7   19.38    7.18
 -15   2   7   -6.18    5.76
 -15   3  -7    2.48    8.86
 -15   3  -7   -9.65    7.98
  15  -3  -7   -7.59    7.13
  15  -3   7    2.07    8.35
  15  -3   7   -1.42    6.49
 -15   4  -7   -4.48    9.14
 -15   4  -7   -6.05    8.81
  15  -4   7  -13.66    6.93
  15  -4   7   -4.19    9.86
 -15   5  -7   -9.71    9.52
 -15   5  -7    9.44    8.51
  15  -5   7   12.40    7.06
  15  -5   7    7.09   10.34
 -15   6  -7    6.43   10.70
 -15   6  -7   12.76    8.80
  15  -6   7   17.59    7.94
  15  -6   7    8.37   10.76
 -15   7  -7    8.46    8.75
  15  -7   7   14.92    8.34
  16   5   7  -16.71    9.30
 -16  -4  -7   -0.22    6.85
  16   4   7    0.15    4.89
  16   4   7   -7.85    9.06
  16   3  -7   -9.12    6.35
 -16  -3  -7    0.61    6.46
  16   3  -7  -13.33    4.73
 -16  -3   7  -11.40    7.13
 -16  -3   7  -14.50    5.49
  16   3   7    0.13    9.07
  16   3   7   -2.06    4.91
  16   2  -7  -14.45    7.07
 -16  -2  -7    0.75    6.01
  16   2  -7    5.22    5.09
 -16  -2   7    9.02    6.71
  16   2   7    5.34    4.60
 -16  -2   7    3.01    5.67
  16   1  -7    3.29    7.45
 -16  -1  -7    1.66    6.23
  16   1  -7   -4.00    6.12
  16   1   7    1.85    4.62
 -16  -1   7   12.53    6.60
 -16  -1   7  -10.41    6.61
 -16   0  -7  -13.48   10.07
  16   0  -7    7.89    6.70
 -16   0  -7   -0.19    6.51
  16   0  -7   -2.10    8.54
  16   0   7    0.71    7.87
  16   0   7    3.24    5.01
 -16   0   7    2.56    6.49
 -16   0   7   -2.42    7.33
  16  -1  -7  -20.84    7.44
 -16   1  -7   -0.20    7.32
 -16   1  -7    4.22   10.71
  16  -1  -7    5.02    8.25
  16  -1   7    1.74    6.70
  16  -1   7    0.42    5.53
 -16   1   7    0.22    6.41
 -16   1   7   -0.64    8.39
 -16   2  -7   -0.22    7.93
  16  -2  -7   10.86    7.61
 -16   2  -7   -9.56   10.59
  16  -2  -7    6.00    8.38
  16  -2   7   -2.55    7.59
 -16   2   7   -1.19    6.25
 -16   2   7    0.48    9.60
  16  -2   7   -3.45    6.40
 -16   3  -7   12.42   10.27
  16  -3  -7   -5.79    8.16
 -16   3  -7   -8.52    8.69
  16  -3   7    7.62    9.41
  16  -3   7   10.84    7.27
 -16   4  -7   12.55    9.50
 -16   4  -7   -0.63    9.71
  16  -4   7    0.34   10.99
  16  -4   7    5.25    7.55
 -16   5  -7  -18.27    9.48
 -16   5  -7    8.03    9.86
  16  -5   7   -5.05   11.39
  16  -5   7   12.31    7.57
 -16   6  -7   13.85    9.13
 -16   6  -7    2.71   10.62
  16  -6   7   -0.77   11.11
  16  -6   7    2.01    7.64
 -16   7  -7   13.80    9.51
 -16   7  -7    9.39   11.99
  16  -7   7   10.48    8.40
 -17  -5  -7    0.26    7.35
  17   5   7  -20.47   10.27
 -17  -4  -7   -0.50    7.35
  17   4   7    2.66    9.56
 -17  -4   7    0.88    7.62
  17   4   7   12.00    5.44
 -17  -4   7    4.44    5.53
 -17  -3  -7   -0.69    6.94
  17   3  -7   -1.42    4.78
  17   3  -7  -13.18    7.40
 -17  -3   7   -0.92    5.47
 -17  -3   7   17.79    7.48
  17   3   7  -11.56    9.50
  17   3   7    0.91    5.40
  17   2  -7   -0.69    7.67
  17   2  -7    6.35    5.88
 -17  -2  -7    0.21    6.69
 -17  -2   7    7.20    6.36
 -17  -2   7    8.77    7.43
  17   2   7    0.99    5.15
  17   1  -7    2.83    6.67
 -17  -1  -7    0.21    7.09
  17   1  -7    1.63    8.78
 -17  -1   7   -1.27    6.83
 -17  -1   7    0.46    7.26
  17   1   7   10.68    5.18
  17   0  -7    5.40    7.21
  17   0  -7    2.65    9.18
 -17   0  -7    0.21    7.41
 -17   0  -7    0.63   11.06
 -17   0   7    1.17    7.06
 -17   0   7  -11.93    8.14
  17   0   7   -1.81    5.30
  17  -1  -7    2.29    8.87
 -17   1  -7   -0.23    7.71
  17  -1  -7   -2.35    7.89
 -17   1  -7   -6.40   11.72
 -17   1   7   -8.59    7.19
 -17   1   7    1.83    8.89
  17  -1   7    0.11    7.41
  17  -1   7    3.09    6.09
  17  -2  -7  -17.67    9.67
 -17   2  -7   19.00   11.46
 -17   2  -7   -1.69    8.56
  17  -2   7   -2.64    6.72
  17  -2   7  -16.49    9.23
 -17   2   7   -6.78   10.48
 -17   3  -7   -2.79    9.50
 -17   3  -7    6.90   11.07
  17  -3  -7   -1.82    8.96
  17  -3   7   -6.55   10.88
 -17   3   7  -13.31   11.52
  17  -3   7    3.72    7.59
 -17   4  -7  -14.68   10.26
 -17   4  -7   19.83   10.99
  17  -4   7   -7.60   11.45
  17  -4   7   -1.73    7.76
 -17   5  -7   -4.16   10.54
 -17   5  -7   -5.02   10.22
  17  -5   7   -0.21   12.26
  17  -5   7    2.89    7.96
 -17   6  -7   -1.84   10.27
 -17   6  -7   17.71   11.76
  17  -6   7    3.74    8.60
  17  -6   7   16.98   12.84
 -17   7  -7    1.53    9.71
 -17   7  -7    1.86   11.87
 -18  -5  -7   34.37   48.28
  18   5   7  122.20   51.15
  18   4   7   -3.44   10.33
  18   3  -7    5.04    5.02
  18   3  -7    3.15    8.03
 -18  -3  -7    0.26    8.02
  18   3   7   -4.05   10.16
  18   3   7   -9.08    5.98
 -18  -3   7   -4.64    8.21
 -18  -3   7   -2.89    5.91
 -18  -2  -7  -15.89   11.40
  18   2  -7   -5.39    5.91
 -18  -2  -7   -4.93    7.98
  18   2  -7   -0.82    9.12
  18   2   7   -0.16    5.78
 -18  -2   7    1.85    6.94
  18   2   7  -16.59   10.31
 -18  -2   7  -14.68    8.12
  18   1  -7   -1.15    6.96
  18   1  -7   -5.24    9.52
 -18  -1  -7    0.24    7.99
 -18  -1   7    8.56    7.89
 -18  -1   7    8.61    7.76
  18   1   7   -9.12    6.00
  18   0  -7   -4.46    7.87
  18   0  -7   -8.44   10.43
 -18   0  -7  -26.88   12.58
 -18   0  -7    2.40    8.46
 -18   0   7  -12.08    8.71
  18   0   7    0.16    6.21
 -18   0   7    3.90    7.52
 -18   1  -7  -21.69   12.77
  18  -1  -7   -6.01    9.72
 -18   1  -7    0.25    9.05
  18  -1  -7   10.19    8.75
  18  -1   7    1.98    6.37
 -18   1   7   -8.54    9.76
 -18   1   7   -3.52    7.83
  18  -1   7   -4.43    8.69
  18  -2  -7  -13.65    9.14
 -18   2  -7   18.16   12.58
 -18   2  -7    1.08    9.84
  18  -2   7   -8.59    7.50
  18  -2   7    9.66   10.95
 -18   2   7    6.03   10.71
 -18   3  -7   -0.56   10.48
  18  -3  -7    0.22    9.37
 -18   3  -7   -2.33   12.27
 -18   3   7    5.42   11.85
  18  -3   7    7.53    7.94
  18  -3   7    4.56   12.07
 -18   4  -7    9.03   11.63
 -18   4  -7   -2.32   11.41
  18  -4   7  -19.84   13.75
  18  -5   7  416.02   92.41
 -18   6  -7   -4.52   10.96
 -18   6  -7   17.88   12.26
  18  -6   7  -16.67   14.04
  18  -6   7  -19.75    9.28
 -18   7  -7   -1.27   11.31
 -18   7  -7   10.44   12.84
  18  -7   7    4.56    9.15
  19   5   7  -15.33   11.45
 -19  -4  -7   13.32    9.43
  19   4   7   11.15    7.11
  19   4   7   -1.75   10.97
 -19  -3  -7   -0.61    9.50
 -19  -3  -7  -22.98   12.86
  19   3   7   -2.37   10.71
 -19  -3   7   -5.28    7.08
  19   3   7   -2.81    6.56
 -19  -3   7    4.64    9.00
 -19  -2  -7    0.28    8.99
  19   2  -7   -3.60   10.97
  19   2  -7   -8.79    6.43
 -19  -2  -7   15.60   12.99
  19   2   7   -9.69   10.39
 -19  -2   7   -1.38    8.60
  19   2   7    6.90    6.83
 -19  -2   7    0.20    7.62
  19   1  -7   -0.17   11.27
 -19  -1  -7   -3.58    9.45
  19   1  -7   -5.84    7.18
 -19  -1   7   -5.74    8.37
  19   1   7    9.25    6.95
 -19  -1   7   -0.84    8.79
  19   0  -7   -7.90   11.43
 -19   0  -7    0.27    9.49
  19   0  -7  -11.02    8.45
 -19   0   7   -6.65    8.47
  19   0   7   14.75    7.16
 -19   0   7   -9.11    9.34
  19  -1  -7  -18.35   10.84
 -19   1  -7   -0.28   10.28
  19  -1  -7   -5.73    9.32
 -19   1  -7   13.52   14.19
  19  -1   7    4.92    7.47
 -19   1   7   -4.16    8.28
  19  -1   7   -9.00   11.27
 -19   1   7   -5.26   10.43
 -19   2  -7   -1.20   11.11
 -19   2  -7   -0.42   14.02
  19  -2  -7   12.72    9.32
  19  -2   7   -2.44   12.24
 -19   2   7   14.31    8.30
 -19   2   7   -2.91   11.78
  19  -2   7   -4.79    7.99
  19  -3  -7   -3.27    9.98
 -19   3  -7    2.47   11.73
 -19   3  -7   11.20   13.34
  19  -3   7   18.93    8.95
 -19   3   7  -22.08   12.81
  19  -3   7   -0.45   14.04
 -19   4  -7   -0.32   11.82
 -19   4  -7  -13.25   13.60
  19  -4   7    1.79    9.77
  19  -4   7  -19.07   14.74
 -19   5  -7   14.29   12.84
 -19   5  -7    9.47   12.67
  19  -5   7   -2.99    9.63
  19  -5   7    5.02   14.90
 -19   6  -7   -0.34   13.01
  19  -6   7   -2.53    9.79
  20   2  -7    4.47    6.73
 -20  -2   7  -11.73    8.38
 -20  -2   7   -9.85    9.72
  20   1  -7   -8.75   12.23
  20   1  -7   -3.24    7.79
 -20  -1   7   -0.98    9.37
 -20  -1   7   -1.24    9.54
  20   0  -7    9.80   12.19
  20   0  -7   25.59    9.17
 -20   0   7   -4.21   10.13
 -20   0   7   -6.70    9.49
  20  -1  -7   -6.28   12.12
  20  -1  -7   -3.03   10.05
 -20   1   7   -0.33    9.13
 -20   1   7   10.24   11.24
  20  -2  -7  -12.82   10.39
 -20   2   7   -6.51   12.20
 -20   2   7    2.74    8.92
  21   1  -7    2.60    7.92
   0   0  -8   31.28    8.50
   0   0  -8   34.75    9.45
   0   0   8   31.28   10.06
   0   1  -8    1.02    0.39
   1   0  -8    0.05    0.90
   0   1  -8    0.27    0.81
   1   0  -8   -0.18    0.46
  -1   0  -8   -0.21    0.46
   0  -1   8   -0.36    1.03
  -1   0   8   -0.23    1.18
   1   1  -8   12.39    3.67
   1   1  -8   14.15    3.06
  -1   1  -8   14.05    3.15
  -1   1  -8   11.31    3.64
  -1  -1   8    8.37    3.89
   1  -1   8    9.37    3.90
   1  -1   8   10.89    3.96
  -1   2  -8    0.10    0.83
  -1   2  -8    0.30    0.29
  -1   2  -8    0.75    0.55
   2   1  -8    0.49    0.97
   1  -2   8    0.46    0.88
   1  -2   8    0.18    1.09
  -2  -1   8    0.89    1.19
   1  -2   8    0.40    0.57
   0   2  -8    0.75    0.35
   0   2  -8    0.92    0.84
   2   0  -8    0.44    1.05
  -2   0  -8    0.94    0.53
   2   0   8    0.26    0.90
   0  -2   8    1.00    0.90
  -2   0   8    1.45    1.37
  -2   1  -8    0.40    0.37
   1   2  -8    0.40    0.34
   1   2  -8    0.18    0.89
  -2   1  -8    0.41    0.75
  -2   1  -8    0.25    0.89
   2  -1   8    0.81    0.76
  -1  -2   8    0.80    0.92
   2  -1   8    0.28    1.37
   2  -1   8    1.12    1.17
  -2   2  -8    0.06    0.85
  -2   2  -8    0.15    0.27
   2   2  -8    0.16    0.92
  -2   2  -8   -0.02    0.76
   2  -2   8    0.16    0.84
  -2  -2   8   -0.21    1.09
   2  -2   8   -0.33    1.53
   2  -2   8   -0.02    0.92
   3   2  -8    0.52    0.86
  -2   3  -8    0.75    1.41
   3   2  -8    1.14    1.64
  -2   3  -8    0.79    0.80
  -2   3  -8    0.72    0.38
  -3  -2   8    1.34    1.08
   2  -3   8    0.41    0.33
   2  -3   8    0.39    1.15
   2  -3   8    1.37    1.83
  -3  -2   8    0.95    0.93
  -1   3  -8   18.34    5.98
  -1   3  -8   23.72    5.21
  -1   3  -8   22.64    5.43
   1  -3   8   16.60    5.75
   1  -3   8   21.27    5.03
  -3   0  -8    0.25    0.99
   0   3  -8    0.02    0.32
   0   3  -8    0.15    0.79
  -3   0  -8    0.04    0.51
   3   0  -8   -0.06    1.23
   0  -3   8    0.03    0.30
   3   0   8   -0.29    1.36
  -3   0   8   -0.05    1.68
   3   0   8   -0.48    1.05
  -3   1  -8   22.85    5.98
  -3   1  -8   25.91    6.10
  -3   1  -8   21.55    5.46
   3  -1   8   17.56    6.36
   3  -1   8   17.28    7.14
   3  -1   8   18.09    6.24
  -3   2  -8    0.59    0.32
  -3   2  -8    0.03    1.05
  -3   2  -8    1.01    0.90
   3  -2   8    0.60    2.00
   3  -2   8    0.65    1.00
   3  -2   8    0.71    1.18
   3   3  -8  102.06   19.51
  -3   3  -8   81.55   20.89
  -3   3  -8  101.08   20.31
   3   3  -8  104.50   23.05
   3   3  -8   36.70   22.10
  -3   3  -8   87.73   23.67
   3   3  -8   61.60   25.91
   3  -3   8   65.48   22.36
   3  -3   8   50.81   25.50
  -3  -3   8   49.01   21.60
   3  -3   8  104.35   19.81
  -3  -3   8   95.54   23.82
  -3  -3   8  105.96   19.22
  -3   4  -8   22.83    6.74
  -3   4  -8   27.74    6.55
   4   3  -8   23.23    6.08
   4   3  -8   22.96    7.65
  -3   4  -8   27.65    7.29
   4   3  -8   11.85    8.06
   4   3  -8   29.08    7.30
   3  -4   8   22.64    8.65
  -4  -3   8   28.96    6.01
  -4  -3   8   27.52    7.55
   3  -4   8   29.39    7.49
  -4  -3   8   28.73    7.15
  -2   4  -8   23.60    5.42
   4   2  -8   29.51    6.28
   4   2  -8   16.63    5.90
   4   2  -8   12.02    7.68
   4   2  -8   21.47    5.07
  -4  -2   8   21.50    5.79
  -4  -2   8   22.24    5.69
   2  -4   8   22.28    5.05
  -4  -2   8   17.88    6.47
   2  -4   8   20.73    6.32
   4   1  -8    0.53    1.42
   4   1  -8    0.07    0.53
  -1   4  -8    0.06    0.77
  -4  -1   8   -0.10    1.30
  -4   0  -8   74.11   24.91
  -4   0  -8  120.26   26.92
   4   0   8   92.72   26.69
   1   4  -8    0.68    0.53
  -4   1  -8    0.36    1.14
  -4   1  -8    0.60    0.36
   4  -1   8    0.75    1.15
   4  -1   8    0.49    2.47
  -1  -4   8    0.18    0.41
  -4   2  -8   21.09    5.79
   2   4  -8   20.27    5.60
  -4   2  -8   21.24    4.98
  -4   2  -8   15.79    5.44
   2   4  -8   20.17    4.70
   4  -2   8   12.54    5.94
   4  -2   8   17.78    4.71
   4  -2   8   16.32    6.74
   4  -2   8   17.68    5.37
  -2  -4   8   17.84    4.54
   3   4  -8   15.66    8.33
  -4   3  -8   30.51    6.34
   3   4  -8   26.66    6.94
  -4   3  -8   26.73    6.30
  -4   3  -8   24.64    7.20
   4  -3   8   18.49    5.80
   4  -3   8   20.77    7.62
   4  -3   8   18.25    6.88
   4   4  -8   19.11    8.53
  -4   4  -8   27.63    7.37
   4   4  -8   24.52    5.96
   4   4  -8   20.29    7.22
  -4  -4   8   23.77    5.82
   4  -4   8   25.54    7.44
  -4   5  -8    3.80    1.06
   5   4  -8    1.18    0.79
   5   4  -8    2.31    1.20
   5   4  -8    2.79    2.40
   5   4  -8    0.82    1.38
  -5  -4   8    1.06    1.31
  -5  -4   8    1.57    0.75
  -3   5  -8   47.85   13.85
   5   3  -8   30.77   15.24
   5   3  -8   50.13   11.23
   5   3  -8   42.30   13.91
   5   3  -8   40.54   14.48
  -5  -3   8   50.16   13.57
  -5  -3   8   46.89   14.47
  -5  -3   8   49.23   11.12
   5   2  -8    2.63    2.54
   5   2  -8    3.91    2.09
   5   2  -8    3.97    1.99
   5   2  -8    5.70    1.33
  -5  -2   8    6.00    2.30
  -5  -2   8    5.08    2.01
  -5  -2   8    6.19    2.16
   5   1  -8   32.81   12.92
   5   1  -8   50.01   13.81
  -1   5  -8   45.10   11.92
   5   1  -8   41.97   17.43
  -5  -1  -8   32.07   14.41
   5   1  -8   56.04   11.18
   5   1   8   36.97   13.68
  -5  -1   8   48.84   12.57
   1  -5   8   47.11   11.06
   5   1   8   68.27   14.07
  -5  -1   8   43.93   14.89
   5   0  -8    1.49    1.46
   0   5  -8    0.65    0.79
  -5   0  -8   -0.14    0.51
   0   5  -8   -0.66    0.63
   5   0  -8   -0.18    0.65
   0  -5   8    0.07    0.37
  -5   0   8    2.84    2.12
   5   0   8    0.04    2.51
   5  -1  -8   38.95   11.40
   1   5  -8   49.30   12.99
  -5   1  -8   44.80   11.97
   2   5  -8    3.38    1.44
   2   5  -8    4.47    1.71
  -5   2  -8    4.32    1.75
  -5   2  -8    4.86    1.38
   5  -2   8    4.94    1.90
  -2  -5   8    4.05    1.27
   5  -2   8    6.87    1.28
  -5   3  -8   47.61   14.59
   3   5  -8   41.81   13.48
   5  -3   8   48.05   14.27
   5  -3   8   47.73   11.46
   4   5  -8    2.60    1.01
   4   5  -8    4.58    1.94
   4   5  -8    1.88    1.36
  -5   4  -8    1.23    2.52
  -5   4  -8    3.87    1.12
   5  -4   8    2.79    3.46
  -4  -5   8    2.21    0.84
   5   5  -8   24.95    9.48
  -5   5  -8   31.69    8.08
  -5   5  -8   24.82    7.50
   5   5  -8   24.67    7.75
   5   5  -8   20.84    6.48
   5  -5   8   29.48    8.28
  -5  -5   8   23.28    6.23
   6   5  -8    6.35    3.41
   6   5  -8   10.88    2.71
  -6  -5   8   12.00    2.55
   5  -6   8    8.68    4.07
   6   4  -8   16.67    5.81
   6   4  -8   21.09    4.67
  -6  -4   8   16.40    6.14
  -6  -4   8   19.08    4.59
   6   3  -8   53.23   13.23
   6   3  -8   33.56   18.23
   6   3  -8   56.62   16.89
   6   3  -8   56.71   16.71
  -6  -3   8   55.40   17.75
  -6  -3   8   46.95   13.80
  -6  -3   8   66.29   13.13
  -6  -3   8   51.16   15.95
   6   2  -8   25.09    6.63
   6   2  -8   23.04    6.13
   6   2  -8   24.53    7.29
  -6  -2  -8   10.14    6.82
   6   2  -8   17.76    5.17
  -6  -2   8   22.59    6.01
   6   2   8   22.82    6.41
  -6  -2   8   22.54    5.85
  -6  -2   8   18.92    7.01
   6   1  -8    5.56    2.24
   6   1  -8    7.25    1.52
   6   1  -8    4.26    2.45
  -6  -1  -8    5.48    2.50
  -6  -1   8    6.68    2.71
   6   1   8    6.21    2.33
   6   1   8    6.23    2.92
  -6   0  -8    1.69    0.84
   6   0  -8    2.57    1.94
   6   0  -8    1.39    0.95
   0   6  -8    3.32    1.17
  -6   0  -8    3.53    1.72
   6   0   8    3.23    3.01
  -6   0   8    2.61    2.57
   6   0   8    3.48    1.67
   0  -6   8    3.18    0.77
   6  -1  -8    5.23    1.50
   1   6  -8    6.47    1.63
  -6   1  -8    3.75    1.25
  -6   1  -8    6.83    2.09
   1   6  -8    4.14    1.44
   6  -1   8    5.38    2.09
  -1  -6   8    4.83    1.27
   6  -1   8    4.47    3.78
  -6   2  -8   19.76    6.04
   2   6  -8   20.63    5.86
  -6   2  -8   20.66    6.58
  -6   2  -8   19.75    6.67
   6  -2   8   20.88    7.00
  -2  -6   8   20.92    5.53
   6  -2   8   30.47    6.53
   6  -2   8   37.59    8.06
  -6   3  -8   55.37   14.76
   3   6  -8   61.36   16.22
  -6   3  -8   67.37   17.87
  -6   3  -8   48.96   16.74
   6  -3   8   35.15   17.97
   6  -3   8   52.59   17.23
   6  -3   8   66.08   16.20
  -6   4  -8   19.16    5.83
   4   6  -8   21.29    4.72
  -6   4  -8   19.29    5.74
   4   6  -8   16.59    5.40
   6  -4   8   18.21    6.15
  -4  -6   8   14.32    4.39
   5   6  -8   12.19    2.93
   5   6  -8   11.53    3.43
  -6   5  -8    7.06    4.16
   5   6  -8   12.19    4.30
  -6   5  -8   10.54    3.54
   6  -5   8   10.31    5.48
  -5  -6   8   10.71    2.71
   6  -5   8   11.49    4.38
   6   6  -8    0.42    0.96
   6   6  -8   -0.21    1.40
  -6  -6   8   -0.47    0.65
   6  -6   8    1.08    3.16
   7   6  -8   -3.48    3.26
   7   6  -8   -0.06    1.63
   7   6  -8    0.30    1.08
  -7  -6   8   -0.39    0.70
   7   5  -8    1.03    3.27
   7   5  -8    1.70    1.68
   7   5  -8    0.77    0.92
  -7  -5   8    1.59    0.74
   7   4  -8   28.53    8.19
   7   4  -8   34.32   10.21
  -7  -4   8   33.15    8.09
  -7  -4   8   35.84   10.79
   7   3  -8   13.59    4.24
   7   3  -8    9.55    3.08
  -7  -3   8   11.96    3.78
  -7  -3   8    9.92    4.60
  -7  -3   8   13.49    3.08
  -7  -2  -8   23.29    9.46
   7   2  -8   27.46    7.07
   7   2  -8   23.73    9.15
  -7  -2   8   27.35    7.92
  -7  -2   8   17.46    9.98
   7   2   8   42.67    9.06
   7   2   8   32.76    8.84
   7   1  -8    9.30    5.78
  -7  -1  -8   24.30    5.64
   7   1   8   21.56    5.35
  -7  -1   8   16.66    5.76
   7   1   8   15.11    6.20
   7   0  -8   -3.74    2.73
   7   0  -8   -1.32    0.94
  -7   0  -8   -0.30    0.44
  -7   0  -8   -0.24    1.98
   7   0   8   -4.16    2.09
  -7   0   8   -6.91    3.59
  -7   0   8   -5.33    3.57
   7  -1  -8   14.69    3.43
  -7   1  -8   17.32    4.51
   7  -1   8  -11.75    7.32
  -7   2  -8   31.04    7.99
  -7   2  -8   32.32    7.90
   7  -2   8    9.53    8.06
   3   7  -8   12.48    4.20
  -7   3  -8   14.41    4.90
  -7   3  -8   17.51    5.12
   7  -3   8   18.69    4.92
   7  -3   8   13.19    5.16
   4   7  -8   31.13    9.18
   4   7  -8   32.02    8.05
  -7   4  -8   31.23    8.84
   7  -4   8   27.88    9.82
   7  -4   8   27.85   10.96
  -7   5  -8    3.71    3.30
   5   7  -8    0.32    1.38
   5   7  -8    1.97    1.05
   7  -5   8   -0.80    4.55
   7  -5   8    0.54    3.24
  -5  -7   8    1.82    0.76
  -7   6  -8    0.30    3.43
   6   7  -8    0.33    1.10
   6   7  -8    0.96    1.45
   7  -6   8   -1.35    3.45
  -6  -7   8    0.29    0.70
   7   7  -8    8.18    3.57
   7   7  -8    6.64    3.03
   7   7  -8   15.27    4.88
  -7  -7   8   14.49    2.74
   7  -7   8    4.97    4.76
   8   7  -8    0.56    1.34
   8   7  -8    0.52    1.78
  -8  -7   8    1.00    0.90
   8   6  -8    7.50    2.23
   8   6  -8    3.37    2.90
   8   6  -8    9.22    4.58
  -8  -6   8    8.90    1.97
   8   5  -8   -0.06    1.74
   8   5  -8    0.50    0.98
   8   5  -8    0.90    2.02
   8   5  -8   -2.68    3.68
  -8  -5   8   -0.05    0.70
  -8  -5   8   -1.15    2.23
   8   4  -8    0.06    1.79
   8   4  -8   -0.54    0.76
   8   4  -8   -0.79    3.15
   8   4  -8    0.32    1.81
  -8  -4   8   -0.54    2.19
  -8  -4   8    0.76    2.09
  -8  -4   8    0.99    0.69
   8   3  -8   29.26    7.89
   8   3  -8   25.95   10.84
   8   3  -8   35.37   10.42
   8   3  -8   39.63    9.51
  -8  -3   8   35.01   11.15
  -8  -3   8   27.78    9.31
  -8  -3   8   27.56    8.47
  -8  -3   8   30.86    7.88
   8   2  -8    0.07    0.59
  -8  -2  -8    0.30    2.62
   8   2  -8   -0.47    2.31
   8   2  -8   -0.27    1.82
   8   2  -8   -2.59    2.34
  -8  -2   8   -0.06    2.31
   8   2   8    1.42    2.21
  -8  -2   8    2.76    2.58
   8   2   8   -2.77    3.19
  -8  -2   8    3.36    2.50
   8   1  -8    4.54    3.75
   8   1  -8    4.35    4.83
  -8  -1  -8   10.58    3.77
   8   1  -8   12.78    2.45
   8   1  -8    4.43    3.85
   8   1   8    9.44    3.44
  -8  -1   8    8.85    4.57
  -8  -1   8    8.24    3.75
   8   1   8   10.84    4.89
   8   0  -8    8.28    3.12
   8   0  -8   10.20    4.88
   8   0  -8    5.92    1.82
   8   0  -8    6.19    3.45
  -8   0  -8    6.29    2.89
  -8   0   8    5.30    3.87
  -8   0   8    7.58    3.47
   8   0   8    7.00    4.81
   8   0   8    5.99    2.69
   8  -1  -8    9.12    3.15
  -8   1  -8   11.97    4.08
   8  -1  -8   15.51    4.64
  -8   1   8   13.45    4.35
   8  -1   8   10.53    5.90
   8  -1   8   14.04    3.93
  -8   2  -8    0.84    2.62
  -8   2  -8    0.86    3.44
   8  -2   8    0.19    2.63
   8  -2   8   -1.59    4.02
  -8   3  -8   44.71    9.80
  -8   3  -8   30.41   10.70
   8  -3   8   35.46   10.15
   8  -3   8   24.85   11.22
  -8   4  -8   -1.00    3.75
   8  -4   8    5.36    3.95
   8  -4   8   -0.24    3.40
  -8   5  -8   -1.81    3.74
   8  -5   8   -0.09    3.71
   8  -5   8    3.72    5.05
  -8   6  -8    3.86    4.06
   8  -6   8    2.22    4.18
   7   8  -8   -0.06    1.71
   8  -7   8   -3.36    3.98
   8   8  -8   23.99    7.36
   9   8  -8   -0.43    2.01
   9   7  -8   17.40    4.70
   9   7  -8   15.66    5.60
  -9  -7   8   18.11    4.34
   9   6  -8    3.23    1.63
   9   6  -8    6.35    4.65
   9   6  -8    2.56    2.33
  -9  -6   8    4.86    1.37
   9   5  -8    0.05    3.99
   9   5  -8   -0.27    1.08
   9   5  -8    0.57    2.35
   9   5  -8    0.14    2.00
  -9  -5   8    0.53    2.41
  -9  -5   8    0.16    2.57
  -9  -5   8   -0.06    0.82
   9   4  -8    1.95    3.60
   9   4  -8    3.61    2.26
   9   4  -8    5.20    2.29
   9   4  -8    2.03    1.15
  -9  -4   8    2.56    2.45
  -9  -4   8    3.47    1.07
  -9  -4   8    1.11    2.70
   9   3  -8    3.29    1.06
   9   3  -8    2.10    2.52
  -9  -3  -8    0.37    3.19
   9   3  -8    3.92    2.31
   9   3  -8    0.04    2.99
   9   3   8   -0.49    3.38
  -9  -3   8    3.63    2.84
  -9  -3   8    4.25    2.59
  -9  -3   8    0.91    2.82
  -9  -3   8    4.13    1.04
   9   2  -8    0.57    2.63
   9   2  -8    1.95    2.60
  -9  -2  -8   -3.07    2.88
   9   2  -8   -2.88    2.04
   9   2  -8    0.28    0.65
   9   2   8    2.40    3.83
  -9  -2   8    0.79    2.94
   9   2   8    2.03    2.39
  -9  -2   8   -0.38    2.86
  -9  -2   8    1.82    2.58
   9   1  -8    0.32    0.67
   9   1  -8    0.35    3.60
   9   1  -8    0.07    2.99
  -9  -1  -8    0.08    2.47
   9   1  -8    0.48    2.12
  -9  -1   8   -0.10    2.99
   9   1   8    0.90    2.15
  -9  -1   8    0.68    3.20
  -9  -1   8   -0.50    3.21
   9   1   8    0.14    4.34
   9   0  -8   -2.24    3.31
   9   0  -8   -0.87    4.41
   9   0  -8   -0.73    0.77
  -9   0  -8   -2.00    2.48
   9   0  -8   -0.09    2.29
   9   0   8    1.71    2.19
   9   0   8    7.95    4.94
  -9   0   8    2.91    3.09
  -9   0   8   -1.15    3.26
  -9   1  -8    1.85    2.72
   9  -1  -8   -6.88    3.74
   9  -1  -8    0.57    0.95
   9  -1   8   -5.74    2.62
   9  -1   8    0.43    4.74
  -9   1   8   -0.27    3.19
   9  -2  -8    3.75    3.92
  -9   2  -8    0.71    3.10
  -9   2  -8    0.50    4.16
   9  -2   8    0.22    3.06
   9  -2   8   -4.63    4.27
  -9   3  -8    2.03    4.34
  -9   3  -8    5.54    3.98
   9  -3   8   10.34    3.79
   9  -3   8    0.80    3.52
  -9   4  -8    1.70    4.35
  -9   4  -8    5.88    4.97
   9  -4   8    4.70    4.05
   9  -4   8    3.21    4.68
  -9   5  -8   -0.15    4.21
   9  -5   8    7.44    4.23
   9  -5   8    1.29    5.66
  -9   6  -8    2.07    4.54
   9  -6   8    5.31    6.14
   9  -6   8    9.50    4.50
   9  -7   8   14.63    6.34
  10   8  -8   15.98    5.23
  10   7  -8    4.38    2.01
  10   7  -8    3.52    2.65
 -10  -7   8    5.77    1.57
  10   6  -8    4.14    2.97
  10   6  -8    8.69    2.18
 -10  -6   8    0.52    3.63
 -10  -6   8    8.29    1.85
  10   5  -8   15.87    5.03
  10   5  -8   22.48    8.43
  10   5  -8    7.41    6.75
  10   5  -8   31.41    6.67
 -10  -5   8   17.47    6.79
 -10  -5   8   15.46    4.83
 -10  -5   8   12.89    7.42
  10   4  -8   -0.17    0.94
  10   4  -8   -1.46    2.27
  10   4  -8   -1.28    3.93
  10   4  -8    0.29    2.27
 -10  -4   8    0.62    2.85
 -10  -4   8    0.98    0.83
 -10  -4   8    2.87    2.63
  10   3  -8    1.87    2.31
  10   3  -8   -5.71    2.57
  10   3  -8   -0.43    0.81
 -10  -3  -8    1.43    3.49
  10   3  -8    0.67    3.26
  10   3   8    0.42    4.18
 -10  -3   8   -4.83    2.77
 -10  -3   8    1.88    3.19
 -10  -3   8    1.59    0.81
 -10  -3   8    2.42    2.99
  10   3   8   -0.62    2.96
  10   2  -8    4.24    2.54
 -10  -2  -8    9.14    3.53
  10   2  -8    4.51    3.20
  10   2  -8    4.75    1.27
  10   2  -8   -0.73    3.23
  10   2   8    3.27    2.81
 -10  -2   8    2.04    3.50
 -10  -2   8    4.36    1.32
 -10  -2   8    4.74    3.22
  10   2   8    4.00    4.75
 -10  -2   8    3.20    3.53
  10   1  -8   -7.29    4.08
  10   1  -8    0.62    0.75
 -10  -1  -8    2.10    2.93
  10   1  -8   -0.69    2.41
  10   1  -8    3.12    3.39
  10   1   8   -1.99    2.37
 -10  -1   8    1.04    3.68
 -10  -1   8   -0.67    3.49
 -10  -1   8   -3.53    3.38
  10   1   8    1.53    5.12
  10   0  -8   17.86    6.12
  10   0  -8    8.49    2.71
  10   0  -8   10.25    4.38
  10   0  -8    7.22    4.86
 -10   0  -8   20.60    4.21
  10   0   8    8.17    3.86
 -10   0   8    7.00    5.41
  10   0   8   10.68    6.62
 -10   0   8    5.91    4.62
  10  -1  -8    3.45    5.33
  10  -1  -8    1.11    4.14
 -10   1  -8   -1.21    3.20
  10  -1  -8    0.06    0.99
  10  -1   8    3.66    2.95
 -10   1   8    1.75    3.64
  10  -1   8    2.52    5.12
  10  -2  -8    4.32    4.45
  10  -2  -8    4.62    1.69
 -10   2  -8    8.73    3.94
 -10   2  -8    5.58    5.08
  10  -2   8    1.28    4.79
  10  -2   8    3.81    3.75
 -10   3  -8    2.33    4.72
 -10   3  -8    0.71    4.48
  10  -3   8    1.47    3.89
  10  -3   8   -1.43    3.77
 -10   4  -8    0.71    5.11
 -10   4  -8    4.95    4.94
  10  -4   8    0.60    4.25
  10  -4   8   -2.97    5.03
 -10   6  -8    6.32    5.05
  10  -6   8    0.57    6.88
  10  -6   8    2.32    5.00
  10  -7   8   -0.12    4.89
  11   8  -8    0.93    2.53
  11   7  -8    5.35    2.00
  11   7  -8    2.17    2.81
 -11  -7   8    4.84    1.53
  11   6  -8    5.97    2.19
  11   6  -8    4.78    3.17
 -11  -6   8    5.97    3.63
 -11  -6   8    7.66    1.87
 -11  -6   8    4.34    4.03
  11   5  -8   -0.93    2.72
  11   5  -8    2.66    1.49
  11   5  -8    5.10    5.50
  11   5  -8    1.17    2.49
 -11  -5   8    1.69    1.01
 -11  -5   8   -0.27    3.22
 -11  -5   8    1.94    3.21
  11   4  -8    5.37    3.20
  11   4  -8    7.50    1.90
  11   4  -8    0.55    4.56
  11   4  -8    3.86    3.03
 -11  -4   8    6.47    3.87
 -11  -4   8    6.46    3.39
 -11  -4   8    5.46    4.03
 -11  -4   8    7.09    1.76
  11   3  -8   -1.37    3.41
 -11  -3  -8    1.24    3.93
  11   3  -8   -1.54    2.64
  11   3  -8    5.21    1.22
  11   3  -8    4.24    2.95
 -11  -3   8    3.69    3.49
 -11  -3   8    3.01    3.21
 -11  -3   8    2.97    3.67
 -11  -3   8    3.43    1.16
  11   3   8    2.27    3.23
  11   1  -8   18.30    6.18
  11   1  -8    1.88    7.52
  11   1  -8   17.38    6.63
  11   1  -8   18.19    4.16
  11   1   8   -3.21    5.80
 -11  -1   8   27.91    6.55
 -11  -1   8   16.60    6.01
 -11  -1   8   17.25    8.25
  11   0  -8   -0.47    0.83
  11   0  -8   -0.79    5.16
  11   0  -8    0.84    2.72
  11   0  -8   -2.87    4.26
 -11   0   8   -0.90    3.92
 -11   0   8   -3.80    4.04
  11  -1  -8   23.35    7.68
  11  -1  -8   23.43    5.43
  11  -1  -8   17.67    9.44
 -11   1   8   20.28    7.19
 -11   3  -8   11.16    5.18
 -11   3  -8    0.53    5.76
  11  -3   8   -8.64    4.61
 -11   4  -8    7.28    6.36
 -11   4  -8    8.11    5.66
  11  -4   8    1.11    5.01
  11  -4   8   -2.97    5.92
 -11   5  -8    3.58    5.40
  11  -5   8   -7.90    5.11
  11  -5   8    1.67    7.03
 -11   6  -8    5.09    5.55
  11  -6   8   16.61    7.49
  11  -6   8   -4.49    5.48
 -11   7  -8    0.67    5.39
  11  -7   8   -3.37    5.36
  12   8  -8   -0.55    2.75
  12   7  -8   -0.09    2.71
 -12  -7   8    1.74    1.21
 -12  -7   8   -1.98    3.33
  12   6  -8   -1.34    2.73
  12   6  -8    0.32    1.68
 -12  -6   8    4.51    3.48
 -12  -6   8    1.70    1.10
  12   5  -8   -2.44    1.56
  12   5  -8   -1.41    2.63
  12   5  -8    1.80    2.88
  12   5  -8   -0.49    5.24
 -12  -5   8    2.39    3.49
 -12  -5   8    0.95    3.56
 -12  -5   8   -0.22    1.03
  12   4  -8   -0.74    4.78
  12   4  -8    2.30    2.89
  12   4  -8    2.56    2.85
  12   4  -8    1.60    1.32
 -12  -4   8    3.44    3.38
 -12  -4   8    3.24    4.13
 -12  -4   8    0.53    1.12
 -12  -4   8    4.76    3.74
 -12  -3  -8   -2.82    4.28
  12   3  -8   -0.54    3.16
  12   3  -8   -4.43    3.75
 -12  -3   8    0.61    4.14
 -12  -3   8    1.64    0.98
 -12  -3   8   -0.27    3.36
  12   3   8    6.07    3.48
 -12  -3   8    2.87    3.69
  12   2  -8    3.47    9.18
 -12  -2  -8   34.86    8.25
  12   2  -8   28.23    7.77
 -12  -2   8   24.96    6.38
 -12  -2   8   24.23    7.71
  12   2   8   27.38    7.51
 -12  -2   8   27.01    7.88
 -12  -1  -8    1.94    3.86
  12   1  -8    4.84    4.21
  12   1  -8    4.72    5.18
 -12  -1   8   -0.79    4.51
  12   1   8  -10.93    6.68
  12   1   8   -0.08    3.03
 -12  -1   8    0.54    4.18
  12   0  -8   28.81   13.91
  12   0  -8   36.18   11.53
 -12   0  -8   48.22   11.40
 -12   0   8   38.03   11.99
 -12   0   8   41.10   10.91
  12   0   8   32.01   10.90
  12   0   8   12.27   14.91
 -12   1  -8   -4.14    6.58
 -12   1  -8    0.12    4.37
  12  -1  -8   -2.16    5.21
  12  -1  -8   -0.75    6.56
  12  -1   8   -5.94    6.75
 -12   1   8    1.81    4.55
  12  -1   8   -1.83    3.98
  12  -2  -8   13.04    7.94
 -12   2  -8   32.88    8.30
 -12   2  -8   22.52    8.96
 -12   2   8   20.03    7.51
  12  -2   8   21.46    7.65
  12  -2   8   -4.62    9.29
 -12   3  -8    0.60    6.61
 -12   3  -8    1.65    5.77
  12  -3   8   -0.70    5.27
  12  -3   8  -11.03    5.11
 -12   4  -8   26.28    7.24
 -12   4  -8    8.04    7.82
 -12   5  -8   -4.14    7.71
  12  -5   8    3.35    5.48
 -13  -5   8    2.38    5.12
 -13  -5   8   11.65    4.46
  13   4  -8    2.89    4.87
  13   4  -8    1.91    3.15
 -13  -4  -8    3.03    4.79
 -13  -4   8    2.90    4.65
 -13  -4   8    3.89    3.66
 -13  -3  -8   26.47    5.44
  13   3  -8   -5.94    4.77
  13   3  -8    8.38    4.27
 -13  -3   8    4.79    4.38
 -13  -3   8    4.38    5.25
  13   2  -8    3.90    4.21
  13   2  -8   -3.13    4.73
 -13  -2   8   -1.40    4.63
  13   2   8   -2.84    7.00
 -13  -2   8    1.08    4.14
  13   1  -8   23.21    7.06
  13   1  -8   10.71    8.52
 -13  -1   8   16.33    6.93
 -13  -1   8   17.34    7.32
  13   0  -8   -9.14    6.37
  13   0  -8   -1.20    5.23
 -13   0   8    4.97    5.90
 -13   0   8    0.80    4.74
  13  -1  -8   20.85    9.54
  13  -1  -8   22.07    8.06
 -13   1   8   15.71    7.33
  13  -2  -8    4.65    6.76
 -13   2   8   22.16    5.86
  13  -3   8    8.95    6.88
 -13   4  -8   -0.45    7.05
  13  -4   8   -7.77    7.35
 -13   5  -8   -3.32    8.13
 -13   5  -8   -0.70    6.83
  13  -5   8   -1.26    6.21
  13  -5   8  -16.72    8.88
 -13   6  -8   -0.86    8.45
 -13   6  -8   -1.47    6.69
  13  -6   8  -10.72    8.55
  13  -6   8   12.56    6.56
 -13   7  -8    0.79    6.24
  13  -7   8   -2.80    6.42
  14   4  -8   -0.42    4.26
 -14  -4  -8    0.19    5.94
  14   4   8   -0.13    4.77
 -14  -4   8   -1.76    4.83
  14   3  -8    3.87    4.14
 -14  -3  -8    0.53    5.79
 -14  -3   8    2.95    4.61
  14   3   8    0.34    4.16
 -14  -2  -8    0.31    5.04
 -14  -2   8   -5.65    4.76
  14   2   8   -4.32    3.90
  14   2   8    0.11    7.79
  14   1  -8   23.86   13.90
 -14  -1  -8    4.79   14.35
 -14  -1   8   -0.41   14.12
  14   1   8   52.29   13.45
 -14   0  -8   33.70   20.21
 -14   0  -8   39.83   19.08
 -14   2  -8   -8.00    6.75
 -14   2  -8   -8.22    9.24
 -14   2   8  -18.07    6.05
  14  -3  -8  -24.15    7.15
 -14   3  -8    4.50    8.58
 -14   3  -8   -0.19    7.47
  14  -3   8    2.40    7.78
  14  -3   8    6.54    6.25
 -14   4  -8    9.17    8.49
 -14   4  -8    1.41    8.51
  14  -4   8   10.34    9.34
  14  -4   8   -7.48    6.85
 -14   5  -8    2.62    7.71
 -14   5  -8    0.22    8.63
  14  -5   8   12.62    6.74
  14  -5   8    4.67    9.76
 -14   6  -8   -2.17    7.34
 -14   6  -8    5.41    9.30
  14  -6   8   -2.39    8.77
  14  -6   8   -3.91    6.71
 -14   7  -8   -3.44    7.21
  14  -7   8  -11.98    7.10
 -15  -4  -8   -0.62    5.84
  15   4   8    0.36    7.74
 -15  -4   8   -0.17    5.89
  15   4   8   -5.44    4.48
  15   3  -8   -1.61    5.19
 -15  -3  -8   -0.20    6.11
  15   3  -8    9.79    3.80
 -15  -3   8    2.54    5.94
  15   3   8    3.63    4.43
 -15  -2  -8   -1.05    5.71
  15   2  -8   -0.18    6.68
 -15  -2   8   -6.14    5.93
  15   2   8    0.11    4.28
 -15  -2   8   13.48    5.33
  15   1  -8   -2.18    7.09
 -15  -1  -8   -0.16    5.41
  15   1  -8   -4.34    5.69
  15   1   8    3.65    8.12
 -15  -1   8   -3.64    5.60
  15   1   8    5.16    4.23
 -15  -1   8   -0.60    5.82
  15   0  -8    5.11    7.39
 -15   0  -8  -11.79    9.69
  15   0  -8    1.85    6.29
 -15   0  -8    1.66    5.69
  15   0   8   -4.38    8.03
 -15   0   8   -2.30    5.66
 -15   0   8    0.52    6.74
  15   0   8    0.11    4.40
  15  -1  -8   -0.31    6.71
 -15   1  -8    0.36    6.23
  15  -1  -8    8.18    7.54
 -15   1  -8  -31.94   11.02
 -15   1   8   -1.62    8.09
  15  -1   8   -9.73    7.32
  15  -1   8  -11.16    5.57
 -15   1   8    4.92    5.79
  15  -2  -8    5.32    7.04
 -15   2  -8   -2.52   10.02
 -15   2  -8   -7.29    7.57
  15  -2   8   15.13    6.45
 -15   2   8    8.74    6.00
  15  -2   8   -0.10    6.98
 -15   3  -8    4.50    9.00
  15  -3  -8   14.71    7.46
 -15   3  -8   -0.62    7.76
  15  -3   8   -7.68    8.07
  15  -3   8    4.38    6.57
 -15   4  -8    1.11    8.35
 -15   4  -8    2.01    8.97
  15  -4   8    1.60    6.62
  15  -4   8    1.45    9.57
 -15   5  -8    9.38    8.38
 -15   5  -8    9.45    9.18
  15  -5   8   -0.82    6.92
  15  -5   8    0.67   10.18
 -15   6  -8   17.96    9.96
 -15   6  -8  -16.26    8.50
  15  -6   8   15.35    7.07
  15  -6   8  -18.91   10.15
 -15   7  -8  -11.33    8.08
 -15   7  -8    7.31   10.35
  15  -7   8   -1.73    7.17
 -16  -4  -8    0.46    6.96
  16   4   8   -2.24    8.96
  16   4   8   -7.84    5.00
 -16  -3  -8    0.22    6.89
 -16  -3   8  -24.07    7.67
  16   3   8  -11.16    5.31
 -16  -2  -8    3.13    6.18
  16   2  -8   -3.67    5.50
  16   2  -8    0.11    7.15
 -16  -2   8    6.58    6.47
 -16  -2   8   -4.89    5.68
  16   2   8   -2.40    4.64
 -16  -1  -8    6.55    9.69
  16   1  -8   -1.56    7.55
 -16  -1  -8   -0.74    6.24
  16   1  -8    5.04    6.17
 -16  -1   8    7.01    6.51
 -16  -1   8   -1.42    6.13
  16   1   8   -1.77    4.69
  16   1   8  -13.06    8.69
  16   0  -8   -9.30    8.27
 -16   0  -8   15.40   10.33
  16   0  -8   -4.79    6.84
 -16   0  -8    5.07    6.51
  16   0   8    4.87    4.86
 -16   0   8    2.22    7.43
 -16   0   8   -5.89    6.11
  16   0   8   -6.92    8.44
  16  -1  -8   -0.14    7.92
  16  -1  -8   10.24    7.38
 -16   1  -8   -2.59    7.02
 -16   1  -8   -4.97   10.45
 -16   1   8   11.95    8.71
  16  -1   8   -4.03    5.56
 -16   1   8   -0.89    6.25
  16  -1   8    0.99    7.45
 -16   2  -8    6.54   10.69
  16  -2  -8    4.51    7.90
 -16   2  -8   -4.31    7.92
  16  -2   8    2.99    6.06
 -16   2   8    1.44    6.25
 -16   2   8    0.24    9.57
  16  -2   8    0.11    7.59
  16  -3  -8    9.28    8.19
 -16   3  -8    3.87    8.83
 -16   3  -8   -1.89   10.29
  16  -3   8  -19.67    7.67
 -16   4  -8   15.95   10.07
 -16   4  -8   -4.60    9.37
  16  -4   8   16.34   11.22
  16  -4   8   -9.72    7.63
 -16   5  -8    5.19    9.47
 -16   5  -8    3.30    9.69
  16  -5   8    9.79   11.26
  16  -5   8   -4.09    7.40
 -16   6  -8    7.31   10.87
 -16   6  -8    1.01    8.99
  16  -6   8   14.72    7.91
  16  -6   8   -2.51   11.30
 -16   7  -8   -1.14   11.12
 -16   7  -8   -4.17    8.69
  16  -7   8    2.05    7.81
 -17  -4  -8    0.25    7.30
  17   4   8   -1.62    5.41
  17   4   8   11.58    9.87
 -17  -3  -8    0.24    7.49
 -17  -3   8  -13.51    7.22
 -17  -3   8   -4.36    5.64
  17   3   8   -7.77    5.47
 -17  -2  -8   -0.44    6.79
  17   2  -8    3.11    7.77
  17   2  -8   10.24    5.63
 -17  -2   8    1.48    6.15
 -17  -2   8   11.93    7.07
  17   2   8   -3.23    5.22
 -17  -1  -8   -5.53   10.43
  17   1  -8    3.12    6.93
 -17  -1  -8   -0.21    6.99
  17   1  -8   -0.14    8.75
 -17  -1   8    3.99    6.75
  17   1   8    1.83    5.33
 -17  -1   8   23.79    7.21
  17   1   8    1.46    8.72
  17   0  -8   -0.44    8.97
 -17   0  -8    0.43    7.36
  17   0  -8   11.48    7.42
 -17   0  -8   -1.53   10.76
  17   0   8   -7.10    5.36
  17   0   8   11.68    8.50
 -17   0   8  -12.05    6.99
 -17   0   8    6.41    7.93
  17  -1  -8    3.49    9.00
 -17   1  -8    2.92    8.02
 -17   1  -8   19.92   11.97
  17  -1  -8    0.54    8.16
 -17   1   8   -9.99    9.47
 -17   1   8    6.07    6.93
  17  -1   8  -15.16    6.09
  17  -1   8    5.51    7.49
 -17   2  -8    0.24    8.65
 -17   2  -8   -8.21   11.43
  17  -2   8   -7.13    6.77
  17  -2   8    5.28    9.42
 -17   2   8   -9.90   11.21
 -17   3  -8  -12.02   11.88
  17  -3  -8  -21.09   10.26
 -17   3  -8    2.27    9.34
  17  -3   8   -4.96   10.18
 -17   3   8   26.18   11.30
  17  -3   8  -10.06    7.38
 -17   4  -8   11.35   10.47
 -17   4  -8    6.81   11.17
  17  -4   8    9.60    8.32
  17  -4   8   12.85   12.27
 -17   5  -8    2.18   10.65
 -17   5  -8   10.53   11.16
  17  -5   8   13.71    8.70
  17  -5   8   11.06   13.08
 -17   6  -8  -10.66   11.11
 -17   6  -8    0.37   10.32
  17  -6   8   -6.66    8.38
  17  -6   8    2.35   12.64
 -17   7  -8    8.38   12.03
 -18  -4  -8   29.56   14.89
 -18  -3  -8   -0.27    8.99
  18   3   8  -11.67    6.29
  18   3   8    7.38    9.97
 -18  -2  -8    0.75    8.10
  18   2  -8   -3.91    5.77
  18   2   8    0.16    5.79
 -18  -2   8    6.72    6.82
 -18  -2   8   -1.43    7.53
  18   1  -8    6.18    6.80
 -18  -1  -8    0.25    8.19
  18   1  -8    9.21    9.69
 -18  -1  -8   -8.78   11.97
 -18  -1   8  -10.05    7.62
 -18  -1   8    9.61    7.53
  18   1   8   -0.16    5.70
 -18   0  -8    0.35   12.10
 -18   0  -8   -0.24    8.69
  18   0  -8    2.42    8.13
  18   0  -8    2.84    9.54
 -18   0   8    8.86    7.61
  18   0   8    0.38    8.66
 -18   0   8    3.48    8.44
  18   0   8   13.28    6.36
  18  -1  -8    3.31    9.68
 -18   1  -8   -1.01    9.18
 -18   1  -8    1.50   12.57
  18  -1  -8  -11.58    8.69
  18  -1   8    0.26    8.59
 -18   1   8    6.07    9.73
 -18   1   8   -4.52    7.27
  18  -1   8    1.65    6.45
 -18   2  -8    0.54    9.60
 -18   2  -8    7.64   12.93
  18  -2  -8  -10.87    9.08
  18  -2   8    1.90   10.22
 -18   2   8   -8.75   10.91
 -18   2   8   -1.13    7.30
  18  -2   8    5.06    7.09
 -18   3  -8   -8.60   12.84
 -18   3  -8   -0.56   10.60
  18  -3   8   -8.37    8.06
  18  -3   8   -8.78   12.23
 -18   4  -8   24.60   17.48
 -18   4  -8   47.18   17.27
  18  -4   8   47.47   15.18
 -18   5  -8  -33.53   13.84
 -18   6  -8    2.15   12.06
 -18   6  -8    4.99   11.41
  18  -6   8    1.48    9.03
  18  -6   8   10.16   14.08
 -18   7  -8  -14.61   12.16
 -18   7  -8   -4.29   10.95
  18  -7   8    7.11    8.89
 -19  -4  -8   12.41    9.14
  19   4   8  -13.08    7.01
  19   4   8    0.16   11.26
 -19  -3  -8    0.31    9.84
  19   3   8   -3.77    6.88
  19   3   8   -6.85   10.66
 -19  -2  -8    0.28    9.24
  19   2   8   -4.91    6.90
 -19  -2   8    4.80    8.08
 -19  -1  -8   -0.28    9.49
  19   1  -8    4.67    7.58
  19   1  -8    8.16   11.02
  19   1   8  -17.62    6.82
 -19  -1   8   -4.34    8.35
 -19  -1   8    4.33    8.30
 -19   0  -8   -0.28    9.93
  19   0  -8   -1.40    8.65
  19   0  -8  -15.78   10.64
 -19   0  -8   16.43   13.82
 -19   0   8   -1.96    8.13
  19   0   8    4.03    7.07
  19   0   8   -9.93    8.72
 -19   0   8   15.20    9.54
  19  -1  -8    8.95    9.11
 -19   1  -8   -0.28   10.32
  19  -1  -8    3.80   10.71
 -19   1  -8    6.25   14.39
  19  -1   8   -2.12    7.09
 -19   1   8   -2.33    8.00
  19  -1   8   18.04   10.25
 -19   1   8    3.66   10.49
  19  -2  -8   15.09    9.73
 -19   2  -8    0.30   10.73
 -19   2  -8    0.85   14.16
  19  -2   8    2.98   12.38
 -19   2   8  -23.19   11.58
  19  -2   8    7.74    7.94
 -19   2   8   -8.60    7.83
 -19   3  -8    5.27   14.34
 -19   3  -8   -0.62   11.42
  19  -3   8    1.42    8.49
  19  -3   8   -6.30   13.33
 -19   4  -8    0.89   13.91
 -19   4  -8    0.63   11.81
  19  -4   8   11.14   15.40
  19  -4   8   -5.76    8.90
 -19   5  -8    6.78   13.58
 -19   5  -8    0.32   12.49
  19  -5   8   -9.64    9.66
  19  -5   8    0.25   15.30
 -19   6  -8    6.96   12.72
  19  -6   8   -4.36    9.84
 -20  -1   8   -1.20    9.24
 -20  -1   8    0.30    9.06
  20   0  -8  -12.00    8.83
  20   0  -8    2.68   11.55
 -20   0   8    8.30   10.07
 -20   0   8    2.47    8.80
  20  -1  -8   -7.02    9.79
 -20   1   8   -9.63    8.58
 -20   1   8   -0.56   11.04
  20  -2  -8   11.21   10.32
 -20   2   8  -14.82   12.30
   0   0  -9    0.05    0.55
   0   0  -9   -0.28    1.03
   0   0   9    0.10    1.35
  -1   0  -9   47.87   12.11
   0   1  -9   47.74   13.09
   1   0  -9   59.68   13.07
  -1   0   9   48.57   13.81
   0  -1   9   45.18   13.73
   1   1  -9    0.43    1.11
  -1   1  -9   -0.63    0.46
  -1   1  -9   -0.26    1.01
   1  -1   9   -0.04    1.38
   1  -1   9   -0.43    0.97
  -1  -1   9    0.04    1.34
  -1   2  -9    2.60    1.19
  -1   2  -9    1.54    0.56
  -1   2  -9    1.96    0.84
   1  -2   9    1.52    1.46
   1  -2   9    1.47    0.85
   1  -2   9    1.44    1.25
   0   2  -9    0.24    1.09
  -2   0  -9   -0.49    0.59
   0   2  -9    0.08    0.38
   0  -2   9    0.21    1.15
  -2   1  -9    1.75    1.20
  -2   1  -9    2.09    0.63
  -2   1  -9    1.08    0.96
   2  -1   9    1.09    1.60
   2  -1   9    1.61    1.50
  -2   2  -9   -0.22    0.83
  -2   2  -9   -0.08    0.34
  -2   2  -9    0.07    1.01
   2  -2   9   -0.02    1.82
   2  -2   9   -0.21    1.17
   2  -2   9    0.17    0.84
  -2   3  -9    4.87    1.45
  -2   3  -9    6.23    2.00
   3   2  -9    4.14    1.77
  -2   3  -9    4.55    1.89
  -2   3  -9    5.95    1.82
   3   2  -9    7.72    2.12
   3   2  -9    4.97    1.43
   2  -3   9    5.67    1.38
   2  -3   9    4.57    1.82
  -3  -2   9    4.31    2.24
   2  -3   9    4.61    2.37
   2  -3   9    6.31    1.92
  -1   3  -9    4.76    1.56
  -1   3  -9    3.83    1.56
  -1   3  -9    5.13    1.11
   3   1  -9    3.17    1.17
  -1   3  -9    3.73    1.36
   1  -3   9    1.86    1.59
   1  -3   9    4.07    1.07
   1  -3   9    3.53    1.38
   1  -3   9    6.47    2.20
  -3   0  -9    0.08    0.60
   3   0  -9    0.40    0.74
   3   0   9   -0.07    1.36
  -3   1  -9    1.89    1.61
  -3   1  -9    4.82    1.67
  -3   1  -9    4.74    1.17
   3  -1   9    3.36    2.48
   3  -1   9    4.19    1.92
   3  -1   9    3.06    1.66
   2   3  -9    6.35    1.47
  -3   2  -9    4.93    1.49
   2   3  -9    7.32    1.99
  -3   2  -9    5.10    1.98
  -3   2  -9    4.71    1.87
   3  -2   9    3.50    2.89
   3  -2   9    6.40    2.11
   3  -2   9    5.51    1.95
  -2  -3   9    5.71    2.07
  -3   3  -9    0.21    0.94
  -3   3  -9    0.26    0.37
  -3   3  -9    0.63    1.24
   3   3  -9   -0.17    0.89
   3   3  -9   -0.55    1.17
  -3   3  -9   -0.30    1.69
   3   3  -9   -0.27    0.44
   3  -3   9   -0.26    1.32
   3  -3   9    0.37    1.01
  -3  -3   9   -0.81    0.93
  -3  -3   9   -0.13    1.28
   3  -3   9   -0.10    1.58
  -3  -3   9    0.29    0.52
   3  -3   9   -0.08    0.29
   4   3  -9   10.44    3.81
  -3   4  -9   13.81    3.27
   4   3  -9   12.80    3.90
   4   3  -9    6.56    4.23
  -3   4  -9   11.72    3.75
   4   3  -9   11.07    3.00
  -3   4  -9   14.53    3.70
  -4  -3   9   12.61    3.41
   3  -4   9   13.14    2.99
  -4  -3   9   11.27    3.96
   3  -4   9   16.44    4.90
  -4  -3   9   11.21    3.64
   3  -4   9    9.12    3.93
   4   2  -9    1.24    1.42
   4   2  -9    0.57    2.22
   4   2  -9    0.36    0.53
   4   2  -9    0.02    1.14
  -2   4  -9    0.60    0.90
  -4  -2   9   -0.21    1.37
  -4  -2   9   -0.53    1.26
   2  -4   9    0.91    1.40
  -4  -2   9    0.17    1.58
   4   1  -9    6.78    2.28
   4   1  -9    5.53    2.25
   4   1  -9    4.65    1.54
  -4  -1   9    4.17    2.67
   1  -4   9    6.47    2.12
   4   0  -9    0.05    0.74
  -4   0  -9    0.27    1.36
   0   4  -9    0.10    0.47
  -4   0  -9    0.42    0.60
   4   0  -9    0.49    1.49
   4   0   9   -0.24    1.39
  -4   0   9    0.26    2.05
   0  -4   9   -0.42    0.39
   1   4  -9    6.62    2.06
   1   4  -9    5.78    1.65
  -4   1  -9    6.47    1.74
  -4   1  -9    6.32    2.17
   4  -1   9    7.80    3.29
   4  -1   9    5.26    2.19
  -1  -4   9    6.43    1.58
  -4   2  -9   -0.32    1.06
  -4   2  -9    0.24    0.30
   2   4  -9   -0.04    1.10
  -4   2  -9    0.49    1.19
   2   4  -9    0.58    0.51
   4  -2   9    4.07    2.53
  -2  -4   9    0.07    0.43
   4  -2   9    0.15    1.35
   4  -2   9   -0.08    1.24
  -4   3  -9   13.43    3.44
  -4   3  -9   14.70    3.99
  -4   3  -9   16.79    3.84
   3   4  -9   10.15    3.83
  -4   3  -9   12.37    3.87
   3   4  -9    8.51    4.27
   4  -3   9   11.71    3.22
   4  -3   9   14.51    4.24
   4  -3   9   12.03    3.85
   4  -3   9   15.06    3.93
  -4   4  -9    0.21    0.54
   4   4  -9   -0.27    1.57
   4   4  -9   -0.11    0.53
   4   4  -9   -0.14    1.17
  -4   4  -9   -0.39    0.88
  -4  -4   9    0.04    0.49
   4  -4   9   -1.09    2.07
   4  -4   9    0.02    0.32
   5   4  -9   15.21    6.85
   5   4  -9   14.29    5.78
   5   4  -9   20.74    6.00
  -4   5  -9   25.20    6.12
   5   4  -9   16.76    4.70
  -5  -4   9   12.26    5.71
  -5  -4   9   20.45    4.60
  -5  -4   9   18.08    6.26
   5   3  -9   32.66   10.06
   5   3  -9   37.36    9.85
   5   3  -9   26.43    7.99
   5   3  -9   17.96   10.76
   3  -5   9   49.03   10.00
  -5  -3   9   31.81    9.56
  -5  -3   9   28.45   10.24
  -5  -3   9   36.86    8.50
   5   2  -9   12.00    4.99
   5   2  -9   19.58    5.37
   5   2  -9   18.77    4.29
   5   2  -9   21.70    6.69
  -5  -2   9   16.71    4.91
  -5  -2   9   20.55    5.64
  -5  -2   9   18.47    4.99
   5   1  -9   12.61    4.15
   5   1  -9   11.75    3.26
  -1   5  -9   12.48    3.50
   5   1  -9   14.40    4.34
  -1   5  -9   11.60    3.95
  -5  -1  -9    7.81    4.49
   5   1   9   16.74    4.34
   1  -5   9   12.25    3.21
  -5  -1   9   12.20    3.91
  -5  -1   9   12.09    4.83
   0   5  -9   20.81    4.76
  -5   0  -9   21.67    5.67
   0   5  -9   19.57    5.24
   5   0  -9   15.06    5.71
  -5   0  -9    8.12    5.19
   5   0  -9   20.92    4.66
   5   0   9   28.08    5.52
   0  -5   9   17.92    4.50
   5   0   9   21.73    6.09
  -5   0   9   11.22    6.35
   1   5  -9   13.97    3.67
   1   5  -9   13.69    4.15
  -5   1  -9   16.45    3.82
   5  -1   9   14.42    5.66
  -1  -5   9   13.52    3.46
   2   5  -9   16.38    4.52
   2   5  -9   18.95    5.09
  -5   2  -9   18.09    4.72
  -5   2  -9   18.26    5.28
  -2  -5   9   17.91    4.35
   5  -2   9   21.04    4.48
   5  -2   9   19.50    5.51
  -5   3  -9   34.22    9.27
   3   5  -9   31.23    9.83
  -5   3  -9   31.05   10.59
  -5   3  -9   38.17    9.17
   3   5  -9   41.97   11.76
   5  -3   9   30.65    8.55
   5  -3   9   32.37   10.28
   5  -3   9   37.67   10.75
   4   5  -9   21.54    6.65
   4   5  -9   27.41    7.87
   4   5  -9   25.08    5.71
  -5   4  -9   21.00    6.43
  -5   4  -9   30.82    7.02
  -4  -5   9   17.37    5.53
  -5   5  -9   -0.77    0.93
   5   5  -9   -5.52    2.36
   5   5  -9   -0.80    1.34
   5   5  -9   -0.16    0.78
  -5   5  -9   -0.63    2.89
  -5  -5   9    0.05    0.62
   6   5  -9    2.33    1.83
   6   5  -9   10.27    2.85
   6   5  -9    1.59    1.12
  -6  -5   9    2.29    1.00
   5  -6   9    4.76    3.06
   6   4  -9   37.74   10.46
   6   4  -9   37.17   10.21
   6   4  -9   20.51   11.26
   6   4  -9   30.69    8.18
  -6  -4   9   34.44    8.06
  -6  -4   9   36.29   10.08
  -6  -4   9   31.10   10.69
   6   3  -9   45.60   12.94
  -3   6  -9   46.64   12.60
   6   3  -9   35.22   10.38
  -6  -3   9   41.18   11.02
  -6  -3   9   48.06   10.31
   6   2  -9   19.14    6.97
  -2   6  -9   26.02    7.22
   6   2  -9   25.98    7.52
   6   2  -9   28.80    5.97
   6   2  -9   17.75    9.01
  -6  -2   9   25.23    6.84
  -6  -2   9   25.51    8.07
  -6  -2   9   26.56    6.82
  -1   6  -9   11.65    4.29
  -6  -1  -9   11.00    4.89
   6   1  -9   13.06    4.68
   6   1  -9   18.88    4.48
   6   1  -9   14.82    3.62
  -1   6  -9   13.17    3.89
   6   1   9   17.04    4.86
   6   1   9   18.12    4.68
   1  -6   9   16.31    3.60
  -6  -1   9   14.57    5.23
   0   6  -9   -0.06    0.74
  -6   0  -9    0.46    0.58
   6   0  -9   -0.50    0.80
  -6   0  -9   -0.18    1.70
   6   0  -9    0.89    1.85
   0   6  -9    0.04    0.98
  -6   0   9    0.30    2.55
   6   0   9   -1.73    3.13
   6   0   9   -0.09    1.56
   0  -6   9    0.33    0.47
   6  -1  -9   16.34    3.72
  -6   1  -9   14.60    4.28
   1   6  -9   13.13    4.17
   1   6  -9   14.65    3.75
  -6   1  -9   11.62    3.76
  -1  -6   9   15.39    3.47
   6  -1   9   16.70    5.92
   6  -1   9   14.13    4.25
   2   6  -9   20.11    6.88
   2   6  -9   29.61    6.09
  -6   2  -9   25.76    6.50
  -6   2  -9   23.91    6.85
   6  -2   9   26.44    7.52
  -2  -6   9   22.23    5.70
   6  -2   9   29.26    6.73
   6  -2   9   23.36    6.02
   6  -2   9    9.10    8.73
  -6   3  -9   43.96   11.74
   3   6  -9   18.24   11.32
  -6   3  -9   39.69   10.70
  -6   3  -9   44.03   12.59
   6  -3   9   40.67    9.56
   6  -3   9   39.94   12.15
   4   6  -9   40.71   11.76
   4   6  -9   36.75    9.87
  -6   4  -9   29.95    9.38
  -6   4  -9   30.89   10.96
  -4  -6   9   35.16    8.15
   6  -4   9   24.52   11.39
   6  -4   9   39.57   10.34
   5   6  -9    2.92    1.61
  -6   5  -9    4.21    3.02
   5   6  -9    1.84    1.21
  -6   5  -9    2.32    1.29
   5   6  -9    5.46    2.47
   6  -5   9    1.86    4.17
   6  -5   9    3.55    3.10
  -5  -6   9    2.68    0.96
   6   6  -9   -0.14    1.05
  -6   6  -9    0.13    0.99
   6   6  -9    0.18    1.56
  -6  -6   9    0.90    0.71
   6  -6   9   -0.97    3.20
   7   6  -9    0.26    1.70
   7   6  -9    1.15    1.12
   6  -7   9    0.16    3.34
  -7  -6   9   -0.12    0.81
   7   5  -9   11.11    4.21
   7   5  -9   10.69    3.18
  -7  -5   9   12.25    3.04
   7   4  -9    0.83    1.74
   7   4  -9    0.61    0.73
  -7  -4   9   -0.20    0.64
  -7  -4   9   -0.05    2.06
   7   3  -9  100.42   25.56
   7   3  -9  120.11   31.28
  -7  -3   9  106.40   32.62
  -7  -3   9  108.99   25.47
   7   2  -9    0.80    0.70
  -7  -2  -9    1.27    2.32
   7   2  -9    0.60    1.87
  -7  -2   9    0.63    2.45
  -7  -2   9    2.26    2.33
   7   2   9    0.81    2.66
   7   1  -9   31.92    7.07
   7   1  -9   25.03    9.24
  -7  -1  -9   30.45    9.16
   7   1  -9   15.85   11.54
  -7  -1   9   21.92    8.35
   7   1   9   33.95    9.39
  -7  -1   9   18.94   10.32
   7   1   9   39.70    8.71
  -7   0  -9   -0.38    0.45
  -7   0  -9    0.44    1.91
   0   7  -9   -0.27    1.14
   7   0  -9   -0.51    0.90
   7   0  -9   -1.30    2.26
  -7   0   9    0.08    3.03
  -7   0   9   -5.10    2.98
   7   0   9   -0.96    1.86
   7  -1  -9   22.48    6.93
  -7   1  -9   29.10    7.96
   7  -1  -9   22.50    8.37
   1   7  -9   28.74    8.05
   7  -1   9   24.75    7.83
   7  -1   9   24.68   10.70
   2   7  -9    1.17    0.94
   2   7  -9    0.54    1.20
  -7   2  -9    1.12    2.20
   7  -2   9    8.50    3.79
  -2  -7   9    0.41    0.69
   7  -2   9    4.77    2.42
   3   7  -9  110.42   27.06
  -7   3  -9   90.07   24.98
  -7   3  -9  107.61   27.61
   7  -3   9   65.46   30.24
   7  -3   9  100.80   26.61
  -7   4  -9   -0.88    3.15
   4   7  -9    0.05    1.35
  -7   4  -9    0.09    3.36
   4   7  -9    0.16    0.99
   7  -4   9    3.34    3.36
  -4  -7   9   -0.49    0.69
   7  -4   9    0.07    3.06
   5   7  -9   13.26    3.45
  -7   5  -9    7.23    4.90
   5   7  -9   15.08    4.02
   7  -5   9    8.33    5.06
   7  -5   9   15.39    6.59
  -5  -7   9   13.42    3.15
   6   7  -9   -0.06    1.55
   6   7  -9    0.84    1.12
  -7   6  -9   -1.77    3.55
   7  -6   9   -1.15    3.45
  -6  -7   9   -1.20    0.75
   7   7  -9    0.27    1.33
   7   7  -9   -0.52    1.68
   7  -7   9    0.89    3.74
  -7  -7   9   -0.32    0.86
   8   7  -9   12.19    5.75
   8   7  -9   20.70    4.84
  -8  -7   9   20.53    4.51
   8   6  -9    6.05    1.80
   8   6  -9    4.13    2.55
  -8  -6   9    4.46    1.52
   8   5  -9   -0.44    0.97
   8   5  -9   -1.00    1.91
   8   5  -9    1.69    3.48
   8   5  -9   -0.41    1.97
  -8  -5   9    0.33    0.77
  -8  -5   9    1.54    2.26
  -8  -5   9    0.46    2.26
   8   4  -9    4.24    3.25
   8   4  -9    3.52    2.32
   8   4  -9    4.26    1.34
   8   4  -9    3.90    2.26
  -8  -4   9    3.24    2.41
  -8  -4   9    3.80    1.32
  -8  -4   9    5.40    2.74
   8   3  -9   -0.43    2.08
   8   3  -9    0.44    2.04
   8   3  -9    1.37    0.76
   8   3  -9    3.31    2.33
  -8  -3   9    0.54    2.06
  -8  -3   9    0.60    2.38
  -8  -3   9    0.40    2.48
  -8  -3   9    1.33    0.76
   8   2  -9   12.36    6.49
   8   2  -9   13.61    4.14
   8   2  -9   19.96    5.26
   8   2  -9   12.95    5.62
  -8  -2  -9   15.70    5.99
   8   2   9   14.46    5.82
  -8  -2   9   13.18    5.18
   8   2   9   27.89    5.62
  -8  -2   9   17.54    5.12
  -8  -2   9   15.39    6.37
   8   1  -9    4.87    4.90
  -8  -1  -9    7.09    3.40
   8   1  -9   12.20    3.61
   8   1  -9    7.56    3.31
   8   1  -9    7.92    2.14
  -8  -1   9    7.34    4.26
   8   1   9    3.90    4.43
  -8  -1   9    8.05    3.61
   8   1   9   10.42    3.10
   8   0  -9   -0.65    2.11
   8   0  -9   -0.20    0.87
   8   0  -9    0.24    4.36
   8   0  -9    0.22    2.99
  -8   0  -9    1.60    2.21
  -8   0   9   -0.88    3.26
  -8   0   9   -0.90    2.87
   8   0   9   -3.31    4.30
   8   0   9   -1.10    1.88
   8  -1  -9   10.05    4.06
   8  -1  -9    6.79    2.22
  -8   1  -9    5.54    3.19
   8  -1   9    9.50    3.11
   8  -1   9    5.94    5.42
  -8   2  -9   20.13    6.26
  -8   2  -9   15.13    5.70
   8  -2   9   13.60    7.37
   8  -2   9   23.46    5.60
  -8   3  -9    2.06    3.07
  -8   3  -9   -0.69    3.56
   8  -3   9   -2.04    3.18
   8  -3   9    2.95    3.04
  -8   4  -9    4.10    4.36
  -8   4  -9    3.87    4.05
   8  -4   9    8.75    4.40
   8  -4   9    7.01    3.70
  -8   5  -9    2.62    3.82
   5   8  -9   -0.67    1.59
   8  -5   9   -2.49    5.26
   8  -5   9    0.68    3.82
  -5  -8   9   -0.61    0.78
  -8   6  -9    1.10    4.06
   6   8  -9    6.32    2.28
  -6  -8   9    6.04    1.48
   8  -6   9   -3.11    5.61
   8  -6   9    3.27    4.10
   7   8  -9   17.45    5.14
  -7  -8   9   15.93    3.98
   8  -7   9    9.66    6.21
   8   8  -9   -1.07    2.00
  -8  -8   9   -0.08    0.97
   9   8  -9   17.94    6.15
  -9  -8   9   19.84    4.83
   9   7  -9    2.32    2.20
   9   7  -9    1.99    1.51
  -9  -7   9    1.39    1.13
   9   6  -9    1.80    1.40
   9   6  -9    0.08    2.25
  -9  -6   9    0.07    0.93
   9   5  -9    4.43    1.52
   9   5  -9    0.58    4.09
   9   5  -9    3.75    2.69
   9   5  -9    0.53    2.59
  -9  -5   9    4.16    3.00
  -9  -5   9    2.99    2.97
  -9  -5   9    7.98    1.41
   9   4  -9    3.92    3.56
   9   4  -9    6.74    2.34
   9   4  -9   10.74    3.36
   9   4  -9    8.04    4.32
  -9  -4   9   10.46    2.32
  -9  -4   9    8.93    3.51
  -9  -4   9   10.98    3.50
  -9  -4   9    8.07    4.03
   9   3  -9   -0.23    0.77
   9   3  -9   -2.43    2.45
   9   3  -9    0.50    2.41
   9   3  -9   -0.16    2.27
  -9  -3  -9    1.64    3.07
  -9  -3   9    2.06    2.86
  -9  -3   9    0.12    2.33
  -9  -3   9    0.33    0.82
   9   3   9   -0.24    3.32
  -9  -3   9   -1.37    2.81
   9   2  -9    1.33    2.13
   9   2  -9    3.64    2.70
  -9  -2  -9    0.11    3.04
   9   2  -9    0.19    3.29
   9   2  -9    0.59    0.77
  -9  -2   9    0.61    2.74
  -9  -2   9    1.47    3.09
  -9  -2   9    1.17    2.85
   9   2   9   -0.07    2.54
   9   2   9    0.45    3.74
   9   1  -9    0.07    4.22
   9   1  -9    1.25    0.82
   9   1  -9    0.35    2.21
   9   1  -9   -0.07    3.08
  -9  -1  -9    1.76    2.57
   9   1   9    2.00    4.39
  -9  -1   9    3.03    3.01
   9   1   9    1.51    2.19
  -9  -1   9   -0.84    3.35
  -9   0  -9    3.12    2.49
   9   0  -9    1.01    4.74
   9   0  -9    0.20    0.92
   9   0  -9    0.10    2.39
   9   0  -9    1.14    3.43
   9   0   9    0.11    2.12
  -9   0   9    1.22    3.19
   9   0   9   -1.81    4.88
  -9   0   9    0.66    3.49
   9  -1  -9   -0.51    1.00
  -9   1  -9    0.64    2.67
   9  -1  -9   -2.11    3.79
   9  -1   9    0.08    5.00
   9  -1   9    1.31    2.50
  -9   2  -9    2.65    3.04
  -9   2  -9    1.52    4.19
   9  -2   9    1.00    2.97
   9  -2   9    0.41    4.61
  -9   3  -9    2.84    3.73
  -9   3  -9    0.55    4.42
   9  -3   9    4.29    3.54
   9  -3   9    6.06    3.62
  -9   4  -9    6.39    5.28
  -9   4  -9   13.59    4.95
   9  -4   9   15.39    4.70
   9  -4   9    1.53    5.47
  -9   5  -9    6.86    4.50
   9  -5   9   -1.73    5.79
   9  -5   9    6.96    4.34
  -9   6  -9    0.85    4.57
   9  -6   9    9.20    4.60
   9  -6   9  -14.36    6.62
   9  -7   9    4.82    4.56
   9   9  -9   -0.16    2.23
  10   8  -9   -1.01    2.42
 -10  -8   9    1.47    1.15
  10   7  -9    6.33    2.93
  10   7  -9    4.76    2.09
 -10  -7   9    6.05    1.74
  10   6  -9   11.67    5.35
  10   6  -9   17.49    4.11
 -10  -6   9   11.53    5.79
 -10  -6   9   16.86    3.86
  10   5  -9    3.01    2.49
  10   5  -9    1.65    1.23
 -10  -5   9   -3.50    3.03
 -10  -5   9    1.57    0.97
 -10  -5   9    0.71    3.04
  10   4  -9   -0.22    2.46
  10   4  -9   -6.62    3.63
  10   4  -9    1.01    2.47
  10   4  -9    2.48    1.05
 -10  -4   9    1.80    3.15
 -10  -4   9    1.76    0.97
 -10  -4   9    3.15    2.70
 -10  -4   9    3.77    3.28
 -10  -3  -9    3.81    3.52
  10   3  -9    0.06    2.67
  10   3  -9    0.25    0.83
  10   3  -9    0.04    2.64
  10   3  -9   -0.33    2.29
 -10  -3   9   -0.29    3.25
 -10  -3   9    1.76    0.90
  10   3   9   -4.37    4.02
 -10  -3   9   -0.09    3.17
 -10  -3   9   -2.62    2.74
  10   2  -9    1.26    2.37
  10   2  -9    1.76    0.88
 -10  -2  -9   -1.15    3.22
  10   2  -9    4.55    3.09
  10   2  -9   -4.26    3.99
  10   2   9   -0.08    2.64
 -10  -2   9    1.24    3.46
 -10  -2   9    5.12    3.13
  10   2   9   -3.21    4.52
 -10  -2   9   -0.40    3.33
  10   1  -9    5.01    1.67
  10   1  -9    5.64    5.31
 -10  -1  -9    8.86    3.54
  10   1  -9    7.94    3.84
  10   1  -9    7.28    3.25
 -10  -1   9    4.71    4.33
 -10  -1   9    2.88    3.67
  10   1   9    3.40    2.89
 -10  -1   9    9.34    4.18
  10   1   9    8.25    5.65
 -10   0  -9   -0.70    2.95
  10   0  -9    0.96    2.66
  10   0  -9   -0.44    4.91
  10   0  -9    0.10    0.95
  10   0  -9   -1.72    4.04
  10   0   9    1.41    5.54
 -10   0   9    0.81    3.85
  10   0   9   -2.68    2.47
 -10   0   9   -3.16    3.67
  10  -1  -9    4.61    1.84
 -10   1  -9    6.53    3.53
  10  -1  -9    5.46    4.54
 -10   1   9   10.05    4.12
  10  -1   9    5.25    3.35
  10  -1   9    5.52    5.94
 -10   2  -9    0.44    5.08
  10  -2  -9    3.05    4.59
 -10   2  -9    5.83    3.77
  10  -2   9   11.32    5.11
  10  -2   9    0.74    3.58
 -10   3  -9    0.16    4.99
 -10   3  -9   -2.82    4.08
  10  -3   9   -0.80    4.02
  10  -3   9   -3.85    3.93
 -10   4  -9   15.35    5.34
 -10   4  -9   -0.32    5.41
  10  -4   9   -4.03    4.51
 -10   5  -9   -0.75    5.97
 -10   5  -9   -1.01    4.89
  10  -5   9  -15.05    6.81
  10  -5   9   -5.40    4.71
 -10   6  -9   16.81    6.69
  10  -6   9   14.34    8.49
  10  -6   9   20.08    6.88
 -10   7  -9   -0.83    4.93
  10  -7   9   -6.71    5.13
  10  -8   9    7.51    5.31
  11   8  -9   -3.54    2.71
  11   7  -9    0.34    1.70
  11   7  -9    0.18    2.45
 -11  -7   9    0.94    1.10
 -11  -7   9   -2.55    3.12
  11   6  -9    1.35    2.70
  11   6  -9    3.47    1.67
 -11  -6   9    1.48    1.21
 -11  -6   9    3.54    3.33
  11   5  -9    0.27    2.74
  11   5  -9    1.27    1.40
 -11  -5   9    3.09    3.40
 -11  -5   9    2.10    1.08
  11   4  -9   -0.24    3.62
  11   4  -9   -0.63    2.71
  11   4  -9    1.49    2.54
  11   4  -9   -0.07    1.14
 -11  -4   9    0.19    3.49
 -11  -4   9    3.33    3.45
 -11  -4   9    0.07    1.01
 -11  -4   9    0.48    2.94
  11   3  -9   -5.88    3.10
  11   3  -9   -0.26    2.53
  11   3  -9   -0.43    0.93
  11   3  -9    0.84    3.05
 -11  -3  -9    0.29    3.97
 -11  -3   9   -1.13    0.98
  11   3   9   -0.87    4.85
 -11  -3   9   -1.37    3.66
 -11  -3   9   -3.91    3.15
 -11  -3   9   -0.39    3.78
  11   3   9    4.08    3.32
  11   2  -9    9.45    1.99
 -11  -2  -9    8.17    4.36
  11   2  -9   -0.77    4.67
  11   2  -9    8.04    3.55
  11   2  -9    4.45    4.01
 -11  -2   9    8.09    4.26
  11   2   9    1.79    3.46
 -11  -2   9   10.63    4.00
  11   2   9   -5.23    5.93
 -11  -2   9    4.66    4.77
 -11  -2   9   10.00    2.06
  11   1  -9   -1.89    2.79
  11   1  -9    0.79    3.88
  11   1  -9    0.37    0.82
  11   1  -9   -4.71    5.13
 -11  -1   9   -0.50    3.79
 -11  -1   9    0.19    4.10
 -11  -1   9   -2.33    4.21
  11   0  -9    7.61    8.08
  11   0  -9   22.30    4.54
  11   0  -9   22.46    6.89
  11   0  -9   16.99    6.62
 -11   0   9   16.49    7.78
 -11   0   9   18.76    6.40
  11  -1  -9   -1.90    4.52
  11  -1  -9   -0.36    1.06
 -11   1   9    1.78    3.99
  11  -2  -9   12.71    3.29
  11  -2  -9   10.11    5.86
 -11   2  -9   15.12    6.45
 -11   2  -9   14.97    5.28
 -11   3  -9    0.90    5.99
 -11   3  -9    0.38    4.83
  11  -3   9   -8.19    4.64
  11  -3   9  -13.11    4.64
 -11   4  -9   -0.18    5.60
 -11   4  -9   -2.54    5.78
  11  -4   9    6.23    6.00
  11  -4   9    7.20    5.12
 -11   5  -9   -3.82    5.58
 -11   5  -9   -6.86    6.65
  11  -5   9    2.21    5.18
  11  -5   9   -5.79    7.00
 -11   6  -9    3.03    5.37
  11  -6   9  -12.66    7.39
  11  -6   9    0.97    5.36
 -11   7  -9   -1.33    5.35
  11  -7   9    6.32    5.46
  12   9  -9    1.48    2.95
  12   7  -9    1.20    1.88
  12   7  -9   -0.76    2.87
 -12  -7   9   -1.03    3.61
 -12  -7   9    0.55    1.26
  12   6  -9   -0.48    3.04
  12   6  -9   -0.84    1.62
 -12  -6   9    0.54    3.70
 -12  -6   9   -0.17    1.16
  12   5  -9    1.33    1.57
  12   5  -9    1.83    2.94
 -12  -5   9    1.50    3.90
 -12  -5   9    0.76    1.13
  12   4  -9   -0.41    1.20
  12   4  -9    5.07    2.78
  12   4  -9   -1.23    2.96
 -12  -4   9    2.54    4.11
 -12  -4   9   -1.18    1.03
 -12  -4   9   -2.03    3.23
 -12  -4   9   -2.43    3.92
  12   3  -9    0.76    1.12
  12   3  -9   -0.75    3.12
  12   3  -9   -2.67    3.61
  12   3  -9    1.81    2.76
 -12  -3   9    4.65    4.00
 -12  -3   9   -4.11    3.50
 -12  -3   9    1.34    1.05
 -12  -3   9   -1.31    4.13
  12   2  -9   -1.33    2.77
  12   2  -9   -1.06    3.88
  12   2  -9   -2.49    4.40
  12   2  -9    1.12    0.98
 -12  -2  -9    6.21    4.11
 -12  -2   9    2.15    4.33
 -12  -2   9    1.68    1.07
 -12  -2   9    1.38    4.06
 -12  -2   9    3.37    3.85
  12   2   9   -1.24    3.16
  12   1  -9    2.93    8.74
  12   1  -9   23.10    7.05
 -12  -1  -9   31.29    6.96
 -12  -1   9   16.95    6.78
  12   1   9   17.46    6.36
 -12  -1   9   19.32    8.89
 -12  -1   9   20.50    7.31
  12   0  -9    1.21    4.79
  12   0  -9   -6.88    5.95
 -12   0  -9   -0.11    3.83
  12   0   9    0.87    3.06
 -12   0   9   -0.96    5.37
  12   0   9   -2.14    6.58
 -12   0   9    3.03    4.19
  12  -1  -9   18.38    7.76
 -12   1  -9   40.35    9.09
  12  -1  -9   22.98    9.58
 -12   1  -9   29.72    7.47
  12  -1   9   13.61    6.88
 -12   1   9   19.53    7.31
  12  -1   9    3.31    9.96
 -12   2  -9    0.91    4.74
 -12   2  -9   -3.94    6.68
  12  -2  -9    2.93    5.35
  12  -2   9    5.98    4.40
  12  -2   9    4.59    5.80
 -12   3  -9  -10.35    6.82
 -12   3  -9   -5.21    5.52
  12  -3   9    2.28    5.00
 -12   4  -9    4.42    6.59
 -12   4  -9   22.01    6.26
  12  -4   9   -0.36    5.52
 -12   7  -9    7.19    6.21
  12  -8   9   -1.94    6.11
  13   9  -9    3.72    3.18
 -13  -4  -9   -8.73    5.36
 -13  -4   9   -3.62    4.76
 -13  -4   9   -8.64    4.17
  13   3  -9    5.87    3.57
  13   3  -9   -3.21    4.09
 -13  -3  -9    3.47    4.72
  13   3   9    0.30    6.30
  13   3   9    1.22    3.58
 -13  -3   9    1.60    3.84
 -13  -3   9   -1.07    4.54
  13   2  -9    5.11    4.92
  13   2  -9    5.53    5.80
 -13  -2   9   12.05    5.20
 -13  -2   9    0.85    4.88
  13   2   9   -2.99    7.65
  13   1  -9   -1.36    5.68
  13   1  -9   -3.75    4.77
 -13  -1   9    0.50    4.92
 -13  -1   9    8.33    4.62
  13   1   9    5.53    7.25
  13   0  -9   -1.49    6.74
  13   0  -9   11.32    5.73
 -13   0   9    9.45    5.01
 -13   0   9   11.11    6.37
  13   0   9    4.59    7.43
  13  -1  -9    1.86    5.82
  13  -1  -9   -2.72    6.73
  13  -1   9   -0.10    6.85
 -13   1   9    1.09    4.67
  13  -2  -9    9.17    6.62
  13  -2   9  -16.48    7.11
 -13   3  -9    5.28    7.81
  13  -3   9  -13.53    6.33
 -13   4  -9   43.88   12.95
  13  -4   9   61.25   12.37
 -13   5  -9    4.24    7.28
 -13   5  -9   -5.76    8.43
  13  -5   9  -11.53    6.92
  13  -5   9  -24.59    9.85
 -13   6  -9    5.12    8.37
 -13   6  -9    2.70    6.81
  13  -6   9   -4.45    6.19
  13  -6   9    1.45    9.09
 -13   7  -9   -8.37    6.94
  13  -7   9   -0.44    6.31
  13  -8   9   -4.20    6.49
 -14  -4  -9    0.20    5.25
  14   3  -9    4.67    4.36
 -14  -3  -9   -0.18    5.66
 -14  -3   9    2.00    4.40
  14   3   9    0.11    7.40
  14   3   9    0.96    4.29
 -14  -2  -9   -1.27    5.33
  14   2  -9    0.11    5.10
  14   2   9   -0.11    7.62
  14   2   9    2.58    4.14
 -14  -2   9    9.23    4.80
 -14  -2   9    4.27    4.95
 -14  -1  -9   -4.41    5.01
  14   1  -9   -9.77    5.63
  14   1   9  -13.34    4.27
 -14  -1   9    1.49    5.59
  14   1   9    0.11    7.97
 -14   0  -9  -10.36    5.86
 -14   1  -9   -0.15    5.92
 -14   1  -9  -15.78    9.60
 -14   2  -9   -7.06    6.62
 -14   2  -9    1.01    9.41
  14  -2   9    5.82    7.16
  14  -2   9    5.56    5.78
 -14   3  -9  -11.44    7.59
 -14   3  -9  -11.92    8.64
  14  -3   9   -2.92    6.04
  14  -3   9   10.64    7.94
 -14   4  -9   18.84    8.71
 -14   4  -9   -0.99    7.72
  14  -4   9    5.25    6.32
  14  -4   9  -12.30    8.47
 -14   5  -9   -1.92    8.74
 -14   5  -9   16.12    8.61
  14  -5   9    8.64   10.02
  14  -5   9   15.99    7.22
 -14   6  -9   -0.94    9.04
 -14   6  -9    0.82    7.52
  14  -6   9   10.58    6.89
  14  -6   9  -11.30    9.49
 -14   7  -9    1.43    7.36
 -14   7  -9   10.28    9.83
  14  -7   9    3.98    7.00
  14  -8   9   15.43    8.66
 -15  -4  -9   -2.57    5.98
 -15  -3  -9    0.20    5.98
 -15  -3   9   -5.45    5.67
  15   3   9    5.39    4.52
  15   2  -9   18.56    4.47
  15   2  -9   10.26    6.29
 -15  -2  -9   -4.08    5.54
 -15  -2   9   -4.12    5.56
  15   2   9   -8.12    8.03
  15   2   9    1.78    4.35
  15   1  -9    0.45    7.44
 -15  -1  -9   -0.34    5.75
  15   1  -9   20.46    5.70
  15   1   9   -3.24    8.69
 -15  -1   9    4.14    5.65
  15   1   9    1.35    4.31
 -15   0  -9   -1.16    5.81
  15   0  -9   -2.91    7.23
  15   0  -9   -0.14    6.30
 -15   0  -9    0.73    9.03
 -15   0   9    1.91    5.47
  15   0   9    2.67    4.34
  15   0   9   10.30    8.50
 -15   0   9    0.17    6.60
 -15   1  -9    2.98    6.54
  15  -1  -9   -1.06    7.60
 -15   1  -9   -1.80    9.73
  15  -1  -9   12.69    7.02
  15  -1   9    5.12    5.12
  15  -1   9    7.77    7.78
 -15   1   9   -0.42    5.62
 -15   1   9    0.40    8.30
 -15   2  -9    5.50    6.97
 -15   2  -9   -7.34    9.89
  15  -2  -9    0.84    7.20
  15  -2   9   -3.35    5.63
  15  -2   9  -10.45    6.76
 -15   3  -9   -3.44    7.86
 -15   3  -9   19.07    9.77
  15  -3   9    6.12    8.34
  15  -3   9   10.90    6.74
 -15   4  -9   -7.63    8.59
 -15   4  -9   -2.33    9.34
  15  -4   9   -2.10    6.86
 -15   5  -9  -13.60    9.36
 -15   5  -9   11.56    8.81
  15  -5   9   -8.51    6.99
  15  -5   9   -4.37   10.66
 -15   6  -9   -3.64    8.58
 -15   6  -9   13.11    9.83
  15  -6   9    0.34    7.34
  15  -6   9  -16.87   10.71
 -15   7  -9    5.38    8.11
 -15   7  -9   -0.78   10.20
  15  -7   9   -3.08    7.50
 -15   8  -9   10.85   11.35
  15  -8   9   13.18    8.55
 -16  -4  -9    0.94    6.37
 -16  -3  -9    0.66   10.28
  16   3   9   42.09    9.02
 -16  -2  -9    9.16    6.64
  16   2   9  -19.46    9.40
  16   2   9  -13.04    5.15
 -16  -2   9    6.55    6.38
 -16  -2   9   -3.21    6.63
 -16  -1  -9  -12.49    7.26
 -16  -1   9  -10.13    6.96
  16   1   9    2.51    9.89
 -16  -1   9  -13.69    7.13
  16   0  -9  -19.55    8.94
  16   0  -9  -12.87    7.46
 -16   0  -9    1.09   10.40
 -16   0  -9  -17.69    7.43
  16   0   9  -15.86    5.88
  16   0   9  -13.74    9.42
 -16   0   9   -2.71    6.62
 -16   0   9   -3.49    7.73
 -16   1  -9  -21.40    8.04
 -16   1  -9    7.32   10.94
  16  -1  -9  -17.13    9.14
  16  -1  -9  -11.86    8.21
 -16   1   9   -7.02    9.28
 -16   2  -9   -0.31   10.95
 -16   2  -9   11.15    8.28
  16  -2  -9  -12.39    8.47
  16  -2   9  -23.83    6.95
 -16   2   9  -12.02    9.90
 -16   3  -9   -8.14   10.97
 -16   3  -9   22.86   12.12
  16  -3   9    9.47    9.04
 -16   4  -9    3.10    9.35
 -16   4  -9    5.23   10.37
  16  -4   9   -1.94    7.18
  16  -4   9  -15.41   10.57
 -16   5  -9    3.03    9.54
 -16   5  -9   11.30   10.03
  16  -5   9    0.56   11.44
  16  -5   9   -9.08    7.68
 -16   6  -9    2.37   10.23
 -16   6  -9   -6.43    9.46
  16  -6   9    8.68    7.81
  16  -6   9   -2.72   11.45
 -16   7  -9    2.74   10.66
 -16   7  -9    6.31    9.04
  16  -7   9   -2.58    7.78
 -16   8  -9    4.60   11.56
  16  -8   9    1.32    8.10
 -17  -4  -9    0.26    7.44
 -17  -3  -9    0.99    7.71
  17   3   9   11.99    5.81
 -17  -2  -9    1.64    7.63
 -17  -2   9    5.67    6.53
  17   2   9    8.06    5.42
  17   2   9    0.28    9.56
 -17  -1  -9   18.72   10.55
  17   1  -9    8.07    6.66
  17   1  -9   -7.54    8.62
 -17  -1  -9    0.22    7.39
  17   1   9    2.08    9.50
 -17  -1   9    2.16    6.52
  17   1   9    2.94    5.20
 -17  -1   9   11.49    6.98
 -17   0  -9   -0.43    7.41
  17   0  -9   -2.71    8.61
 -17   0  -9   17.63   11.02
  17   0  -9    7.94    7.73
  17   0   9    2.12    5.44
 -17   0   9   -4.21    8.01
 -17   0   9    5.70    6.69
  17   0   9   11.96    8.50
  17  -1  -9    8.38    8.74
  17  -1  -9    8.22    8.07
 -17   1  -9   -5.13    7.98
 -17   1  -9    3.04   11.67
  17  -1   9   -4.01    5.90
 -17   1   9   -1.45    6.56
  17  -1   9    7.55    7.48
 -17   1   9  -25.28    9.15
 -17   2  -9    8.66    8.65
 -17   2  -9   -5.60   11.77
  17  -2  -9    9.60    9.09
  17  -2   9    4.21    8.36
  17  -2   9  -10.44    6.38
 -17   2   9   -5.73   10.09
 -17   3  -9   -9.58    9.31
 -17   3  -9   17.43   11.56
  17  -3   9    9.06    7.23
  17  -3   9   -9.45   10.32
 -17   4  -9   17.74   11.47
 -17   4  -9    9.98    9.99
  17  -4   9    2.71   12.09
  17  -4   9    3.41    8.05
 -17   5  -9    5.74   10.26
 -17   5  -9   -1.10   10.60
  17  -5   9   19.33   13.08
  17  -5   9  -11.72    8.39
 -17   6  -9   -5.68   11.08
 -17   6  -9  -11.57   11.03
  17  -6   9  -12.50    8.70
  17  -6   9   -3.22   12.67
 -17   7  -9   25.33   19.09
 -17   7  -9   70.95   18.15
  18   4   9   99.72   26.09
 -18  -3  -9    6.38   10.21
 -18  -2  -9   -8.28   11.94
  18   2   9   -7.99    6.24
 -18  -1  -9   -0.75    8.32
 -18  -1  -9   -2.24   11.63
 -18  -1   9   -1.55    7.67
  18   1   9  -11.54    9.67
 -18  -1   9  -13.63    7.33
  18   1   9   -2.92    6.06
  18   0  -9    3.16    7.95
  18   0  -9   -5.45    9.23
 -18   0  -9   -0.25    8.55
 -18   0  -9    2.42   12.06
  18   0   9   -0.16    5.88
 -18   0   9  -10.00    7.07
  18   0   9    2.63    8.36
 -18   0   9    1.73    8.55
 -18   1  -9    1.51    9.20
 -18   1  -9    0.38   12.75
  18  -1  -9   -0.20    8.92
 -18   1   9  -20.27    7.38
  18  -1   9    4.63    6.42
 -18   1   9  -11.81    9.84
  18  -1   9  -12.06    8.48
 -18   2  -9    0.26    9.82
 -18   2  -9  -11.49   13.20
  18  -2  -9  -11.18    9.44
 -18   2   9   12.55   10.91
  18  -2   9  -14.24    7.54
  18  -2   9    2.04   10.55
 -18   3  -9   -8.68   10.44
  18  -3   9   -1.30    8.27
 -18   4  -9    6.10   17.09
 -18   5  -9   -8.66   12.10
 -18   5  -9  -13.94   11.81
  18  -5   9  -20.69   14.84
  18  -5   9    3.60    8.91
 -18   6  -9   14.73   12.04
 -18   6  -9   -7.90   11.62
  18  -6   9   -7.83    8.99
  18  -6   9    0.95   14.14
 -18   7  -9  -22.59   11.72
 -18   7  -9  -18.08   12.50
  18  -7   9    3.86    9.38
 -19  -4  -9   25.19   10.19
  19   4   9    7.31   11.79
 -19  -3  -9    0.63    9.84
  19   3   9   -5.94    7.21
 -19  -2  -9   -1.81    9.74
  19   2   9   -2.55    6.73
 -19  -1  -9    3.11    9.45
 -19  -1  -9    8.94   13.17
  19   1   9  -10.46    9.86
  19   1   9    2.34    6.80
  19   0  -9   -8.58    8.57
  19   0  -9    2.89    9.93
 -19   0  -9   -7.95   13.74
 -19   0  -9   -2.53    9.84
  19   0   9    7.94    7.22
 -19   0   9   14.20    7.91
 -19   0   9   -3.99    9.13
  19   0   9    4.31    8.68
  19  -1  -9   -2.78    9.27
 -19   1  -9    0.28   10.17
 -19   1  -9   -3.32   14.45
  19  -1   9    4.25    7.09
 -19   1   9   -6.03   10.34
 -19   1   9  -10.63    7.56
  19  -1   9   -8.40    9.78
 -19   2  -9   -6.37   13.99
 -19   2  -9    0.30   10.64
  19  -2  -9    4.54    9.75
  19  -2   9   -0.19    7.66
 -19   2   9   10.69   11.69
  19  -2   9    0.37   12.31
 -19   3  -9  -10.12   14.37
 -19   3  -9   -7.78   11.60
  19  -3   9    0.21    8.60
  19  -3   9  -16.57   13.66
 -19   4  -9   -0.64   12.26
 -19   4  -9   17.04   14.11
  19  -4   9  -11.63    9.19
  19  -4   9   19.18   15.72
 -19   5  -9    2.77   13.11
 -19   5  -9   -0.32   12.12
  19  -5   9    2.04    9.73
  19  -5   9    9.76   16.53
 -19   6  -9    4.97   13.01
 -20   0   9   -5.12    8.33
 -20   0   9   13.30    9.93
  20  -1  -9    5.40    9.96
 -20   1   9  -16.36    8.78
 -20   1   9   -0.28   10.98
  20  -2  -9    4.90   11.01
 -20   2   9   15.68   12.78
   0   0  10  158.25   50.34
  -1   0 -10   -0.05    0.69
   0   1 -10    1.43    1.27
   0  -1  10   -0.05    1.72
  -1   1 -10   12.72    5.04
  -1   1 -10   18.36    4.37
   1  -1  10   10.95    5.47
   1  -1  10   18.22    5.08
   2   1 -10   -0.06    1.74
  -1   2 -10    3.21    1.68
  -1   2 -10    6.07    1.16
   2   1 -10    4.05    1.23
   1  -2  10    3.05    1.93
   1  -2  10    5.00    2.14
   2   0 -10   96.62   20.29
  -2   0 -10   66.11   21.33
  -2   1 -10    5.29    1.29
  -2   1 -10    2.86    1.82
   1   2 -10    4.24    1.21
   2  -1  10    5.04    2.15
   2  -1  10    3.51    2.12
   2   2 -10   19.37    7.28
  -2   2 -10   21.24    7.25
   2   2 -10   22.91    5.99
  -2   2 -10   30.73    7.42
  -2   2 -10   25.80    6.23
   2  -2  10   23.91    7.47
   2  -2  10   19.31    7.46
   2  -2  10   27.92    8.38
  -2  -2  10   20.69    7.53
   3   2 -10   13.71    4.45
   3   2 -10   12.32    4.03
  -2   3 -10   16.01    3.85
  -2   3 -10   14.66    3.66
  -2   3 -10   17.41    4.05
  -2   3 -10   15.34    4.39
   2  -3  10   14.89    4.02
   2  -3  10   14.74    4.40
  -3  -2  10   12.59    4.68
   2  -3  10    8.72    4.61
   2  -3  10   11.08    3.51
  -1   3 -10    4.35    1.25
  -1   3 -10    4.55    1.48
   3   1 -10    1.34    1.88
   1  -3  10    2.78    1.26
   1  -3  10    4.58    1.82
  -3  -1  10    1.29    2.20
   3   0 -10   -0.06    0.77
   0   3 -10   -0.03    0.44
   3   0 -10    0.07    1.59
  -3   0 -10    0.05    0.69
   3   0  10   -0.10    1.47
  -3   0  10    0.59    2.12
  -3   1 -10    2.92    1.62
  -3   1 -10    4.03    1.08
   1   3 -10    2.19    0.99
   1   3 -10    3.83    1.57
  -3   1 -10    3.15    1.64
   3  -1  10    4.05    1.62
   3  -1  10    3.50    2.36
  -1  -3  10    3.03    1.69
   3  -1  10    6.72    2.00
   2   3 -10   13.37    4.27
  -3   2 -10   12.87    4.33
  -3   2 -10   13.72    3.63
  -3   2 -10   17.37    4.18
  -2  -3  10   10.38    4.39
   3  -2  10    9.66    5.35
   3  -2  10   15.65    4.24
   3  -2  10   12.88    4.46
   3   3 -10    0.43    0.42
  -3   3 -10    0.29    0.38
  -3   3 -10    0.57    1.15
   3   3 -10    0.21    1.27
  -3   3 -10    0.38    1.63
  -3   3 -10    0.26    1.11
   3  -3  10   -0.40    1.16
   3  -3  10    0.99    0.36
  -3  -3  10   -0.21    0.73
  -3  -3  10    0.18    0.48
   3  -3  10   -2.78    1.29
  -3  -3  10    0.50    1.46
   3  -3  10    0.48    1.61
   4   3 -10   -0.17    0.54
  -3   4 -10    1.10    1.02
   4   3 -10    0.17    1.74
  -3   4 -10    1.16    1.89
   4   3 -10   -0.28    1.52
   4   3 -10   -0.31    0.88
  -4  -3  10   -0.41    1.59
   3  -4  10   -4.45    1.67
  -4  -3  10   -0.17    1.43
  -4  -3  10   -0.24    0.98
   3  -4  10   -5.03    3.10
  -2   4 -10    7.28    2.09
   4   2 -10    5.45    1.39
   4   2 -10    5.92    2.13
   4   2 -10    3.40    1.85
   2  -4  10    3.31    1.92
  -4  -2  10    4.49    2.43
   4   1 -10    5.81    2.64
   4   1 -10    8.09    1.91
   4   1 -10    5.76    2.77
  -1   4 -10    6.54    1.93
  -4  -1  10    4.87    3.13
   1  -4  10    8.78    1.82
   1  -4  10    6.29    2.28
   0   4 -10   -0.48    1.05
   4   0 -10   -0.50    0.76
   4   0 -10   -0.08    1.67
   0   4 -10    0.20    0.49
  -4   0 -10    0.31    0.68
   0  -4  10    0.23    0.42
  -4   0  10   -1.69    2.33
  -4   1 -10    9.47    2.21
   1   4 -10    7.04    2.04
   1   4 -10    8.01    2.54
  -4   1 -10    8.69    2.73
  -1  -4  10    6.86    1.98
   4  -1  10    7.78    2.69
  -4   2 -10    4.49    1.46
   2   4 -10    4.32    1.46
  -4   2 -10    6.84    2.04
   2   4 -10    5.08    1.95
  -4   2 -10    6.94    1.98
  -2  -4  10    5.62    1.41
   4  -2  10    4.09    1.98
  -2  -4  10    4.51    2.05
   4  -2  10    8.97    2.24
  -4   3 -10   -0.02    0.40
   3   4 -10   -0.05    1.25
  -4   3 -10    3.93    1.92
   3   4 -10    0.53    0.86
  -4   3 -10   -0.25    1.18
  -4   3 -10   -1.49    1.46
   4  -3  10   -3.74    1.71
  -3  -4  10    0.04    1.36
   4  -3  10   -0.23    0.32
   4  -3  10   -1.19    1.26
   4   4 -10    7.89    4.84
  -4   4 -10   18.53    4.49
   4   4 -10   15.09    3.55
   4   4 -10   12.99    4.38
  -4   4 -10   15.07    3.90
   4  -4  10   13.61    3.54
  -4  -4  10   14.54    3.48
  -4  -4  10   12.53    4.54
   4  -4  10   18.36    4.54
   5   4 -10   20.19    6.28
   5   4 -10   11.03    6.10
   5   4 -10   25.78    5.07
  -5  -4  10   28.94    4.97
  -5  -4  10   11.05    6.02
  -5  -4  10   24.16    6.53
  -3   5 -10   -0.05    1.29
   5   3 -10    4.70    2.11
   5   3 -10    5.34    1.12
   5   3 -10    4.05    1.77
   5   3 -10   -0.21    2.51
  -5  -3  10    4.02    2.05
  -5  -3  10    3.53    2.29
  -5  -3  10    4.00    1.75
  -2   5 -10   22.13    5.66
   5   2 -10   19.59    5.45
   5   2 -10   22.41    7.71
  -2   5 -10   16.55    5.03
   5   2 -10   15.55    5.87
   5   2 -10   16.82    4.60
   2  -5  10   16.52    5.97
   2  -5  10   18.21    4.60
  -5  -2  10   18.64    5.45
  -5  -2  10   16.80    6.33
  -1   5 -10    0.66    0.71
   5   1 -10    0.21    1.64
   5   1 -10    0.79    1.82
  -1   5 -10    0.08    1.02
   5   1 -10    0.61    0.72
   5   1  10    1.39    1.97
  -5  -1  10    0.50    2.27
   1  -5  10    1.16    0.48
   0   5 -10   -0.18    0.66
   5   0 -10    0.06    0.81
   0   5 -10   -0.45    1.08
  -5   0 -10   -0.04    0.72
  -5   0 -10   -1.06    1.64
   5   0 -10    0.41    1.76
   0  -5  10    0.22    0.43
   5   0  10   -0.09    1.60
  -5   0  10   -0.83    2.51
   5   0  10    0.97    2.37
   1   5 -10    0.50    0.69
  -5   1 -10    0.68    0.49
   1   5 -10    1.38    1.12
  -5   1 -10    3.90    1.42
   5  -1  10    0.62    3.09
  -1  -5  10    0.42    0.56
  -5   2 -10   15.43    5.88
   2   5 -10   18.03    4.87
  -5   2 -10   21.81    5.13
   2   5 -10   21.00    5.70
   5  -2  10   17.56    7.27
  -2  -5  10   18.93    4.69
   5  -2  10   21.11    6.19
  -5   3 -10    5.85    2.70
   3   5 -10    5.55    2.03
  -5   3 -10    5.17    1.96
   3   5 -10    5.64    1.92
  -5   3 -10    7.10    1.45
   5  -3  10    2.66    2.01
   5  -3  10    5.02    1.32
  -5   4 -10   24.98    6.93
  -5   4 -10   35.84    6.93
   4   5 -10   27.65    7.49
  -5   4 -10   17.27    6.10
   4   5 -10   19.87    6.59
   4   5 -10   25.41    5.63
  -5   4 -10   26.48    6.42
   5  -4  10   17.91    6.72
   5  -4  10   17.35    6.80
   5  -4  10   19.77    5.58
  -4  -5  10   22.29    5.49
  -5   5 -10    1.43    2.69
   5   5 -10    0.20    0.70
  -5   5 -10   -0.97    1.10
   5   5 -10    1.21    1.51
   5   5 -10    0.14    2.11
  -5  -5  10    0.19    0.63
   5  -5  10   -2.51    3.92
   5  -5  10    2.34    2.67
   6   5 -10    4.99    2.50
   6   5 -10   11.40    3.25
   6   5 -10    6.26    1.74
  -6  -5  10    4.80    2.67
   5  -6  10    6.24    3.43
  -6  -5  10    5.21    1.65
   6   4 -10    2.06    1.91
   6   4 -10    1.13    2.26
   6   4 -10    2.13    1.51
   6   4 -10    2.13    0.88
  -6  -4  10    1.66    1.64
  -6  -4  10    2.10    0.87
  -6  -4  10    2.37    1.82
  -6  -4  10    2.07    2.12
   6   3 -10   47.69   26.26
   6   3 -10   85.48   18.89
   6   3 -10   78.75   23.33
   6   3 -10   85.99   22.50
  -3   6 -10   87.78   23.11
  -6  -3  10   77.65   24.13
  -6  -3  10   90.43   21.88
  -6  -3  10   72.66   20.24
   6   2 -10   12.75    3.35
   6   2 -10    7.68    3.36
  -2   6 -10    9.41    2.97
   6   2 -10    9.24    2.41
  -2   6 -10   11.51    2.69
  -6  -2  10   12.13    3.32
   2  -6  10   10.69    2.41
  -6  -2  10    7.37    3.56
  -6  -2  10    4.73    3.92
   6   1 -10   26.58    7.71
   6   1 -10   30.21    5.94
   6   1 -10   26.48    7.15
  -1   6 -10   23.57    6.47
  -6  -1 -10   15.92    7.98
   6   1  10   23.02    7.65
   1  -6  10   26.65    5.91
  -6  -1  10   24.76    8.54
   6   1  10   17.40    7.51
   0   6 -10    8.18    1.60
  -6   0 -10    3.58    1.69
   6   0 -10    4.31    2.74
   6   0 -10    8.17    1.57
   0   6 -10    5.94    1.89
  -6   0 -10    4.35    2.45
   6   0  10    6.86    2.38
   0  -6  10    4.74    1.40
  -6   0  10    3.08    3.35
   6   0  10   -2.81    3.68
  -6   1 -10   24.39    6.40
   1   6 -10   24.24    6.91
   6  -1 -10   28.94    6.07
   1   6 -10   16.53    6.13
  -6   1 -10   25.89    7.01
   6  -1  10    9.41    9.32
   6  -1  10   19.82    6.95
  -1  -6  10   30.72    5.69
  -6   2 -10    5.66    3.19
  -6   2 -10    7.39    2.43
   2   6 -10    9.17    2.84
   2   6 -10    9.80    2.46
  -2  -6  10   10.38    2.22
   6  -2  10    9.82    2.27
  -6   3 -10   66.02   21.29
   3   6 -10   82.87   21.39
  -6   3 -10   86.83   20.60
  -6   3 -10   76.56   23.11
  -6   3 -10   88.37   19.81
  -3  -6  10   79.72   17.96
   6  -3  10   78.85   22.89
   6  -3  10   83.88   20.70
   6  -3  10   68.04   18.67
   6  -3  10   38.89   24.03
  -6   4 -10    3.53    3.01
  -6   4 -10    2.25    2.74
   4   6 -10    2.76    1.53
  -6   4 -10    3.19    1.43
   4   6 -10    3.22    1.20
   6  -4  10    1.33    3.33
   6  -4  10    3.85    2.69
   6  -4  10    2.96    1.40
  -4  -6  10   -0.05    0.87
  -6   5 -10    5.20    2.11
   5   6 -10    6.26    2.23
   5   6 -10    4.77    1.66
  -6   5 -10    6.36    3.36
   6  -5  10    2.64    4.47
  -5  -6  10    5.11    1.47
   6  -5  10    4.51    3.42
   6   6 -10   -0.07    0.97
  -6   6 -10    0.95    3.13
   6   6 -10    1.34    1.76
   6  -6  10    0.14    3.19
  -6  -6  10    0.05    0.70
   7   6 -10   -0.07    1.86
   7   6 -10    0.64    1.12
   6  -7  10    1.34    3.38
  -7  -6  10    1.05    0.83
   7   5 -10    1.97    2.30
  -5   7 -10    8.04    1.81
   7   5 -10    3.66    1.47
  -7  -5  10    4.48    1.34
  -7  -5  10    2.54    2.59
   5  -7  10    3.96    3.33
  -4   7 -10   46.52   11.64
   7   4 -10   27.75    9.27
   7   4 -10   33.79   11.74
  -7  -4  10   43.35    9.16
  -7  -4  10   34.98   12.32
  -3   7 -10    0.22    1.20
   7   3 -10   -0.04    0.71
   7   3 -10    0.29    1.95
  -7  -3  10   -0.34    2.33
   7   2 -10   64.23   14.83
   7   2 -10   68.42   18.64
  -2   7 -10   51.47   18.12
  -7  -2  10   57.58   20.19
  -7  -1 -10   14.38    5.55
  -1   7 -10   13.73    4.85
   7   1 -10   19.23    7.17
   7   1 -10   17.18    4.00
   7   1 -10    9.94    5.37
   7   1  10   25.23    5.18
   7   1  10   16.98    5.68
  -7  -1  10   12.44    6.21
  -7  -1  10   13.76    5.10
   7   0 -10    0.56    2.29
   7   0 -10   -0.45    0.94
  -7   0 -10    0.27    2.00
   7   0 -10   -0.91    2.89
   0   7 -10    0.34    1.21
   7   0  10   -0.48    1.76
  -7   0  10    1.58    3.11
   0  -7  10   -0.46    0.55
   7   0  10    0.62    3.74
   1   7 -10   11.76    4.25
   7  -1 -10   14.59    4.15
  -7   1 -10   19.37    4.84
   1   7 -10   13.48    4.75
   7  -1  10   25.68    6.91
  -1  -7  10   11.73    3.88
   7  -1  10   16.98    4.77
   2   7 -10   61.23   16.44
  -7   2 -10   49.51   15.94
   2   7 -10   53.86   14.50
   7  -2  10   48.31   15.51
   7  -2  10   47.10   20.33
  -2  -7  10   60.51   13.34
   3   7 -10    0.08    1.06
   3   7 -10   -0.05    1.39
  -7   3 -10    0.27    2.53
  -7   3 -10   -0.10    3.07
   7  -3  10    0.79    2.50
   7  -3  10   -1.25    3.27
  -3  -7  10    1.08    0.65
  -7   4 -10   30.99   11.85
  -7   4 -10   47.20   10.51
   4   7 -10   34.13   10.92
   7  -4  10   31.04   12.69
   7  -4  10   39.43   11.32
   5   7 -10    2.03    1.37
  -7   5 -10    2.59    3.49
   5   7 -10    2.26    1.86
   7  -5  10    6.57    3.62
  -5  -7  10    3.54    1.08
   7  -5  10   -1.63    4.75
  -7   6 -10    0.86    3.77
   6   7 -10    0.19    1.69
   6   7 -10    1.95    1.32
  -6  -7  10    0.12    0.80
   7  -6  10    0.56    3.53
   7   7 -10    2.04    1.97
   7   7 -10    2.42    1.34
   7  -7  10    1.99    3.77
  -7  -7  10    0.93    0.96
   8   7 -10    1.60    2.12
   8   7 -10    1.61    1.53
  -8  -7  10    1.41    1.07
   8   6 -10   -1.12    1.29
   8   6 -10    1.87    2.19
  -8  -6  10   -0.32    0.84
   8   5 -10    0.19    0.96
   8   5 -10   -0.53    2.04
  -8  -5  10   -0.29    0.83
  -8  -5  10    1.22    2.41
   8   4 -10    8.02    3.92
   8   4 -10   10.12    3.37
   8   4 -10    6.31    2.36
   8   4 -10    6.65    3.59
  -8  -4  10    7.64    3.27
  -8  -4  10    8.52    3.89
  -8  -4  10   10.99    2.32
  -8  -4  10    9.23    3.36
   8   3 -10    6.42    2.86
   8   3 -10    4.95    3.13
   8   3 -10    5.59    2.93
   8   3 -10    6.15    1.70
  -8  -3  10    6.21    3.07
  -8  -3  10    5.94    1.71
  -8  -3  10    4.04    2.70
  -8  -3  10    9.25    3.43
  -8  -2 -10    3.32    3.60
   8   2 -10    6.60    1.85
   8   2 -10    5.40    4.43
   8   2 -10    4.51    3.09
   8   2 -10   13.12    3.12
  -8  -2  10    6.12    3.83
  -8  -2  10    7.84    3.18
  -8  -2  10    7.21    3.33
   8   2  10    2.84    3.80
   8   1 -10    4.84    1.63
   8   1 -10    5.14    4.64
   8   1 -10    7.61    3.24
   8   1 -10    4.05    2.95
  -8  -1 -10    7.04    3.10
  -8  -1  10    4.27    3.87
  -8  -1  10    4.65    3.25
   8   1  10    6.70    4.05
   8   1  10    5.97    2.70
   8   0 -10    5.88    1.67
   8   0 -10    3.01    2.99
   8   0 -10    5.25    3.57
  -8   0 -10    5.57    2.82
   8   0  10    6.55    2.59
  -8   0  10    3.21    3.93
   8   0  10    7.47    4.75
   8  -1 -10    5.27    1.95
   8  -1 -10    6.94    3.97
  -8   1 -10    3.75    2.81
   8  -1  10   12.29    5.22
   8  -1  10    7.00    2.68
  -8   2 -10    6.34    3.28
   2   8 -10    5.73    2.64
   8  -2  10   10.07    5.26
  -2  -8  10    8.98    2.03
   8  -2  10    8.58    3.20
  -8   3 -10    5.98    4.14
   3   8 -10    7.00    2.35
  -8   3 -10    4.76    3.43
  -3  -8  10    4.90    1.63
   8  -3  10    3.39    3.84
   8  -3  10    7.86    3.40
   4   8 -10    9.29    3.22
  -8   4 -10   10.17    4.76
  -8   4 -10   10.54    4.68
   8  -4  10   12.75    4.29
   8  -4  10    8.62    4.96
   5   8 -10    0.38    1.39
  -8   5 -10    0.27    3.87
   5   8 -10   -0.13    1.59
   8  -5  10   -1.42    4.04
  -5  -8  10   -0.61    0.80
   8  -5  10    0.98    5.40
   6   8 -10   -2.06    1.81
  -8   6 -10   -0.15    3.94
   6   8 -10   -0.29    1.42
   8  -6  10    4.15    5.24
   8  -6  10   -1.52    3.97
  -6  -8  10   -0.69    0.88
   7   8 -10    2.16    1.56
   7   8 -10    1.69    1.90
   8  -7  10    0.38    4.12
  -7  -8  10   -0.66    1.00
   8   8 -10   19.54    5.20
   8   8 -10   17.37    6.15
  -8  -8  10   19.17    4.77
   8  -8  10   18.91    7.03
   9   8 -10    0.46    1.64
   9   8 -10   -4.09    2.53
  -9  -8  10    1.16    1.10
   9   7 -10    7.92    2.47
   9   7 -10    6.68    3.32
  -9  -7  10    8.17    2.19
   9   6 -10   13.12    3.06
   9   6 -10    6.02    4.03
  -9  -6  10   12.62    4.42
  -9  -6  10   11.43    2.86
   9   5 -10    5.14    2.96
   9   5 -10    6.87    1.73
  -9  -5  10    4.00    1.57
  -9  -5  10    4.89    3.34
   9   4 -10    0.81    0.88
   9   4 -10   -0.30    2.06
   9   4 -10    1.26    2.40
   9   4 -10   -2.94    2.83
  -9  -4  10    1.71    2.94
  -9  -4  10    1.43    2.37
  -9  -4  10    1.69    0.90
  -9  -4  10    1.82    2.70
   9   3 -10    3.23    3.92
   9   3 -10   10.60    2.29
   9   3 -10    9.73    3.56
   9   3 -10    3.78    3.68
  -9  -3  10    7.69    3.67
  -9  -3  10   11.75    2.28
  -9  -3  10    9.33    4.43
  -9  -3  10    5.22    3.42
  -9  -2 -10    2.71    3.35
   9   2 -10    2.93    1.16
   9   2 -10    3.91    3.85
   9   2 -10    3.87    2.94
   9   2 -10    0.59    2.66
  -9  -2  10    3.89    3.19
  -9  -2  10    3.16    2.99
  -9  -2  10    1.85    3.57
   9   2  10    9.14    2.91
   9   2  10    4.17    4.01
   9   1 -10    1.29    0.91
   9   1 -10   -0.57    2.53
   9   1 -10    1.55    3.12
   9   1 -10   -1.89    4.60
  -9  -1 -10    2.74    2.80
  -9  -1  10   -0.44    3.17
   9   1  10   -1.44    4.39
   9   1  10    2.79    2.37
  -9  -1  10    3.53    3.62
   9   0 -10   -0.75    3.45
  -9   0 -10   -1.14    2.51
   9   0 -10   -0.75    2.68
   9   0 -10    0.11    0.96
  -9   0  10   -1.62    3.73
  -9   0  10   -2.58    3.20
   9   0  10    3.49    2.19
   9   0  10   -0.52    5.19
  -9   1 -10   -1.25    2.68
   9  -1 -10    9.41    3.97
   9  -1 -10    1.46    1.15
   9  -1  10   -1.01    2.48
   9  -1  10    5.22    5.24
  -9   2 -10    3.57    3.11
  -9   2 -10    3.77    4.64
   9  -2  10   -0.35    5.17
   9  -2  10    6.32    3.03
  -9   3 -10    5.87    4.28
  -9   3 -10    8.39    5.09
   9  -3  10   14.77    4.17
   9  -3  10    3.31    5.17
  -9   4 -10   -2.15    4.49
  -9   4 -10   -0.34    4.20
   9  -4  10    3.05    3.77
   9  -4  10   -4.75    4.51
  -9   5 -10    8.83    5.48
  -9   5 -10    5.82    4.62
   9  -5  10    3.93    4.53
   9  -5  10    5.92    5.79
  -9   6 -10   10.90    5.05
   9  -6  10    9.43    4.95
   9  -6  10   -9.19    6.68
   7   9 -10    5.92    3.12
   9  -7  10   13.74    5.15
   8   9 -10    0.63    2.16
   9  -8  10   10.10    4.74
   9   9 -10   -0.08    2.35
  10   8 -10    0.90    3.06
  10   8 -10    4.96    2.31
 -10  -8  10    8.13    1.77
  10   7 -10    2.34    1.83
  10   7 -10    2.91    2.72
 -10  -7  10    3.24    1.36
  10   6 -10    0.63    2.52
  10   6 -10   -1.16    1.51
 -10  -6  10    0.07    1.01
 -10  -6  10    0.46    3.07
  10   5 -10    4.95    2.09
  10   5 -10    6.01    3.29
 -10  -5  10    6.82    1.88
 -10  -5  10   10.49    3.85
  10   4 -10    6.47    1.81
  10   4 -10    2.37    3.24
 -10  -4  10    3.82    3.47
 -10  -4  10    8.47    3.92
 -10  -4  10    5.58    3.17
 -10  -4  10    8.05    1.81
 -10  -3  10   18.16    6.01
 -10  -3  10   23.93    5.70
  10   2 -10   -1.27    4.06
  10   2 -10   -0.24    0.78
  10   2 -10    1.99    3.04
 -10  -2 -10    1.61    3.41
  10   2 -10    1.00    2.47
 -10  -2  10    2.49    3.08
 -10  -2  10    0.42    3.47
  10   2  10   -2.29    2.89
  10   2  10   -3.99    4.54
 -10  -2  10    2.93    3.83
  10   1 -10    2.33    2.70
  10   1 -10    7.05    5.03
  10   1 -10    0.30    0.82
 -10  -1 -10   -3.38    3.00
  10   1 -10    0.40    3.47
  10   1  10    1.01    5.12
 -10  -1  10   -0.10    3.95
 -10  -1  10   -1.60    3.86
  10   1  10   -0.83    2.54
 -10  -1  10    0.60    3.35
 -10   0 -10   12.47    3.44
  10   0 -10    8.13    1.83
  10   0 -10    2.45    5.66
  10   0 -10    2.05    3.47
  10   0 -10   11.86    4.37
 -10   0  10    3.98    4.66
  10   0  10    3.36    5.82
 -10   0  10    4.72    3.95
  10   0  10    1.28    3.02
  10  -1 -10    1.90    4.26
  10  -1 -10   -0.48    1.15
 -10   1 -10   -1.07    3.11
  10  -1  10   -2.30    2.73
  10  -1  10   -4.95    5.72
 -10   2 -10    0.89    5.13
 -10   2 -10   -0.58    3.40
  10  -2  10   -4.43    3.30
  10  -2  10    0.07    5.19
 -10   3 -10   -2.48    5.95
 -10   3 -10   -4.63    4.80
 -10   4 -10    5.54    5.34
 -10   4 -10    5.61    5.09
  10  -4  10  -12.35    5.69
  10  -4  10   -7.05    4.57
 -10   5 -10    9.23    5.18
 -10   5 -10    0.59    5.79
  10  -5  10   -3.42    4.87
  10  -5  10   -1.55    6.57
 -10   6 -10   -1.83    5.06
  10  -6  10   -8.20    7.03
  10  -6  10    1.53    4.79
 -10   7 -10    5.09    5.08
  10  -7  10    5.87    5.22
  10  -8  10    2.11    5.13
  11   9 -10   15.37    5.29
  11   7 -10    0.29    2.72
  11   7 -10   -0.81    1.73
 -11  -7  10    1.74    3.38
 -11  -7  10    0.26    1.18
  11   6 -10    2.61    1.70
  11   6 -10   -0.39    2.83
 -11  -6  10    0.51    3.55
 -11  -6  10    1.87    1.17
  11   5 -10   -0.78    1.33
  11   5 -10    0.68    2.75
 -11  -5  10   -0.55    3.81
 -11  -5  10    0.58    1.04
  11   4 -10    0.77    3.01
  11   4 -10    2.78    1.34
 -11  -4  10   -0.08    3.73
 -11  -4  10    1.93    1.12
  11   3 -10    0.55    1.01
  11   3 -10   -1.96    2.91
  11   3 -10    0.07    2.99
 -11  -3 -10    0.15    3.92
  11   3 -10    1.94    3.72
  11   3  10    0.70    4.73
 -11  -3  10    2.81    3.66
 -11  -3  10    2.47    3.90
 -11  -3  10   -1.25    3.08
 -11  -3  10   -0.13    1.03
  11   2 -10   -1.75    2.83
  11   2 -10   -1.01    3.46
  11   2 -10    0.76    0.90
 -11  -2 -10    3.33    3.94
  11   2 -10    2.31    4.74
  11   2  10   -6.81    3.05
 -11  -2  10   -0.81    3.70
 -11  -2  10    1.30    4.12
 -11  -2  10   -5.05    3.46
  11   2  10   -8.09    5.31
  11   1 -10   11.95    6.80
  11   1 -10    8.45    5.08
 -11  -1 -10   14.78    5.02
  11   1 -10   18.46    5.27
  11   1 -10   15.01    3.22
 -11  -1  10   11.04    6.43
  11   1  10    9.33    4.48
  11   1  10   10.98    7.15
 -11  -1  10    9.44    5.12
 -11  -1  10   10.12    5.51
  11   0 -10   -0.69    1.02
  11   0 -10    2.22    4.37
  11   0 -10   -0.96    3.01
 -11   0 -10    0.30    3.26
  11   0 -10    0.49    5.48
  11   0  10    3.42    6.20
 -11   0  10    3.42    4.31
  11   0  10   -2.07    2.82
 -11   0  10   -0.89    3.97
  11  -1 -10   13.85    3.23
  11  -1 -10   11.94    5.85
 -11   1 -10   12.93    5.03
  11  -1  10    1.51    7.36
 -11   2 -10    0.34    6.00
  11  -2 -10    4.88    5.10
 -11   2 -10    2.33    4.16
  11  -2  10  -16.65    6.30
  11  -2  10  -10.11    3.99
 -11   3 -10    0.73    6.47
 -11   3 -10    5.80    5.19
  11  -3  10   15.53    5.29
  11  -3  10   13.14    5.11
 -11   4 -10    7.78    5.47
 -11   4 -10    3.70    6.05
  11  -4  10    5.01    4.89
  11  -4  10    0.08    5.85
 -11   5 -10   -0.82    6.38
 -11   5 -10   -7.85    5.66
  11  -5  10   -0.69    5.08
  11  -5  10    7.53    7.06
 -11   6 -10   -4.42    5.76
 -11   6 -10   -7.33    7.17
  11  -6  10   -0.24    5.40
  11  -6  10    0.48    7.43
 -11   7 -10   -0.44    5.41
  11  -7  10   -7.54    5.65
  12   9 -10    5.52    3.50
 -12  -8  10   -0.95    1.34
  12   7 -10    1.24    3.14
 -12  -7  10  -10.01    4.14
  12   6 -10    0.72    3.06
  12   6 -10    0.85    1.84
 -12  -6  10    1.55    1.34
 -12  -6  10   -2.15    4.05
  12   5 -10    0.83    3.10
  12   5 -10   -1.49    1.62
 -12  -5  10   -0.43    3.99
 -12  -5  10   -0.79    1.14
  12   4 -10    2.10    2.88
  12   4 -10    1.17    1.25
 -12  -4  10    2.49    1.13
 -12  -4  10    0.44    4.12
  12   3 -10    0.18    1.09
  12   3 -10    1.27    2.93
 -12  -3  10   -0.21    1.14
 -12  -3  10   -3.50    4.21
 -12  -3  10   -0.82    3.97
 -12  -3  10   -3.07    3.53
  12   2 -10    3.81    3.83
  12   2 -10    2.78    3.26
  12   2 -10    2.52    1.30
  12   2 -10    2.38    4.91
 -12  -2  10    4.21    1.43
 -12  -2  10    0.51    4.15
 -12  -2  10    3.53    4.68
 -12  -2  10    1.14    3.87
 -12  -1 -10    0.97    3.91
  12   1 -10    0.36    1.16
  12   1 -10    7.36    5.61
  12   1 -10   -0.10    4.29
  12   1 -10    0.11    3.18
 -12  -1  10    4.55    4.62
  12   1  10    2.62    3.23
 -12  -1  10   -1.40    4.23
 -12  -1  10    4.07    4.64
 -12   0 -10    6.80    5.07
  12   0 -10    0.72    7.28
  12   0 -10    4.11    5.87
 -12   0  10    8.01    6.81
  12   0  10    6.40    4.49
 -12   0  10    7.87    5.38
  12  -1 -10    0.12    5.28
 -12   1 -10    2.81    4.25
  12  -1  10    4.42    3.71
 -12   1  10    2.32    4.45
 -12   2 -10   41.04    7.19
  12  -2 -10    0.68    5.94
 -12   2 -10    1.15    5.20
 -12   3 -10   41.92    7.63
  12  -3  10    1.45    5.74
 -12   4 -10  -12.51    6.13
  12  -4  10   -6.52    5.24
 -12   7 -10   -3.10    6.28
  12  -8  10    2.34    5.95
  13   9 -10   -2.18    3.42
 -13  -9  10   -8.38    4.13
  13   8 -10   -3.31    3.43
 -13  -8  10    3.01    1.52
 -13  -8  10   -0.08    3.89
 -13  -6  10    5.33    4.67
 -13  -3 -10   -5.00    4.85
 -13  -3  10    0.39    4.55
  13   3  10   -7.88    6.41
  13   3  10   -2.94    3.92
  13   2 -10   -1.81    5.10
  13   2 -10    0.59    4.20
 -13  -2 -10    1.98    4.55
  13   2  10    0.10    3.59
  13   2  10   -3.50    6.81
 -13  -2  10   -1.11    4.37
 -13  -2  10    6.53    4.18
  13   1 -10    5.40    7.27
  13   1 -10   12.11    5.67
 -13  -1  10    3.34    5.31
  13   1  10   -9.92    8.08
 -13  -1  10   -2.59    5.77
  13   0 -10    2.55    5.37
  13   0 -10   -6.08    6.45
  13   0  10   10.50    7.52
 -13   0  10   -8.06    4.77
 -13   0  10  -15.84    6.22
  13  -1 -10    9.66    6.69
 -13   1 -10   10.08    7.88
 -13   1  10    4.71    5.69
  13  -1  10   -7.01    8.59
 -13   2 -10   -0.44    7.67
  13  -2 -10    0.44    6.03
  13  -2  10   -9.01    7.00
 -13   3 -10    0.93    8.00
 -13   4 -10    9.63   22.13
 -13   4 -10   50.99   25.11
  13  -4  10   99.05   22.55
  13  -4  10  122.08   27.94
 -13   5 -10    0.57    7.57
 -13   5 -10    4.10    7.46
  13  -5  10   -0.27    8.79
  13  -5  10   -0.69    6.31
 -13   6 -10    3.39    8.41
 -13   6 -10    1.50    7.03
  13  -6  10   -0.57    6.40
  13  -6  10    7.17    9.19
 -13   7 -10   17.63    9.01
 -13   7 -10    2.87    6.88
  13  -7  10    1.76    6.55
  13  -7  10    3.38    8.95
  13  -8  10  -10.16    6.80
 -14  -3 -10    0.38    5.24
  14   3  10    0.12    4.06
  14   3  10    1.64    7.19
 -14  -2 -10    4.22    5.27
  14   2 -10    0.96    4.65
  14   2  10   -8.28    7.49
 -14  -2  10    0.47    4.73
  14   2  10    0.11    3.73
 -14  -1 -10    1.22    5.04
  14   1 -10    0.12    5.62
  14   1  10   -1.15    3.96
  14   1  10    0.11    7.84
 -14  -1  10    0.13    5.49
 -14   0 -10   -7.44    5.18
  14   0  10    2.81    3.95
  14   0  10   10.83    8.13
 -14   1 -10    3.96    5.85
 -14   1 -10   14.00    8.90
  14  -1  10    7.50    4.91
  14  -1  10   11.68    8.18
 -14   2 -10   -7.30    6.47
 -14   2 -10  -17.94    9.09
  14  -2  10   11.01    5.32
  14  -2  10   -6.12    6.84
 -14   3 -10    3.02    7.13
 -14   3 -10   11.53    8.82
  14  -3  10   -3.84    7.18
  14  -3  10  -11.15    5.97
 -14   4 -10   17.24    8.82
 -14   4 -10   -5.81    7.59
  14  -4  10    3.51    6.45
  14  -4  10   -5.55    8.16
 -14   5 -10   -4.87    8.22
 -14   5 -10   12.44    8.32
  14  -5  10   -4.04    6.52
  14  -5  10  -11.80    9.52
 -14   6 -10   -0.28    7.73
 -14   6 -10    5.39    8.89
  14  -6  10    0.93    6.68
  14  -6  10   -5.50    9.76
 -14   7 -10    3.80    9.47
 -14   7 -10   -2.30    7.57
  14  -7  10    7.75    6.98
  14  -7  10   -9.07    9.74
  14  -8  10   -4.21    7.37
 -15  -4 -10   -0.22    5.75
  15   4  10    0.24    7.65
 -15  -3 -10    0.21    6.04
  15   3  10    2.52    8.19
  15   3  10    5.72    4.59
 -15  -2 -10   10.32    5.75
  15   2  10    1.85    8.23
  15   2  10   -2.97    4.32
 -15  -2  10   -0.51    5.18
 -15  -1 -10    0.86    5.63
  15   1 -10   -9.06    7.61
  15   1 -10   33.20    5.69
 -15  -1  10   -2.34    5.30
  15   1  10    0.70    4.52
  15   1  10  -10.29    8.33
 -15   0 -10    3.90    8.92
  15   0 -10   -2.58    6.23
  15   0 -10  -12.06    7.45
 -15   0 -10    1.33    5.63
 -15   0  10   -4.25    5.35
 -15   0  10    8.16    6.79
  15   0  10    7.88    4.43
  15   0  10    5.75    8.15
 -15   1 -10    2.83    9.37
 -15   1 -10   -1.21    6.18
  15  -1 -10    0.79    6.85
 -15   1  10    1.01    8.31
  15  -1  10   -4.39    4.97
 -15   1  10    0.85    5.47
  15  -1  10    3.33    7.84
 -15   2 -10   -6.39    6.93
  15  -2 -10   -0.17    7.41
 -15   2 -10    8.25   10.02
  15  -2  10    9.03    5.27
  15  -2  10   11.08    6.82
 -15   3 -10   -6.92    9.39
 -15   3 -10    9.00    7.53
  15  -3  10  -23.52    8.53
  15  -3  10   -4.49    6.19
 -15   4 -10   -2.65    9.33
 -15   4 -10    1.71    8.32
  15  -4  10   -0.32    6.93
  15  -4  10  -19.85    9.37
 -15   5 -10    3.90    9.09
 -15   5 -10   -3.42    9.13
  15  -5  10  -11.11    7.38
  15  -5  10  -15.08   11.01
 -15   6 -10   -2.64    9.80
 -15   6 -10   -2.76    8.62
  15  -6  10    1.00    7.24
  15  -6  10   -0.35   10.60
 -15   7 -10   10.54   10.06
 -15   7 -10    5.73    8.22
  15  -7  10   -8.68   10.74
  15  -7  10  -11.25    7.61
 -15   8 -10   -3.41   10.37
  15  -8  10    3.67    7.48
 -16  -4 -10   -0.24    6.19
 -16  -3 -10  -22.01    7.27
  16   3  10   -9.67    8.94
  16   3  10    2.05    5.17
 -16  -2 -10  -21.90    7.26
  16   2  10   -4.35    5.28
  16   2  10    0.26    9.44
 -16  -1 -10   30.54   19.65
 -16  -1  10   58.12   18.49
 -16  -1  10   31.81   17.06
  16   1  10   45.65   23.52
  16   1  10   32.26   17.49
 -16   0 -10    8.39   13.14
 -16   0 -10   37.68   11.33
  16   0 -10   25.51   10.99
  16   0  10   29.20   13.64
 -16   0  10    4.39    9.78
 -16   0  10   17.06   11.45
  16   0  10   53.11   10.05
 -16   1 -10   35.67   20.15
 -16   1 -10    4.98   20.46
  16  -1 -10   74.63   18.86
 -16   1  10   11.83   19.87
 -16   1  10   37.40   17.01
  16  -2 -10  -17.90    8.66
 -16   2 -10  -11.48    8.27
 -16   2 -10   -5.39   11.49
  16  -2  10   -9.18    8.45
 -16   3 -10  -16.38    8.71
 -16   3 -10   -8.70   10.76
  16  -3  10   -8.84    9.50
  16  -3  10   -3.87    7.00
 -16   4 -10   -3.96   10.48
 -16   4 -10   -2.13    8.88
  16  -4  10    3.81    7.13
  16  -4  10    3.93   10.33
 -16   5 -10   -1.99    9.52
 -16   5 -10   -4.70   10.06
  16  -5  10   -4.13   11.63
  16  -5  10   -0.90    7.68
 -16   6 -10   -4.79    9.56
 -16   6 -10  -18.03   10.45
  16  -6  10   12.70   11.81
  16  -6  10   -7.20    7.66
 -16   7 -10   10.61    9.42
 -16   7 -10    3.01   10.86
  16  -7  10   -3.66   11.28
  16  -7  10    4.96    7.89
 -16   8 -10   12.85   11.39
  16  -8  10  -26.30    8.79
 -17  -4 -10    1.05    7.28
 -17  -3 -10    0.26    7.37
  17   3  10   -0.14    9.26
  17   3  10    0.65    5.48
 -17  -2 -10   -2.85    7.52
  17   2  10    2.45    9.32
  17   2  10   -0.15    5.44
 -17  -1 -10   14.85   10.54
 -17  -1 -10    0.22    7.06
  17   1  10    9.01    9.24
 -17  -1  10   -2.13    6.41
  17   1  10   -2.45    5.39
  17   0 -10   -4.70    8.33
  17   0 -10   -1.35    7.59
 -17   0 -10  -15.09    7.65
 -17   0 -10   18.72   10.98
 -17   0  10   -5.21    6.33
  17   0  10    3.66    8.66
 -17   0  10    7.15    7.92
  17   0  10    6.88    5.40
 -17   1 -10    2.66    7.69
  17  -1 -10   -8.28    8.20
 -17   1 -10    4.22   11.33
  17  -1  10    6.28    8.08
 -17   1  10   -0.23    9.32
 -17   1  10    6.08    6.40
  17  -1  10    9.45    5.84
 -17   2 -10   -5.27   12.03
 -17   2 -10    3.05    8.41
  17  -2 -10    4.96    8.89
 -17   2  10   -1.04   10.35
  17  -2  10    4.13    6.44
  17  -2  10    2.89    8.40
 -17   3 -10    5.51    9.12
 -17   3 -10   -8.24   11.61
  17  -3  10   -2.08   10.73
  17  -3  10    4.40    6.88
 -17   4 -10    2.61    9.70
 -17   4 -10    8.89   11.55
  17  -4  10    4.13    7.39
  17  -4  10    6.85   11.56
 -17   5 -10    8.37   10.58
 -17   5 -10   -5.28   11.15
  17  -5  10   11.29    8.38
  17  -5  10    9.13   13.43
 -17   6 -10  -21.64   11.76
 -17   6 -10  -12.25   11.90
 -17   7 -10  -28.36   11.81
 -17   7 -10  -12.48   12.71
 -17   8 -10    5.41   11.78
  17  -8  10   -9.49    8.70
 -18  -4 -10   -0.58    8.40
 -18  -3 -10   -4.02   14.67
  18   3  10   47.13   11.37
 -18  -2 -10    9.94   11.88
  18   2  10    0.17    8.57
 -18  -1 -10   -0.26    9.46
 -18  -1 -10  -19.96   12.09
 -18   0 -10   -0.50    9.46
 -18   0 -10    7.20   12.56
 -18   0  10   -5.43    6.92
 -18   0  10   10.93    8.79
 -18   1 -10  -14.57   13.59
 -18   1 -10   -2.77    9.85
 -18   1  10    5.25    6.95
 -18   1  10    0.24    9.93
  18  -2 -10   58.27   12.63
 -18   2 -10   48.27   13.29
 -18   2 -10  -19.55   15.90
  18  -2  10   33.98   11.26
 -18   2  10    7.63   13.65
 -18   3 -10   23.22   15.58
 -18   3 -10  -14.84   13.36
 -18   4 -10    6.34   10.84
 -18   4 -10    3.27   12.80
  18  -4  10  -10.46    8.38
  18  -4  10  -32.10   14.62
 -18   5 -10    6.25   12.56
 -18   5 -10   11.52   11.35
  18  -5  10    1.04    9.02
  18  -5  10   -7.47   14.41
 -18   6 -10   -6.67   11.84
 -18   6 -10   -2.14   12.33
  18  -6  10    1.71    9.06
  18  -6  10   12.44   14.23
 -18   7 -10  -13.02   12.28
 -18   7 -10  -20.22   11.90
  18  -7  10    0.86    9.51
 -18   8 -10   -0.96   12.42
  18  -8  10   -9.12    9.36
 -19  -4 -10   -1.96    9.41
 -19  -3 -10    0.65    9.97
  19   3  10    6.00    7.39
 -19  -2 -10    3.70   12.64
 -19  -2 -10   -0.61    9.72
  19   2  10    5.38    7.05
  19   2  10   -0.16   10.79
 -19  -1 -10  -18.76   13.23
 -19  -1 -10    1.47    9.69
  19   1  10    2.44    9.75
  19   1  10   -2.51    6.68
 -19   0 -10   10.27   13.43
 -19   0 -10    0.29    9.87
  19   0  10   -0.27    9.25
  19   0  10   -5.03    6.75
 -19   1 -10   -2.00    9.88
 -19   1 -10   -2.89   14.19
  19  -1 -10    0.86    9.27
 -19   1  10    3.13    7.32
 -19   1  10   13.78   10.41
  19  -1  10    7.04    7.07
  19  -1  10   -3.12    9.66
 -19   2 -10    6.81   14.44
 -19   2 -10    0.88   10.80
  19  -2 -10  -15.36   10.04
  19  -2  10  -23.66   11.66
  19  -2  10    2.99    7.72
 -19   2  10   -8.35   11.41
 -19   3 -10    4.40   14.18
 -19   3 -10   -0.31   10.77
  19  -3  10   -4.32    8.25
  19  -3  10   -7.74   13.27
 -19   4 -10   -0.92   14.06
 -19   4 -10   -0.32   11.42
  19  -4  10   -9.62   15.14
  19  -4  10   -6.59    8.66
 -19   5 -10   -4.52   11.89
  19  -5  10    2.32   14.36
  19  -5  10   -4.31    8.97
  20  -2 -10    8.40   10.63
 -20   2  10  -14.38   12.19
   1   0 -11   67.75   17.97
   1   0 -11   74.71   20.49
  -1   0  11   66.10   21.69
   1   1 -11    1.94    1.42
   1   1 -11    0.09    0.68
   1  -1  11    0.50    1.10
  -1  -1  11    2.19    1.99
   2   1 -11    9.74    3.11
   2   1 -11    5.31    3.97
   1  -2  11   15.66    4.62
  -2  -1  11   12.31    4.48
  -2   0 -11    1.88    0.81
   2   0 -11   -0.35    0.82
   2   0 -11    0.69    1.59
   0   2 -11    0.50    0.52
  -2   0  11   -0.48    2.07
   0  -2  11   -0.22    0.90
   1   2 -11   16.89    4.18
  -2   1 -11   15.89    3.65
  -2   1 -11   10.68    4.21
   1   2 -11   16.09    3.43
   2  -1  11   12.22    4.53
  -1  -2  11    9.80    4.44
   2  -1  11   11.69    4.44
   2   2 -11    0.11    1.42
   2   2 -11   -0.04    0.56
  -2   2 -11   -0.86    0.98
  -2   2 -11    0.24    1.29
   2  -2  11    0.30    0.97
   2  -2  11    1.54    2.06
  -2  -2  11   -0.09    1.72
   2  -2  11    1.07    1.55
  -2   3 -11    4.70    1.59
  -2   3 -11    2.72    1.19
   3   2 -11    2.61    1.16
   3   2 -11    2.12    1.68
   2  -3  11   -2.40    1.69
   2  -3  11    1.55    1.25
  -3  -2  11    4.08    2.05
  -1   3 -11   -0.02    0.67
  -1   3 -11    0.51    1.16
  -1   3 -11   -0.19    0.43
   3   1 -11    0.69    1.64
   1  -3  11   -0.08    1.17
   1  -3  11   -0.80    0.67
  -3  -1  11    0.06    2.18
   0   3 -11    5.19    1.80
   0   3 -11    3.21    1.13
   3   0 -11    2.79    2.13
  -3   0 -11    2.51    1.33
   3   0  11    7.28    1.89
   0  -3  11    4.13    1.84
  -3   0  11    2.30    2.53
  -3   1 -11   -0.46    1.49
   1   3 -11   -1.03    1.33
  -3   1 -11    0.32    1.10
  -3   1 -11    0.07    0.54
   1   3 -11    0.03    0.51
   3  -1  11    0.45    2.06
  -1  -3  11   -0.48    1.44
   3  -1  11   -1.29    1.79
   2   3 -11    3.92    1.82
  -3   2 -11    5.39    1.57
  -3   2 -11    2.93    1.09
  -3   2 -11    4.24    1.71
   2   3 -11    3.66    1.07
   3  -2  11    4.08    1.54
  -2  -3  11    4.34    1.91
   3  -2  11    5.04    2.00
   3  -2  11    3.29    2.82
  -3   3 -11   -0.43    1.13
  -3   3 -11   -0.71    1.39
  -3   3 -11   -0.02    0.37
  -3   3 -11   -0.55    1.76
   3   3 -11   -0.41    1.49
   3  -3  11    0.40    0.37
   3  -3  11   -3.24    1.52
   3  -3  11   -4.06    1.36
  -3  -3  11   -0.22    1.73
   4   3 -11    1.32    1.60
   4   3 -11    0.68    0.62
  -3   4 -11    2.41    2.04
   4   3 -11    0.18    0.97
  -3   4 -11    0.13    1.44
   3  -4  11    3.49    2.97
  -4  -3  11    0.37    1.86
  -4  -3  11    0.21    1.18
  -4  -3  11    0.92    0.98
   4   2 -11   16.65    5.70
   4   2 -11   15.63    6.19
  -2   4 -11   23.08    5.51
   4   2 -11   16.06    4.88
  -2   4 -11   20.48    5.23
  -2   4 -11   21.15    5.66
  -4  -2  11   14.71    6.65
   2  -4  11   19.69    4.92
  -1   4 -11   -0.34    1.24
   4   1 -11   -0.22    1.73
  -1   4 -11    0.30    0.51
  -1   4 -11    0.09    0.79
   4   1 -11    0.24    0.74
   1  -4  11   -0.28    0.85
   1  -4  11    0.24    1.31
   1  -4  11    0.43    0.45
  -4  -1  11    0.91    2.27
   0   4 -11    0.17    0.50
   4   0 -11    0.55    0.88
  -4   0 -11   -0.88    0.79
   0   4 -11    0.27    1.20
   4   0 -11   -0.76    1.85
   0  -4  11   -0.21    0.48
  -4   0  11   -0.15    2.34
   0  -4  11   -0.29    1.33
  -4   1 -11    0.98    0.57
   1   4 -11    1.14    1.27
   1   4 -11    1.63    0.61
  -1  -4  11    1.23    1.43
  -1  -4  11    0.19    0.56
  -4   2 -11   20.81    5.83
   2   4 -11   19.05    5.55
  -4   2 -11   28.94    6.73
   2   4 -11   23.33    6.53
  -2  -4  11   22.26    6.65
  -2  -4  11   19.68    5.41
   4  -2  11   24.89    6.99
  -4   3 -11    0.50    1.43
   3   4 -11    1.71    1.48
  -4   3 -11   -1.18    1.43
  -4   3 -11    0.42    0.45
   4  -3  11    1.87    1.52
  -3  -4  11    0.26    0.60
   4  -3  11   -0.44    1.83
  -3  -4  11    1.12    1.64
   4  -3  11    0.45    0.39
  -4  -4  11    8.06    2.47
  -4  -4  11    5.73    1.90
   5   4 -11    0.13    1.70
   5   4 -11    0.94    0.97
   5   4 -11    0.34    0.74
   5   4 -11    0.20    1.48
  -5  -4  11    1.93    1.71
  -5  -4  11    1.53    2.05
  -5  -4  11    0.56    1.11
  -5  -4  11    0.44    0.69
   5   3 -11   18.07    5.27
  -3   5 -11   27.17    5.12
   5   3 -11    7.19    6.99
  -3   5 -11   13.59    4.47
   5   3 -11   15.27    4.00
   5   3 -11   17.17    5.07
  -5  -3  11   12.99    4.90
  -5  -3  11   12.43    5.52
   3  -5  11   16.91    4.03
  -5  -3  11   15.78    4.86
   5   2 -11    0.14    1.90
   5   2 -11    0.09    1.60
  -2   5 -11    0.19    0.90
  -2   5 -11    0.17    1.35
   5   2 -11    1.59    0.72
  -5  -2  11   -0.29    2.39
   2  -5  11    1.79    0.54
   5   1 -11    1.90    2.42
   5   1 -11    4.03    2.42
   5   1 -11    4.88    1.45
  -1   5 -11    7.38    1.92
  -1   5 -11    6.54    1.45
   1  -5  11    4.24    2.00
   1  -5  11    5.32    1.30
   5   1  11    1.78    2.37
  -5  -1  11    3.57    3.08
   5   0 -11    1.88    1.98
  -5   0 -11   -0.35    1.79
  -5   0 -11   -0.22    0.74
   0   5 -11    0.14    1.14
   0   5 -11    0.22    0.61
   5   0 -11   -0.18    0.82
   0  -5  11    1.33    0.92
  -5   0  11   -0.41    2.58
   5   0  11   -0.20    1.74
   0  -5  11    0.08    0.46
   5   0  11   -1.05    2.44
  -5   1 -11    6.72    1.43
   1   5 -11    4.36    1.40
   1   5 -11    5.55    1.90
  -5   1 -11    4.22    2.17
   5  -1  11   -2.63    3.76
  -1  -5  11    4.03    1.28
   5  -1  11    4.83    2.09
   2   5 -11    0.73    0.69
  -5   2 -11    0.17    1.72
  -5   2 -11   -5.55    2.09
  -5   2 -11    0.66    0.51
   2   5 -11    0.82    1.35
  -2  -5  11    1.40    0.60
   3   5 -11   17.70    4.54
  -5   3 -11   13.97    5.52
  -5   3 -11    8.30    5.68
   3   5 -11   19.88    5.33
  -5   3 -11   17.53    4.85
  -5   3 -11   25.71    5.20
  -3  -5  11   24.31    4.40
   5  -3  11   15.25    4.54
  -5   4 -11   -0.11    0.65
  -5   4 -11   -0.49    2.59
  -5   4 -11    3.99    2.11
   4   5 -11   -0.46    1.48
  -5   4 -11    0.76    1.33
   4   5 -11    0.05    0.74
   5  -4  11    3.54    1.40
   5  -4  11    0.36    0.41
   5  -4  11    7.44    2.99
   5   5 -11   -1.25    1.74
  -5   5 -11    0.30    2.77
   5   5 -11    0.05    0.73
  -5  -5  11   -0.27    1.85
  -5  -5  11   -0.61    0.69
   5  -5  11    1.58    2.64
   5  -5  11   -1.93    3.87
   6   5 -11    8.95    2.29
  -5   6 -11   13.17    3.03
   6   5 -11    5.48    3.20
  -6  -5  11    4.65    3.55
   5  -6  11    3.05    3.92
  -6  -5  11    9.63    2.22
   6   4 -11   50.57   15.92
   6   4 -11   52.87   13.07
  -4   6 -11   61.37   16.15
  -6  -4  11   45.99   12.90
  -6  -4  11   50.30   13.77
  -6  -4  11   68.13   15.70
  -6  -4  11   50.74   16.51
   6   3 -11    0.29    0.71
   6   3 -11   -0.71    2.66
  -3   6 -11    0.91    1.20
  -3   6 -11    0.91    0.81
   6   3 -11    1.69    1.95
   6   3 -11    0.96    1.65
  -6  -3  11    1.01    2.30
   3  -6  11    1.20    0.51
  -6  -3  11    0.11    2.09
   3  -6  11   -0.14    2.31
  -6  -3  11    1.03    1.63
  -2   6 -11   90.22   23.07
   6   2 -11   81.26   23.79
   6   2 -11   95.01   20.85
  -2   6 -11  102.74   25.23
   6   2 -11   75.25   25.70
   6   2 -11   98.86   32.71
  -6  -2  11   80.14   23.70
   2  -6  11   84.98   21.08
  -6  -2  11   81.11   23.12
  -6  -2  11   73.27   27.49
  -6  -1 -11    2.69    3.15
  -1   6 -11    7.83    2.50
   6   1 -11    9.90    2.00
   6   1 -11    8.33    3.08
   6   1 -11    7.40    3.06
  -1   6 -11    8.64    2.19
   6   1  11    6.57    3.32
   1  -6  11    7.40    1.92
  -6  -1  11    3.18    3.79
   6   0 -11    0.36    0.93
   0   6 -11   -0.12    0.94
   0   6 -11    0.05    1.27
  -6   0 -11   -0.72    2.04
   6   0 -11   -1.14    2.30
  -6   0 -11   -0.34    0.76
   6   0  11   -1.86    2.06
  -6   0  11    1.49    2.91
   6   0  11   -3.80    3.21
   0  -6  11   -0.09    0.57
   1   6 -11    5.80    2.25
  -6   1 -11    6.76    2.18
  -6   1 -11   11.80    2.89
   1   6 -11    9.29    2.64
   6  -1  11    5.34    4.54
   6  -1  11    7.90    2.74
  -1  -6  11    8.65    2.02
  -6   2 -11   79.99   23.86
  -6   2 -11   85.83   23.17
   2   6 -11  106.45   21.83
   2   6 -11   78.47   24.66
   6  -2  11   77.33   21.64
  -2  -6  11   87.81   20.74
   6  -2  11   88.94   23.68
   3   6 -11    1.41    0.95
   3   6 -11    0.95    1.42
  -6   3 -11    0.68    2.86
  -6   3 -11   -0.05    2.00
  -6   3 -11    0.43    0.53
  -6   3 -11    0.08    1.38
   6  -3  11    0.06    0.36
   6  -3  11   -3.42    3.09
  -3  -6  11    0.44    0.63
   6  -3  11   -0.05    2.16
  -6   4 -11   42.53   13.92
  -6   4 -11   55.46   14.98
   4   6 -11   47.20   14.78
  -6   4 -11   60.13   16.48
  -6   4 -11   48.16   13.44
   6  -4  11   41.80   16.39
   6  -4  11   54.90   14.47
  -6   5 -11    6.81    4.01
   5   6 -11    8.10    3.24
  -6   5 -11   12.01    3.28
   5   6 -11   10.04    2.49
  -5  -6  11    7.42    2.32
   6  -5  11    8.65    5.19
   6  -5  11    9.15    4.02
   6   6 -11   -0.60    1.01
   6   6 -11    0.14    1.84
  -6   6 -11    1.19    3.17
   6  -6  11    0.55    3.25
  -6  -6  11    1.03    0.75
   7   6 -11   -0.49    1.07
   7   6 -11   -0.22    1.98
   6  -7  11    0.69    3.49
  -7  -6  11    0.12    0.83
  -5   7 -11    0.95    1.29
   7   5 -11    0.82    2.07
   7   5 -11   -0.53    0.96
   5  -7  11   -0.41    3.13
  -7  -5  11    0.35    0.78
  -7  -5  11   -0.72    2.36
  -4   7 -11    5.52    2.00
   7   4 -11    3.46    1.45
   7   4 -11    4.14    2.66
   4  -7  11    3.03    3.15
  -7  -4  11    7.55    1.48
  -7  -4  11    4.27    2.93
   7   3 -11   12.81    5.04
  -3   7 -11   11.16    4.64
   7   3 -11   16.13    3.58
  -7  -3  11   13.52    5.45
   7   2 -11    7.02    2.86
  -2   7 -11    6.39    2.21
   7   2 -11    5.71    1.62
  -7  -2  11    3.38    3.35
  -7  -1 -11    4.56    3.24
   7   1 -11    9.63    3.14
  -1   7 -11    6.24    2.41
   7   1 -11    6.28    1.88
  -1   7 -11    6.01    2.10
   7   1  11    9.81    3.03
  -7  -1  11    9.47    3.98
   7   1  11    7.04    3.72
   1  -7  11    5.79    1.80
   7   0 -11   25.38    7.16
   0   7 -11   27.70    7.69
   7   0 -11   19.20    8.79
  -7   0 -11   30.65    8.89
   0   7 -11   31.57    8.51
   7   0 -11   32.28    9.48
   7   0  11   30.89    8.49
   0  -7  11   28.87    7.01
  -7   0  11   20.00   10.57
   7   0  11   33.31    9.97
  -7   1 -11    7.95    2.76
   1   7 -11    6.25    2.09
   1   7 -11    4.72    2.36
   7  -1 -11    6.81    2.13
  -1  -7  11    6.82    1.79
   7  -1  11    7.10    2.62
   7  -1  11   10.96    4.88
   2   7 -11    3.12    1.83
   2   7 -11    6.27    2.16
  -7   2 -11    5.81    2.63
  -2  -7  11    5.87    1.53
   7  -2  11    4.14    2.58
   7  -2  11    9.41    4.78
   3   7 -11   15.11    4.49
   3   7 -11   18.33    3.97
  -7   3 -11   13.95    5.21
  -7   3 -11   13.31    4.85
  -3  -7  11   14.87    3.59
   7  -3  11   13.24    4.73
   7  -3  11   10.92    5.89
   4   7 -11    4.78    2.03
  -7   4 -11    3.18    3.65
  -7   4 -11    4.04    3.20
   7  -4  11    3.62    3.09
   7  -4  11    2.56    3.69
  -7   5 -11   -1.10    3.59
   5   7 -11   -1.23    1.71
  -7   5 -11   -0.85    3.69
   5   7 -11   -0.08    1.19
   7  -5  11   -0.94    4.63
  -5  -7  11   -0.18    0.86
   7  -5  11   -0.14    3.28
  -7   6 -11   -1.41    3.70
   6   7 -11   -0.84    1.88
   6   7 -11    0.78    1.31
   7  -6  11    0.55    3.61
   7  -6  11   -7.49    5.06
  -6  -7  11    0.26    0.87
   7   7 -11   -0.38    2.13
   7   7 -11   -0.27    1.36
  -7  -7  11   -0.27    0.97
   7  -7  11    1.77    3.88
   8   7 -11    3.33    2.42
   8   7 -11    1.15    1.57
   7  -8  11    1.90    3.99
  -8  -7  11    4.17    1.27
   8   6 -11    1.36    2.39
   8   6 -11    0.16    1.34
   6  -8  11   -0.33    3.72
  -8  -6  11   -0.40    1.01
  -8  -6  11   -0.35    2.58
   8   5 -11   24.60    6.05
   8   5 -11   22.87    7.83
  -8  -5  11   22.88    8.25
  -8  -5  11   24.25    5.94
   8   4 -11    2.34    2.48
   8   4 -11    2.56    1.09
  -8  -4  11    2.20    1.08
  -8  -4  11    4.00    3.01
   8   3 -11   21.27    5.35
   8   3 -11   19.69    4.22
   8   3 -11   19.17    6.88
   8   3 -11   10.09    5.92
  -8  -3  11   13.05    5.28
  -8  -3  11   15.31    5.24
  -8  -3  11   11.13    6.53
   8   2 -11   12.89    6.14
  -2   8 -11   10.90    3.99
   8   2 -11   10.23    3.05
   8   2 -11   13.87    4.20
   8   2 -11    9.26    4.56
  -8  -2  11   10.06    4.42
  -8  -2  11   10.34    4.17
   8   2  11   12.53    4.83
  -8  -2  11   13.33    5.31
   8   1 -11    4.20    3.76
   8   1 -11   11.82    2.39
  -1   8 -11    9.00    3.06
   8   1 -11    3.18    3.84
  -8  -1 -11    8.90    3.96
  -8  -1  11    9.01    4.77
   8   1  11   10.21    4.66
  -8  -1  11    4.58    3.75
   8   1  11   13.36    3.56
   8   0 -11   -0.37    0.97
   8   0 -11    0.43    2.48
  -8   0 -11   -0.78    2.38
   8   0 -11   -1.10    3.33
   0   8 -11    0.85    1.38
   8   0  11   -0.67    2.10
  -8   0  11    1.41    3.60
   8   0  11    1.95    4.34
  -8   1 -11    8.66    3.35
   8  -1 -11   10.19    2.55
   1   8 -11    8.80    2.97
   8  -1 -11    4.66    4.44
   8  -1  11    8.51    3.18
   8  -1  11    9.63    5.88
  -1  -8  11    7.09    2.26
  -8   2 -11   11.18    4.36
   2   8 -11   13.15    3.67
   2   8 -11   12.41    4.12
   8  -2  11   13.95    4.29
  -2  -8  11   15.06    3.28
   8  -2  11   11.92    6.49
   3   8 -11   16.52    5.21
  -8   3 -11   13.06    5.70
   3   8 -11   13.97    4.63
  -8   3 -11   28.05    6.24
   8  -3  11   12.51    6.87
  -3  -8  11   17.14    4.19
   8  -3  11   16.37    5.57
  -8   4 -11    2.78    4.15
  -8   4 -11    0.36    3.43
   4   8 -11    2.29    1.75
   8  -4  11    1.35    3.32
   8  -4  11   -0.74    3.88
   5   8 -11   21.36    6.69
  -8   5 -11   14.18    7.17
  -8   5 -11   27.01    8.36
   5   8 -11   20.43    5.88
  -5  -8  11   22.52    5.33
   8  -5  11   23.62    8.83
   8  -5  11   19.56    7.63
  -8   6 -11    2.44    4.07
   6   8 -11   -0.07    2.06
   6   8 -11   -0.10    1.41
   8  -6  11    2.93    5.46
  -6  -8  11    0.35    0.94
   8  -6  11    0.09    4.10
   7   8 -11    2.42    1.69
   7   8 -11    1.99    2.17
  -7  -8  11    3.90    1.23
   8  -7  11    2.04    4.20
   8   8 -11    0.83    2.29
   8   8 -11    0.44    1.62
  -8  -8  11   -0.08    1.00
   8  -8  11   -0.78    4.32
   9   8 -11    3.03    2.02
   9   8 -11    2.32    2.74
  -9  -8  11    6.28    1.51
   9   7 -11    4.54    3.09
   9   7 -11    6.57    2.07
  -9  -7  11    4.61    1.70
   9   6 -11    0.97    2.52
   9   6 -11   -0.67    1.24
  -9  -6  11   -0.45    3.01
  -9  -6  11   -1.14    1.02
   9   5 -11   10.58    4.50
   9   5 -11   10.54    3.04
  -9  -5  11   13.48    5.02
  -9  -5  11    9.32    2.96
   9   4 -11   19.72    4.48
   9   4 -11   12.45    6.26
  -9  -4  11   16.82    6.83
  -9  -4  11   17.19    4.46
   9   3 -11    1.95    2.50
   9   3 -11    0.21    0.87
  -9  -3  11   -0.09    2.90
  -9  -3  11   -0.53    2.37
  -9  -3  11    2.14    3.23
  -9  -3  11   -0.50    0.94
   9   2 -11   11.87    4.14
  -9  -2 -11    9.38    4.71
   9   2 -11   11.27    4.38
   9   2 -11    6.27    5.92
   9   2 -11   11.86    2.79
  -9  -2  11   11.31    4.10
   9   2  11   11.93    4.92
  -9  -2  11    8.23    4.30
  -9  -2  11    5.98    5.21
   9   1 -11    2.13    3.26
   9   1 -11    4.43    4.71
  -9  -1 -11    1.44    2.99
   9   1 -11    1.40    1.04
   9   1 -11    0.41    2.68
  -9  -1  11    2.92    3.23
   9   1  11    6.09    4.39
  -9  -1  11    0.88    4.03
   9   1  11    2.00    2.53
   9   0 -11    3.80    2.87
   9   0 -11    2.11    1.22
  -9   0 -11    0.17    2.71
   9   0 -11   -1.44    3.72
   9   0  11    6.24    2.38
  -9   0  11    2.79    4.02
   9   0  11   -1.55    5.19
  -9   1 -11    1.87    2.62
   9  -1 -11   -0.92    4.27
   9  -1 -11    0.91    1.28
   9  -1  11    0.71    5.55
   9  -1  11    1.05    2.35
  -9   2 -11    9.55    4.29
   9  -2  11    8.74    4.05
   9  -2  11   16.31    6.64
  -9   3 -11   -2.49    4.64
  -9   3 -11   -0.71    3.17
   9  -3  11   -1.27    3.32
   9  -3  11   -0.96    3.92
  -9   4 -11   24.17    7.15
  -9   4 -11   20.52    7.16
   9  -4  11   28.65    6.70
   9  -4  11    8.79    7.82
   5   9 -11   11.06    3.86
  -9   5 -11   12.20    5.61
  -9   5 -11   10.72    6.14
  -5  -9  11   11.06    2.93
   9  -5  11    9.25    5.46
   6   9 -11    1.12    2.05
  -9   6 -11    2.15    4.49
   9  -6  11   -4.95    6.06
   9  -6  11   -0.69    4.48
  -6  -9  11    1.01    1.02
   7   9 -11    5.48    2.83
  -9   7 -11    5.61    4.90
  -7  -9  11    6.43    1.77
   9  -7  11    6.23    5.07
   8   9 -11    0.17    2.45
   9  -8  11   -2.98    4.70
  10   9 -11   -0.10    2.35
 -10  -9  11   -2.22    1.50
  10   7 -11    1.13    2.86
  10   7 -11    3.84    1.82
 -10  -7  11    3.96    1.39
 -10  -7  11    3.19    3.36
  10   6 -11   -0.09    1.48
  10   6 -11    1.16    2.89
 -10  -6  11    3.09    3.38
 -10  -6  11    2.19    1.16
  10   5 -11    3.59    3.14
  10   5 -11    3.29    1.62
 -10  -5  11    5.99    3.68
 -10  -5  11    5.02    1.49
  10   4 -11    2.00    1.14
  10   4 -11    2.24    2.98
 -10  -4  11   -0.40    3.61
 -10  -4  11    2.31    1.11
  10   3 -11    2.56    3.08
  10   3 -11    3.25    1.47
 -10  -3  11    4.67    3.98
 -10  -3  11    4.60    3.51
 -10  -3  11    3.18    2.95
 -10  -3  11    6.93    1.52
  10   2 -11    0.20    3.22
  10   2 -11    9.17    3.52
  10   2 -11    7.45    5.06
 -10  -2 -11   19.61    4.32
  10   2 -11   -0.26    1.58
  10   2  11   14.50    3.61
 -10  -2  11    3.16    3.72
 -10  -2  11    6.13    4.47
 -10  -2  11    4.64    3.61
  10   2  11    3.96    4.84
  10   1 -11  -10.26    5.23
  10   1 -11    2.40    2.87
  10   1 -11   -0.71    0.93
  10   1 -11    0.48    3.64
 -10  -1  11    0.38    3.58
 -10  -1  11   -0.10    4.27
  10   0 -11    2.32    4.20
  10   0 -11   -0.06    1.03
  10   0 -11   -0.98    3.09
 -10   0  11    2.63    4.18
 -10   0  11   -1.02    3.55
  10  -1 -11    1.57    1.28
  10  -1 -11   -1.74    4.56
 -10   2 -11   11.17    6.07
  10  -2  11  -13.48    7.72
 -10   3 -11   -3.09    4.17
 -10   3 -11    7.76    5.59
 -10   4 -11    3.17    4.63
 -10   4 -11   -0.83    5.18
  10  -4  11    1.84    4.22
  10  -4  11   -9.15    5.32
 -10   5 -11    0.68    5.22
 -10   5 -11    6.43    5.42
  10  -5  11    2.63    4.66
  10  -5  11   -2.33    6.61
 -10   6 -11    0.15    6.16
 -10   6 -11    3.12    5.22
  10  -6  11    3.14    4.87
  10  -6  11    4.48    6.86
 -10   7 -11    3.21    5.09
  10  -7  11    0.23    5.17
  10  -8  11    5.44    5.39
  11  10 -11   -0.11    2.93
  11   9 -11   -2.60    2.97
 -11  -9  11   -0.91    1.48
 -11  -8  11    1.38    1.33
  11   7 -11   -0.62    3.12
 -11  -7  11   -0.55    3.83
  11   6 -11    2.58    1.70
  11   6 -11   -1.35    3.05
 -11  -6  11    0.08    1.16
 -11  -6  11   -2.57    3.75
  11   5 -11    4.09    1.49
  11   5 -11    3.04    3.30
 -11  -5  11    3.08    1.37
 -11  -5  11    0.41    3.91
  11   4 -11    4.81    3.34
  11   4 -11    4.85    1.69
 -11  -4  11    3.13    1.55
 -11  -4  11    9.57    4.36
  11   3 -11   -1.00    2.87
 -11  -3 -11   -0.92    3.92
  11   3 -11    0.52    1.07
  11   3  11   10.13    4.86
 -11  -3  11    2.37    4.10
 -11  -3  11    1.90    1.14
  11   2 -11    0.82    1.00
  11   2 -11   -1.05    2.99
  11   2 -11   -1.45    5.04
  11   2 -11    3.31    3.48
 -11  -2 -11    1.92    3.83
  11   2  11   -7.32    5.45
 -11  -2  11    1.54    3.68
 -11  -2  11    3.89    3.49
 -11  -2  11   -1.12    4.41
  11   2  11    4.46    3.26
  11   1 -11    0.95    1.14
  11   1 -11    1.84    3.21
  11   1 -11    1.70    5.54
 -11  -1 -11   -0.70    3.55
  11   1 -11    5.04    4.14
 -11  -1  11    1.00    4.62
 -11  -1  11   -1.99    4.41
  11   1  11   -0.44    5.99
  11   1  11    7.12    3.13
 -11  -1  11   -0.14    3.87
 -11   0 -11   20.63    5.96
  11   0 -11   26.67    6.68
  11   0 -11   16.07    4.30
  11   0  11   11.17    5.45
 -11   0  11   10.17    7.78
 -11   0  11   12.86    6.23
  11   0  11   20.31    8.63
  11  -1 -11    1.86    5.41
 -11   1 -11    3.24    4.28
  11  -1  11   33.72    7.55
  11  -1  11   16.45    4.11
 -11   2 -11    1.37    6.05
 -11   2 -11    1.42    3.84
  11  -2  11   -1.34    6.49
  11  -2  11   -1.64    3.78
 -11   3 -11    5.09    4.56
 -11   3 -11   -0.36    6.43
  11  -3  11    2.21    5.14
  11  -3  11    1.34    4.23
 -11   4 -11    6.03    5.43
 -11   4 -11    7.13    6.22
  11  -4  11   -0.62    4.91
  11  -4  11    1.75    6.13
 -11   5 -11    1.85    6.08
 -11   5 -11    2.31    5.91
  11  -5  11    5.82    5.11
  11  -5  11   -3.79    7.03
 -11   6 -11   -2.05    6.95
 -11   6 -11   -1.22    5.66
  11  -6  11   -2.76    7.61
  11  -6  11    1.90    5.50
 -11   7 -11   14.58    5.56
  11  -7  11  -19.34    5.71
  12  10 -11   -5.90    3.58
  12   9 -11    5.50    4.03
 -12  -9  11   10.30    4.55
  12   8 -11    0.97    2.07
  12   8 -11    0.65    3.20
 -12  -8  11    2.94    1.41
 -12  -8  11    0.91    4.00
  12   6 -11   -0.67    3.54
  12   6 -11    6.14    1.80
 -12  -6  11   -0.09    1.19
  12   5 -11    0.11    3.53
  12   5 -11   -0.09    1.40
 -12  -5  11    0.08    1.25
 -12  -5  11   -2.28    4.34
  12   4 -11   -0.11    3.20
  12   4 -11   -0.88    1.25
 -12  -4  11    2.87    4.51
 -12  -4  11   -1.62    1.20
  12   3 -11    1.59    2.99
  12   3 -11    0.25    1.17
 -12  -3  11    3.69    4.57
 -12  -3  11   -0.30    1.11
  12   2 -11   -1.02    1.04
  12   2 -11    3.67    3.13
 -12  -2  11    1.94    4.03
 -12  -2  11   -0.28    3.76
 -12  -2  11   -0.11    4.68
  12   1 -11    0.72    3.47
  12   1 -11    3.23    1.33
  12   1 -11    0.28    5.81
  12   1 -11    3.71    4.53
 -12  -1  11    9.37    4.77
 -12  -1  11    3.04    4.39
 -12  -1  11    4.57    4.98
  12   0 -11   -6.37    4.92
  12   0 -11    0.69    1.19
 -12   0 -11  -10.72    4.15
 -12   0  11   -2.92    4.59
 -12   0  11   -3.94    4.16
  12   0  11    5.72    3.15
  12  -1 -11    9.76    5.51
 -12   1 -11   10.17    4.41
  12  -1 -11    4.07    1.72
  12  -1  11    1.32    3.59
 -12   2 -11   -6.64    4.68
  12  -2 -11   -0.70    5.89
  12  -2  11   -3.55    4.09
 -12   3 -11    3.65    5.27
  12  -3  11   -2.17    4.85
 -12   4 -11   -3.46    6.04
  12  -4  11    8.12    5.40
 -12   7 -11    0.48    6.22
  12  -7  11   -0.84    8.26
  12  -8  11   -0.82    6.08
  13  10 -11    7.01    4.25
  13   9 -11    2.57    3.98
 -13  -9  11   11.75    4.84
  13   8 -11    1.65    3.57
  13   8 -11   -1.91    2.19
 -13  -8  11   -2.97    4.31
 -13  -8  11    1.96    1.54
  13   7 -11   12.22    3.39
  13   7 -11    0.93    2.22
 -13  -7  11   -0.10    1.63
 -13  -5  11    0.10    4.98
 -13  -5  11    6.82    1.81
 -13  -4  11    1.46    1.26
 -13  -3 -11   16.03   14.89
  13   3  11   18.85   15.01
 -13  -2 -11  -13.00    5.06
  13   2  11   -6.86    3.73
  13   2  11   -5.49    6.72
  13   1 -11   -8.01    6.47
  13   1 -11   -7.61    5.04
 -13  -1 -11   -2.84    4.70
 -13  -1  11    4.97    4.83
 -13  -1  11    5.85    5.19
  13   1  11   -3.72    3.80
  13   1  11   -5.79    7.27
 -13   0 -11   16.98    4.49
  13   0 -11   -9.20    6.60
  13   0 -11   -4.16    5.60
 -13   0  11   -8.35    6.29
  13   0  11   -0.53    7.47
 -13   0  11   -0.87    4.73
 -13   1 -11    0.21    7.72
  13  -1 -11   -3.53    6.13
  13  -1  11   -7.51    7.82
  13  -2 -11  -14.31    6.92
 -13   2 -11   -7.58    8.14
  13  -2  11   21.53    4.71
 -13   3 -11   66.54   26.10
  13  -3  11   95.99   28.22
  13  -3  11  130.97   24.60
 -13   4 -11   -8.10    7.91
 -13   4 -11  -11.84    6.94
  13  -4  11   -1.67    8.48
  13  -4  11   -0.13    5.88
 -13   5 -11    0.97    7.56
 -13   5 -11  -15.64    7.44
  13  -5  11    0.27    6.15
  13  -5  11    5.91    8.82
 -13   6 -11    5.27    7.18
 -13   6 -11    5.05    8.12
  13  -6  11   -4.52    6.54
  13  -6  11    6.75    9.49
 -13   7 -11    6.29    6.97
 -13   7 -11    2.37    8.75
  13  -7  11    3.36    9.11
  13  -7  11    3.78    6.82
  13  -8  11   -6.11    6.53
 -14  -3 -11    1.73    5.47
  14   3  11    3.61    7.24
  14   3  11    4.96    4.19
 -14  -2 -11    0.18    5.40
  14   2  11  -13.67    7.57
  14   2  11    0.23    3.96
 -14  -1 -11    0.95    5.11
  14   1  11    1.13    7.61
 -14  -1  11    5.12    5.54
  14   1  11   -2.69    3.81
 -14   0 -11   11.33    5.28
  14   0  11    4.40    7.83
  14   0  11   -0.60    4.15
 -14   1 -11   -5.52    8.28
 -14   1 -11    8.42    5.49
  14  -1  11   -4.32    7.68
  14  -1  11   -2.13    4.08
 -14   2 -11   -8.33    6.26
 -14   2 -11    3.72    8.71
  14  -2  11   -1.81    4.89
  14  -2  11   -2.65    7.09
 -14   3 -11   13.00    9.16
 -14   3 -11   -2.27    7.18
  14  -3  11    9.42    7.74
  14  -3  11   -4.15    5.76
 -14   4 -11   -9.66    8.76
 -14   4 -11    0.19    7.42
  14  -4  11   -1.62    8.47
  14  -4  11   11.10    6.15
 -14   5 -11    4.28    7.89
 -14   5 -11   -7.39    8.73
  14  -5  11    2.23    6.39
  14  -5  11    5.67    9.58
 -14   6 -11    6.72    7.89
 -14   6 -11   -2.39    8.44
  14  -6  11  -10.39   10.15
  14  -6  11   -3.67    6.95
 -14   7 -11   -8.99    7.85
 -14   7 -11    0.23    8.94
  14  -7  11    0.31    7.18
  14  -7  11   -8.05   10.03
 -14   8 -11    6.22   10.25
  14  -8  11   13.52    7.78
 -15  -3 -11   -0.21    5.96
  15   3  11    2.50    7.93
  15   3  11   -3.10    4.63
 -15  -2 -11    7.76    6.02
  15   2  11    4.01    4.48
  15   2  11    0.12    8.04
 -15  -1 -11   -0.89    5.71
  15   1  11    1.81    8.27
  15   1  11    3.57    4.19
 -15   0 -11    6.45    5.73
  15   0 -11   -0.14    6.24
  15   0 -11   -3.53    7.08
 -15   0  11    8.28    5.32
  15   0  11   -0.35    4.52
  15   0  11    0.12    8.09
 -15   0  11    9.48    7.19
 -15   1 -11   16.09    6.03
 -15   1 -11   -0.51    9.43
  15  -1 -11    5.44    7.00
 -15   1  11  -10.46    8.44
  15  -1  11   -3.64    4.59
  15  -1  11   -3.86    7.62
 -15   2 -11   -0.36    6.58
  15  -2 -11   11.06    7.54
 -15   2 -11   -0.28    9.62
  15  -2  11   -0.89    5.31
  15  -2  11   -2.07    6.90
 -15   3 -11    9.49    9.96
 -15   3 -11    3.16    7.62
  15  -3  11   -0.11    7.69
  15  -3  11  -10.58    5.78
 -15   4 -11    2.72    9.72
 -15   4 -11   12.76    8.10
  15  -4  11   -4.71    6.87
  15  -4  11  -10.21    9.15
 -15   5 -11   10.77   12.29
 -15   5 -11   16.28   12.50
  15  -5  11   42.90   14.58
  15  -5  11   32.87   10.89
 -15   6 -11   10.52    9.28
 -15   6 -11   -4.07    8.79
  15  -6  11   -5.15    7.13
  15  -6  11   -7.19   10.99
 -15   7 -11    1.29    9.04
 -15   7 -11   23.17   10.64
  15  -7  11   -4.43   11.48
  15  -7  11   20.16    8.12
 -15   8 -11  -14.34   10.77
  15  -8  11   -4.33    7.91
 -16  -3 -11  -10.47    6.88
  16   3  11    1.18    4.96
  16   3  11   -0.13    8.52
 -16  -2 -11   -0.67    6.81
  16   2  11    1.39    4.87
  16   2  11   -6.01    8.61
 -16  -1 -11   -1.21    6.55
  16   1  11   -8.59    9.06
  16   1  11   -5.52    5.04
 -16   0 -11  -13.51    6.99
 -16   0 -11   -2.69    9.88
 -16   0  11   -6.97    6.04
 -16   0  11   -4.78    7.59
 -16   1 -11   -8.99    7.13
 -16   1 -11    4.56   10.13
  16  -1 -11   -1.72    7.78
 -16   1  11  -20.08    9.18
  16  -2 -11    0.75    8.08
 -16   2 -11   12.18    7.42
 -16   2 -11   -2.54   10.99
  16  -2  11   -1.48    7.29
  16  -2  11   -9.42    5.47
 -16   3 -11   16.69    8.66
 -16   3 -11    4.22   11.13
  16  -3  11   19.28   10.08
  16  -3  11    4.75    6.80
 -16   4 -11   -7.01   10.66
 -16   4 -11  -12.59    8.77
  16  -4  11    2.14   10.29
  16  -4  11    3.93    6.85
 -16   5 -11   -7.81   10.58
 -16   5 -11    5.61    9.53
  16  -5  11    2.27   12.04
  16  -5  11   -2.50    7.42
 -16   6 -11  -16.80    9.70
 -16   6 -11   -8.19    9.89
  16  -6  11   21.24    8.15
  16  -6  11    4.18   12.07
 -16   7 -11   -1.43    9.55
 -16   7 -11   -3.98   10.52
  16  -7  11   -0.73    7.96
  16  -7  11   -7.55   12.10
 -16   8 -11   12.62   11.58
 -17  -3 -11   -0.26    7.35
  17   3  11    4.08    5.44
  17   3  11    1.80    9.31
 -17  -2 -11    1.25    7.53
  17   2  11    0.31    5.46
  17   2  11   -4.32    9.56
 -17  -1 -11   -1.61    7.48
 -17  -1 -11    0.85   10.82
  17   1  11    5.52    9.11
  17   1  11   10.61    5.69
 -17   0 -11   -4.96    7.40
 -17   0 -11   -3.57   10.62
  17   0  11   -1.60    9.04
  17   0  11    4.74    5.48
  17  -1 -11   -2.04    8.11
 -17   1 -11   -7.77    7.63
 -17   1 -11    6.47   11.62
  17  -1  11    1.57    5.58
 -17   1  11  -12.82    9.47
  17  -1  11   13.18    8.22
  17  -2 -11   10.86    8.82
 -17   2 -11   -2.46   12.32
 -17   2 -11   -3.02    8.10
 -17   2  11    0.26   10.15
  17  -2  11   -3.35    6.17
  17  -2  11   -8.30    8.33
 -17   3 -11   -7.73    8.92
 -17   3 -11    3.26   11.64
  17  -3  11    6.28    6.53
  17  -3  11  -13.47    9.94
 -17   4 -11   -4.86   11.78
 -17   4 -11    5.70    9.62
  17  -4  11   -0.54    7.50
  17  -4  11   -1.09   11.85
 -17   5 -11  -11.25   10.54
 -17   5 -11   10.67   11.75
  17  -5  11  -25.90   14.20
 -17   7 -11  -12.76   11.53
 -17   7 -11   25.16   11.08
  17  -7  11  -10.82   13.32
  17  -7  11   -8.66    8.82
 -17   8 -11    2.33   11.68
  17  -8  11    5.39    9.01
 -18  -3 -11   -2.61    8.83
  18   3  11  -13.40    6.96
 -18  -2 -11   -3.97   10.47
  18   1  11  123.71   33.49
 -18   0 -11   15.58   41.62
 -18   0 -11    2.31   45.92
  18   0  11  238.33   40.55
 -18   1 -11   14.85   27.55
 -18   1 -11    1.01   28.73
  18  -1  11  111.74   25.36
 -18   1  11   21.34   26.62
 -18   2 -11    7.01   13.56
  18  -2 -11  -31.10   10.08
 -18   2  11   21.07   11.46
 -18   3 -11  -13.14   10.37
 -18   3 -11   -0.40   13.39
  18  -3  11  -27.04   13.01
  18  -3  11   -6.98    7.78
 -18   4 -11   -7.00   13.13
 -18   4 -11   -7.18   10.61
  18  -4  11   -1.29   13.71
  18  -4  11   -2.26    7.76
 -18   5 -11   17.47   13.14
 -18   5 -11  -19.39   11.25
  18  -5  11    3.17    8.36
  18  -5  11   -3.23   14.54
 -18   6 -11    2.40   11.71
 -18   6 -11   -3.03   12.50
  18  -6  11    5.29   14.40
  18  -6  11    4.05    9.33
 -18   7 -11   -0.44   11.66
 -18   7 -11    7.02   11.60
  18  -7  11  -12.56    9.41
  18  -7  11   -0.25   14.53
 -18   8 -11    1.24   12.34
  18  -8  11   -3.66    9.70
 -19  -3 -11    0.33    9.60
  19   3  11    4.85    7.19
 -19  -2 -11    5.48    9.96
 -19  -2 -11    8.02   12.41
  19   2  11   -0.77    6.89
  19   2  11    7.00   10.72
 -19  -1 -11   -1.24   10.13
 -19  -1 -11   -4.56   12.92
  19   1  11   -5.97    9.76
  19   1  11    1.68    6.95
 -19   0 -11   -0.29   10.52
 -19   0 -11   -1.51   13.77
  19   0  11   20.63    9.63
  19   0  11    5.94    7.44
 -19   1 -11   -9.83   14.32
 -19   1 -11    2.63   10.34
  19  -1  11    2.15    7.26
  19  -1  11  -16.09    9.11
 -19   2 -11    2.94   10.28
 -19   2 -11   -5.09   14.69
  19  -2  11    0.17   11.62
  19  -2  11    6.87    7.41
 -19   3 -11   -0.92   11.22
 -19   3 -11   -4.40   14.64
  19  -3  11    5.41   13.30
  19  -3  11    5.87    7.64
 -19   4 -11    1.28   11.45
  19  -4  11    3.33    8.45
 -19   5 -11   21.02   12.16
  19  -5  11   -3.26    9.24
   0   0 -12   83.40   21.46
   1   0 -12    0.45    0.87
  -1   0 -12    0.25    0.84
   0   1 -12   -0.41    1.55
   0   1 -12   -0.05    0.69
  -1   0  12    0.71    2.09
   0  -1  12    0.78    2.09
  -1   1 -12   25.52    6.02
   1   1 -12   20.21    5.81
   1   1 -12   23.17    6.92
   1  -1  12   19.26    6.70
  -1  -1  12   23.35    7.47
   2   1 -12    0.10    0.74
   2   1 -12   -0.44    1.79
  -1   2 -12    0.04    0.57
  -2  -1  12   -1.10    2.18
   1  -2  12   -0.24    1.74
   0   2 -12    9.59    2.51
   2   0 -12    7.07    3.39
   0   2 -12   11.74    3.26
   2   0 -12    8.39    2.61
   0  -2  12   10.71    3.34
   0  -2  12    8.22    3.45
  -2   0  12    5.72    3.79
   1   2 -12    0.24    1.49
   1   2 -12    0.32    0.64
   2  -1  12    1.92    1.59
  -1  -2  12   -0.25    1.87
   2   2 -12    2.10    1.88
   2   2 -12    3.75    1.08
   2  -2  12    3.44    2.56
  -2  -2  12    2.67    2.21
  -2   3 -12    2.91    1.07
  -2   3 -12    0.71    0.60
  -2   3 -12    1.65    1.52
   3   2 -12    0.27    1.78
   3   2 -12   -0.21    1.00
   2  -3  12    1.43    1.03
  -3  -2  12   -0.06    2.10
   2  -3  12    3.63    1.76
   3   1 -12    0.31    1.88
  -1   3 -12    0.34    0.66
  -1   3 -12    0.16    1.50
  -1   3 -12    0.37    0.52
  -1   3 -12    1.99    1.14
   1  -3  12   -0.22    1.11
  -3  -1  12    0.34    2.34
   1  -3  12   -0.27    1.68
   0   3 -12   -0.03    0.55
   0   3 -12   -1.01    1.53
   3   0 -12   -0.26    1.86
   0  -3  12   -0.85    1.68
  -3   0  12    0.55    2.41
   1   3 -12    1.11    1.50
   1   3 -12    1.13    0.62
  -1  -3  12    1.83    1.68
   3  -1  12    1.89    2.11
   3  -1  12    0.06    1.93
  -3   2 -12    0.56    1.34
   2   3 -12    0.37    1.74
   2   3 -12    1.09    0.67
  -3   2 -12   -2.11    1.65
   3  -2  12    2.99    2.05
   3  -2  12    5.33    2.76
  -2  -3  12   -0.36    1.79
   3  -2  12    3.11    1.29
   3   3 -12   -0.04    1.49
  -3   3 -12   11.74    2.31
  -3   3 -12    9.07    1.86
   3   3 -12   10.76    2.34
  -3  -3  12   10.33    2.42
   3  -3  12   -0.22    1.92
   4   3 -12   10.60    4.39
   4   3 -12   14.90    4.16
   4   3 -12   16.82    3.41
  -4  -3  12   11.92    4.58
  -2   4 -12   -2.75    2.03
   4   2 -12   -1.21    1.93
  -2   4 -12   -1.60    1.65
   4   2 -12   -0.76    1.35
   4   2 -12    0.05    0.76
  -2   4 -12   -3.33    1.12
  -2   4 -12   -0.30    0.59
   2  -4  12   -0.94    0.52
  -4  -2  12   -2.08    2.48
  -1   4 -12    0.88    0.70
  -1   4 -12    0.90    1.38
   4   1 -12   -0.53    0.86
  -1   4 -12   -0.10    0.55
   4   1 -12   -1.61    2.04
   1  -4  12    0.51    0.51
   1  -4  12    0.27    0.73
   1  -4  12    0.76    1.56
  -4  -1  12    0.65    2.60
   4   0 -12    0.99    0.97
  -4   0 -12    1.53    0.89
   0   4 -12    0.73    1.40
   4   0 -12    1.65    2.14
   0   4 -12    1.50    0.61
  -4   0  12    1.16    2.61
   0  -4  12    0.47    1.58
   0  -4  12    1.01    0.62
   4   0  12   -0.55    2.06
   1   4 -12    0.49    0.57
  -4   1 -12    0.21    0.60
   1   4 -12    0.22    1.40
  -1  -4  12   -0.17    0.55
  -1  -4  12   -0.46    1.63
  -4   2 -12   -0.80    0.58
   2   4 -12   -0.69    1.70
  -4   2 -12   -6.02    2.18
   2   4 -12    0.36    0.66
  -2  -4  12   -0.22    0.66
  -2  -4  12   -1.54    1.98
   3   4 -12   18.22    4.55
  -3  -4  12   11.71    4.62
  -3  -4  12   16.07    3.56
   4   4 -12   16.35    5.24
   4  -4  12   17.64    4.84
  -4  -4  12   12.70    5.40
   5   4 -12    9.15    4.00
  -4   5 -12   22.20    3.98
   5   4 -12   12.73    3.07
  -4   5 -12    9.83    3.42
  -5  -4  12   10.57    4.21
   4  -5  12   11.31    3.04
  -5  -4  12   10.15    3.02
  -3   5 -12    1.41    1.51
   5   3 -12    1.92    0.87
  -3   5 -12    5.01    2.24
   5   3 -12    1.77    1.53
   5   3 -12    1.70    2.12
  -3   5 -12    2.38    0.95
  -5  -3  12    0.23    2.36
   3  -5  12    3.03    1.89
  -5  -3  12    1.31    1.66
   3  -5  12    2.34    0.72
  -5  -3  12    2.63    1.48
   5   2 -12   41.82   11.66
   5   2 -12   48.24   10.12
  -2   5 -12   42.12   11.07
   5   2 -12   37.15   12.60
  -2   5 -12   42.81   12.66
   2  -5  12   49.13   10.26
  -5  -2  12   43.16   13.44
   2  -5  12   21.21   11.93
  -1   5 -12    0.58    0.68
   5   1 -12   -0.85    2.24
   5   1 -12    0.27    0.88
  -1   5 -12   -0.29    1.53
   5   1 -12    0.19    2.28
  -5  -1  12   -2.56    3.16
   1  -5  12   -4.09    1.25
   1  -5  12   -0.04    0.56
   0   5 -12    0.46    1.67
   0   5 -12    0.49    0.92
   5   0 -12    0.58    2.48
  -5   0 -12    1.27    1.12
   5   0 -12    0.40    1.08
  -5   0 -12    2.71    2.32
  -5   0  12    3.87    3.06
   0  -5  12    0.41    0.75
   1   5 -12    0.32    1.45
  -5   1 -12    0.18    0.61
   1   5 -12    0.23    0.69
  -1  -5  12    0.35    0.60
  -5   2 -12   45.52   11.95
   2   5 -12   46.21   10.41
  -5   2 -12   45.46   11.04
  -5   2 -12   44.75   12.71
   5  -2  12   32.33   13.14
  -2  -5  12   39.90   12.43
   5  -2  12   43.16   11.93
   5  -2  12   22.14   15.03
   3   5 -12    1.26    0.86
  -5   3 -12    1.53    0.69
  -5   3 -12    1.63    1.62
  -5   3 -12    1.58    2.65
  -5   3 -12    1.62    1.66
   3   5 -12    1.60    1.63
   5  -3  12    4.10    1.89
  -3  -5  12    0.68    1.85
   5  -3  12    4.71    3.10
   5  -3  12    1.53    0.61
  -3  -5  12    2.04    0.81
  -5   4 -12   14.17    3.91
   4   5 -12    7.00    3.66
  -5   4 -12   10.58    3.66
  -5   4 -12   14.92    3.93
  -4  -5  12    8.07    3.86
   5  -4  12    9.52    3.77
   5  -4  12   17.68    3.71
   5  -4  12    3.37    4.51
   5   5 -12    7.80    3.47
   5   5 -12   12.25    2.55
  -5   5 -12   10.43    3.90
  -5   5 -12    9.47    3.73
  -5  -5  12    7.16    2.43
   5  -5  12    3.41    4.98
   5  -5  12   13.14    3.74
  -5  -5  12    8.59    3.58
  -5   6 -12    4.97    1.63
   6   5 -12    0.22    2.12
   6   5 -12    2.38    1.11
   5  -6  12    1.89    2.97
  -6  -5  12    2.88    2.44
  -6  -5  12    1.45    1.02
   6   4 -12   11.13    4.94
   6   4 -12    8.64    3.64
  -4   6 -12   23.84    4.83
   4  -6  12   14.37    3.65
  -6  -4  12   11.22    5.23
  -6  -4  12   16.33    3.59
  -3   6 -12   36.34   11.49
   6   3 -12   32.56   11.49
   6   3 -12   40.17    9.10
  -6  -3  12   33.02   10.59
   3  -6  12   36.95    9.25
  -6  -3  12   45.96   10.62
  -6  -3  12   26.96   12.07
   3  -6  12   39.56   11.44
   6   2 -12    9.97    3.50
  -2   6 -12    8.77    3.47
  -2   6 -12   12.77    3.05
   6   2 -12   11.47    2.79
   6   2 -12   15.92    3.86
   2  -6  12   10.41    3.73
   2  -6  12   12.64    2.76
  -6  -2  12   10.28    4.32
   6   1 -12    7.86    3.06
   6   1 -12    3.63    3.00
  -1   6 -12   10.27    2.07
  -1   6 -12    4.73    2.40
   6   1 -12    6.84    1.87
   1  -6  12    6.56    1.76
   6   1  12    8.13    3.16
  -6  -1  12    3.42    3.83
  -6   0 -12   45.07   19.17
  -6   0 -12   52.10   20.18
   6   0 -12   71.41   16.57
   6   0 -12   71.54   19.99
   0   6 -12   71.46   18.99
   0  -6  12   82.37   16.34
   6   0  12  100.14   19.25
  -6   0  12   45.99   21.53
   1   6 -12    5.37    2.04
   1   6 -12    7.17    2.51
  -6   1 -12    6.27    1.99
  -6   1 -12    8.84    2.78
  -1  -6  12    8.08    1.82
   6  -1  12   11.53    4.38
   6  -1  12    4.86    2.63
  -6   2 -12   12.72    3.41
   2   6 -12   11.03    3.34
   2   6 -12    9.70    2.81
  -6   2 -12    5.91    2.79
  -2  -6  12   13.60    2.63
   6  -2  12   11.08    5.28
   6  -2  12   11.38    3.33
  -6   3 -12   41.83   10.49
  -6   3 -12   38.68   11.70
  -6   3 -12   33.38   10.58
   3   6 -12   42.58    9.50
  -6   3 -12   38.09   10.38
   3   6 -12   25.82   10.99
   6  -3  12   37.33   12.79
   6  -3  12   42.40   10.37
  -3  -6  12   35.43    9.10
  -6   4 -12   17.52    4.99
   4   6 -12   13.81    4.84
  -6   4 -12   19.46    5.23
   6  -4  12    8.37    5.65
   6  -4  12   20.00    4.93
   5   6 -12    3.41    1.25
   5   6 -12    2.05    2.02
  -6   5 -12    2.36    3.27
  -6   5 -12    5.63    3.09
   6  -5  12    1.28    4.42
   6  -5  12    2.02    2.93
  -5  -6  12    2.26    1.02
   6   6 -12    5.98    2.49
  -6   6 -12    5.52    3.54
   6   6 -12    4.43    1.67
  -6  -6  12    5.36    2.69
   6  -6  12    5.18    3.61
  -6  -6  12    3.57    1.45
   7   6 -12    1.34    2.19
   7   6 -12    0.96    1.24
  -7  -6  12    0.82    2.53
   6  -7  12    4.26    3.55
  -7  -6  12    1.11    0.97
  -5   7 -12   16.46    4.10
   7   5 -12   12.57    4.40
   7   5 -12    9.55    3.25
   5  -7  12   12.28    4.91
  -7  -5  12   11.91    4.67
  -7  -5  12   14.16    3.18
   7   4 -12    3.21    1.21
   7   4 -12    1.84    2.56
  -4   7 -12    2.80    1.79
  -7  -4  12    3.35    2.94
   4  -7  12   11.71    3.01
  -7  -4  12    3.35    1.25
  -3   7 -12   12.38    4.21
   7   3 -12   14.66    3.19
   7   3 -12   10.40    4.66
  -7  -3  12    7.58    5.15
  -2   7 -12    8.55    3.50
   7   2 -12    4.24    3.94
   7   2 -12   10.18    2.69
  -2   7 -12   11.79    3.06
  -7  -2  12    8.39    4.62
   2  -7  12   14.01    2.67
   7   1 -12   15.30    3.01
  -1   7 -12    7.08    3.34
  -1   7 -12   10.18    3.72
  -7  -1 -12    4.90    4.44
   7   1 -12    9.89    4.31
   1  -7  12   10.46    2.98
  -7  -1  12   16.63    5.29
   7   1  12   18.51    4.62
   0   7 -12   -0.27    1.44
   7   0 -12    0.76    2.52
   7   0 -12   -0.40    1.01
   7   0 -12    1.45    3.14
  -7   0 -12   -0.49    2.23
   0   7 -12    0.08    1.08
   0  -7  12    0.27    0.64
   7   0  12    1.06    3.93
  -7   0  12   -0.90    3.47
   7   0  12    0.69    2.22
  -7   1 -12   11.77    3.85
   1   7 -12   10.52    3.52
   1   7 -12   10.55    3.13
   7  -1  12    8.48    3.64
  -1  -7  12    9.37    2.79
   7  -1  12   19.04    5.69
   2   7 -12    5.80    2.97
   2   7 -12    8.78    3.46
  -7   2 -12    9.31    3.63
   7  -2  12   12.40    3.51
  -2  -7  12   13.38    2.67
   7  -2  12   12.52    5.80
   3   7 -12   10.81    4.18
  -7   3 -12    9.80    4.34
   3   7 -12   11.73    3.58
  -7   3 -12   16.93    5.14
  -3  -7  12   14.94    3.25
   7  -3  12   15.61    4.25
   7  -3  12   10.16    5.78
  -7   4 -12    0.35    2.79
   4   7 -12    2.91    1.96
  -7   4 -12    2.02    3.65
   7  -4  12   -0.31    3.31
   7  -4  12    2.16    2.85
   5   7 -12    8.82    3.62
  -7   5 -12   11.96    4.79
  -7   5 -12   10.50    4.46
   5   7 -12    7.09    2.84
   7  -5  12    7.98    4.45
   7  -5  12   10.95    5.70
  -5  -7  12    8.22    2.51
  -7   6 -12    1.24    3.75
   6   7 -12    2.10    2.14
   6   7 -12    3.07    1.46
   7  -6  12   -5.83    5.10
   7  -6  12    1.74    3.64
  -6  -7  12   -0.07    0.91
   7   7 -12   -0.45    1.57
   7   7 -12   -2.97    2.52
   7  -7  12    1.97    4.00
  -7  -7  12   -1.76    1.17
   8   7 -12    0.09    2.54
   8   7 -12    1.13    1.57
  -8  -7  12    2.88    2.87
   7  -8  12    0.18    4.14
  -8  -7  12    0.07    1.02
   8   6 -12   -0.87    2.78
   8   6 -12    2.65    1.43
  -8  -6  12    2.76    1.11
  -8  -6  12    2.02    2.88
   6  -8  12   -0.40    3.69
   8   5 -12    0.35    2.34
  -5   8 -12    2.20    1.57
   8   5 -12    0.88    1.04
  -8  -5  12    3.01    2.92
  -8  -5  12    0.65    1.00
  -4   8 -12   24.31    7.11
   8   4 -12   23.87    7.48
  -8  -4  12   24.79    7.81
  -8  -4  12   26.76    5.85
   8   3 -12    3.55    1.16
  -3   8 -12    2.01    1.78
   8   3 -12    1.69    2.47
  -8  -3  12    3.74    3.29
   8   2 -12   16.01    6.02
   8   2 -12   10.76    3.98
   8   2 -12    8.02    4.26
   8   2 -12   14.26    2.74
  -2   8 -12   10.87    3.67
   8   2  12    3.71    4.48
  -8  -2  12    9.99    4.18
  -8  -2  12    3.91    3.85
  -8  -2  12   10.61    5.17
   8   1 -12    2.07    3.17
  -8  -1 -12    4.70    3.41
   8   1 -12    5.52    1.68
   8   1 -12    8.55    3.40
  -1   8 -12    4.40    2.32
   8   1  12    1.64    4.09
  -8  -1  12    3.88    4.20
   8   1  12    7.88    3.04
   8   0 -12   18.30    4.51
   0   8 -12   14.12    5.47
  -8   0 -12   18.97    5.87
   8   0 -12   15.54    6.16
   8   0 -12   15.09    6.43
  -8   0  12   17.98    7.38
   8   0  12   14.69    7.24
   0  -8  12   19.33    4.42
   8   0  12   19.73    5.50
  -8   1 -12    3.38    2.96
   1   8 -12    5.45    2.06
   8  -1 -12    8.00    2.08
   1   8 -12    5.73    2.43
   8  -1  12    6.53    2.70
   8  -1  12   10.36    5.72
  -1  -8  12    7.52    1.75
   2   8 -12   13.09    3.42
   2   8 -12   10.99    3.86
  -8   2 -12   12.80    4.11
  -2  -8  12   11.10    3.00
   8  -2  12    5.29    6.53
   8  -2  12   14.50    3.99
  -8   3 -12    2.48    2.67
   3   8 -12    4.04    1.92
  -8   3 -12    6.34    4.31
   3   8 -12    0.66    1.51
   8  -3  12    1.57    3.96
  -3  -8  12    3.17    1.09
   8  -3  12    4.22    2.76
   4   8 -12   22.63    5.99
  -8   4 -12   17.43    6.70
  -8   4 -12   27.67    7.01
   8  -4  12   19.18    6.45
   8  -4  12   15.15    7.36
   5   8 -12   -0.72    1.95
  -8   5 -12    0.40    3.90
   5   8 -12    0.90    1.48
  -8   5 -12    1.22    4.13
   8  -5  12    3.47    5.02
   8  -5  12    1.38    3.76
  -5  -8  12    1.06    0.93
   6   8 -12    1.39    2.17
   6   8 -12    0.91    1.59
  -8   6 -12    2.54    4.12
   8  -6  12   -1.97    4.16
  -6  -8  12    2.75    1.14
   8  -6  12   -2.06    5.61
   7   8 -12   -0.42    1.64
   7   8 -12    0.99    2.26
   8  -7  12    6.77    4.41
  -7  -8  12    1.63    1.06
   8   8 -12   -0.22    1.69
   8   8 -12    0.53    2.57
  -8  -8  12    0.08    1.13
   8  -8  12   -0.48    4.27
   9   8 -12   -0.09    2.73
   9   7 -12    1.79    1.66
   9   7 -12   -2.05    2.74
  -9  -7  12    3.12    1.27
  -9  -7  12    3.31    3.24
   9   6 -12    4.04    1.87
   9   6 -12    9.44    3.17
  -9  -6  12    2.52    3.59
  -9  -6  12    6.29    1.68
   9   5 -12   11.94    4.81
   9   5 -12   14.66    3.35
  -9  -5  12   13.49    3.29
  -9  -5  12   10.45    5.15
   9   4 -12    7.21    3.83
   9   4 -12    9.01    2.01
  -9  -4  12    5.45    4.25
  -9  -4  12    3.78    1.94
   9   3 -12   10.58    7.43
   9   3 -12   25.16    5.28
  -9  -3  12   19.02    8.42
  -9  -2 -12    0.89    3.15
   9   2 -12    2.00    1.01
   9   2 -12    1.51    2.90
   9   2  12    1.01    3.87
  -9  -2  12    0.11    3.18
  -9  -2  12    1.48    3.81
  -9  -2  12   -0.47    2.81
   9   1 -12    6.18    1.94
  -9  -1 -12    5.26    3.74
   9   1 -12   11.05    3.86
   9   1 -12    6.53    3.74
   9   1  12    5.72    3.32
  -9  -1  12    6.26    4.76
   9   1  12    8.49    4.94
  -9  -1  12    6.01    3.79
  -9   0 -12    1.74    2.81
   9   0 -12   -2.03    1.20
   9   0 -12   -0.49    2.97
   9   0 -12   -0.52    3.81
  -9   0  12    2.05    4.00
   9   0  12   -0.43    2.27
   9   0  12    3.86    5.10
   9  -1 -12    7.13    4.74
   9  -1 -12    6.95    2.05
  -9   1 -12    5.78    3.21
   9  -1  12    3.23    2.88
   9  -1  12    7.92    6.02
  -9   2 -12    0.32    2.73
   2   9 -12    1.56    1.84
   9  -2  12    0.54    2.52
   9  -2  12   -0.83    5.58
   3   9 -12   26.54    6.78
  -9   3 -12   14.10    7.22
  -9   3 -12   24.95    7.93
  -3  -9  12   24.75    5.51
   9  -3  12   10.29    8.96
   9  -3  12   27.06    6.94
  -9   4 -12    7.31    5.45
   4   9 -12    9.90    2.97
  -9   4 -12    6.26    4.42
   9  -4  12   15.52    4.92
  -4  -9  12    2.32    2.04
   9  -4  12   10.26    4.43
  -9   5 -12   13.11    5.68
  -9   5 -12   13.58    5.51
   5   9 -12   16.63    3.63
   5   9 -12    8.43    3.09
   9  -5  12   16.45    5.07
   9  -5  12    6.56    6.67
  -5  -9  12   -0.08    2.65
   6   9 -12    4.32    1.96
   6   9 -12    3.44    2.43
  -9   6 -12    2.38    5.52
  -9   6 -12    2.15    4.67
   9  -6  12    2.11    4.54
   9  -6  12   -0.10    6.35
  -6  -9  12    2.09    1.31
  -9   7 -12   -0.92    4.66
   7   9 -12    1.77    2.42
   9  -7  12    5.08    4.71
   9  -8  12    1.68    4.76
   9   9 -12   -0.13    1.94
  -9  -9  12    0.79    1.32
   9  -9  12  -14.77    5.20
  10   9 -12    1.14    2.91
  10   9 -12    0.99    1.99
 -10  -9  12    0.11    1.43
  10   7 -12   -0.11    1.44
  10   7 -12    0.31    2.94
 -10  -7  12    0.22    3.45
  10   6 -12    2.06    2.96
  10   6 -12    0.09    1.28
 -10  -6  12   -2.42    3.53
 -10  -6  12    0.24    1.19
  10   5 -12    3.32    1.72
  10   5 -12    5.14    3.37
 -10  -5  12    6.49    4.13
 -10  -5  12    6.40    1.66
  10   4 -12   15.39    6.00
  10   4 -12   16.64    4.13
 -10  -4  12   20.36    6.87
 -10  -4  12   13.14    4.10
  10   3 -12    2.08    1.05
  10   3 -12   -0.92    2.88
 -10  -3  12    0.71    1.11
 -10  -3  12    2.44    3.85
 -10  -2 -12   -1.77    3.47
  10   2 -12   -0.11    2.87
  10   2 -12    0.33    0.94
  10   2  12   -4.73    4.61
 -10  -2  12    1.93    4.31
 -10  -2  12    1.35    3.22
  10   1 -12   -0.24    1.05
 -10  -1 -12    1.38    3.41
  10   1 -12   -1.41    3.04
  10   1 -12   -3.03    3.71
 -10  -1  12   -3.32    3.72
 -10  -1  12    1.12    4.63
  10   0 -12    0.34    1.18
  10   0 -12   -1.22    4.16
  10   0 -12    1.04    3.05
 -10   0  12    1.94    4.47
  10  -1 -12    1.47    1.36
 -10   1 -12   -0.80    3.17
  10  -1 -12    0.90    4.52
 -10   2 -12    8.94    3.40
  10  -2  12   -7.02    3.03
 -10   3 -12   -1.61    5.63
 -10   3 -12    3.38    3.60
  10  -3  12   -2.58    3.54
  10  -3  12   -1.62    4.65
 -10   4 -12   11.69    6.40
 -10   4 -12   12.11    7.10
  10  -4  12   17.19    7.21
  10  -4  12   17.66    6.09
 -10   5 -12    1.91    5.41
 -10   5 -12    1.28    5.21
  10  -5  12    4.59    4.49
  10  -5  12    4.31    6.06
 -10   6 -12    1.79    5.94
 -10   6 -12   -1.65    5.05
  10  -6  12    1.62    6.79
  10  -6  12    1.16    4.89
 -10   7 -12   -3.77    5.27
  10  -7  12    9.06    5.22
   8  10 -12   -0.09    2.58
   9  10 -12    0.50    2.81
  10  -9  12    0.95    5.28
  10  10 -12    4.59    3.44
  11  10 -12    7.71    4.10
  11   9 -12   -0.15    2.22
  11   9 -12    0.44    3.07
 -11  -9  12   -0.56    1.45
  11   8 -12   13.13    3.89
  11   8 -12    0.67    2.83
  11   6 -12    1.37    1.82
  11   6 -12    0.89    3.63
 -11  -6  12   -0.52    4.22
 -11  -6  12    8.40    1.55
  11   5 -12    3.71    3.45
  11   5 -12    1.46    1.38
 -11  -5  12    6.09    4.19
 -11  -5  12    0.79    1.24
  11   4 -12    0.61    1.16
  11   4 -12    3.12    3.16
 -11  -4  12    1.68    1.16
 -11  -4  12   -1.51    4.31
  11   3 -12    1.91    1.19
  11   3 -12    4.74    3.36
 -11  -3  12    0.67    1.18
 -11  -3  12    0.50    4.45
  11   2 -12   -1.60    3.15
 -11  -2 -12    4.62    4.07
  11   2 -12    1.56    1.11
  11   2  12    8.00    3.43
  11   2  12    1.54    5.04
 -11  -2  12   -0.11    4.71
  11   1 -12    1.24    3.30
 -11  -1 -12    5.61    3.89
  11   1 -12    0.80    3.96
  11   1 -12    1.72    1.12
  11   1  12   -2.42    6.04
  11   1  12    0.51    3.18
 -11  -1  12   -1.46    4.41
 -11  -1  12    2.85    4.70
 -11  -1  12    3.13    3.94
  11   0 -12    1.85    4.57
 -11   0 -12   -0.76    3.54
  11   0 -12    0.75    1.15
  11   0  12    0.95    2.80
  11   0  12   -4.90    6.49
 -11   0  12   -0.26    4.75
  11  -1 -12   -0.48    4.97
  11  -1 -12   -0.48    1.43
 -11   1 -12    0.40    3.42
  11  -1  12    3.94    2.93
  11  -1  12   -5.99    6.81
 -11   2 -12    0.53    3.76
 -11   2 -12    1.56    6.05
  11  -2  12   -2.56    3.37
  11  -2  12    2.96    6.59
 -11   3 -12    1.83    6.34
 -11   3 -12    0.80    4.46
  11  -3  12    3.93    3.93
  11  -3  12    2.82    5.39
 -11   4 -12    4.57    6.36
 -11   4 -12   -4.60    4.92
  11  -4  12    0.59    5.99
  11  -4  12    3.48    4.57
 -11   5 -12    5.69    6.24
 -11   5 -12    2.62    5.85
  11  -5  12    8.29    4.97
  11  -5  12   -4.13    6.84
 -11   6 -12   -1.01    6.10
 -11   6 -12   -0.64    6.41
  11  -6  12   -5.86    7.81
  11  -6  12    5.02    5.37
 -11   7 -12    7.03   12.09
 -11   7 -12   26.46    9.94
  11  -7  12   47.60   10.75
  12  10 -12   20.76    7.16
  12   9 -12   -0.12    3.46
 -12  -9  12    0.09    4.05
 -12  -9  12    0.72    1.53
  12   8 -12   -0.14    2.14
  12   8 -12    0.47    3.47
 -12  -8  12   -2.93    4.16
 -12  -8  12    0.22    1.39
  12   7 -12   -0.12    1.96
 -12  -7  12    1.70    1.46
  12   5 -12    3.75    2.60
  12   5 -12   11.32    4.82
 -12  -5  12   11.50    2.49
  12   4 -12    2.87    1.32
  12   4 -12   -0.23    3.20
 -12  -4  12    0.97    1.25
 -12  -4  12    1.11    4.71
  12   3 -12    1.36    3.45
  12   3 -12    2.50    1.24
 -12  -3  12    2.05    1.39
  12   3  12   -2.20    5.55
 -12  -3  12    0.22    4.84
  12   2 -12    1.92    3.43
  12   2 -12   -0.30    1.10
 -12  -2  12    1.77    4.92
  12   1 -12   -1.30    1.11
  12   1 -12   -1.55    3.40
 -12  -1  12    0.61    4.22
 -12  -1  12    6.13    4.77
 -12  -1  12   -2.37    4.91
  12   0 -12    6.26    1.96
  12   0 -12    3.49    5.44
  12  -1 -12    0.70    1.50
  12  -1 -12   -0.64    5.41
 -12   1 -12   -1.15    3.99
  12  -1  12   -3.33    3.25
 -12   2 -12    2.90    4.48
  12  -2  12   -1.76    3.88
 -12   3 -12    9.22    6.85
  12  -3  12   19.67    5.74
 -12   7 -12    8.33    6.53
  12  -7  12    5.82    8.39
  12  -8  12   -4.51    6.22
  12  -9  12    5.43    6.40
  13  10 -12    0.76    3.77
 -13 -10  12   -0.09    4.46
  13   9 -12    0.51    3.73
 -13  -9  12   -1.33    4.66
 -13  -9  12    3.31    1.75
  13   8 -12    1.81    2.30
  13   8 -12   -4.66    3.75
 -13  -8  12   -2.63    4.63
 -13  -8  12   -1.39    1.50
  13   7 -12   -0.13    2.14
  13   7 -12    4.95    3.87
 -13  -7  12    1.06    1.54
 -13  -7  12    0.30    4.69
  13   6 -12    2.62    1.95
 -13  -6  12    1.85    1.50
  13   4 -12    0.82    3.77
  13   4 -12    3.07    1.55
 -13  -4  12    5.65    1.55
 -13  -4  12    0.44    5.15
 -13  -3 -12   -2.00    4.75
 -13  -3  12   -5.52    5.45
  13   3  12   -4.28    6.31
 -13  -3  12    2.23    1.40
 -13  -2 -12   -8.64    5.21
  13   2  12   -6.84    6.81
  13   2  12   -1.21    3.93
 -13  -1 -12   11.61   13.56
  13   1  12   22.98   11.83
  13   1  12   24.53   16.20
  13   0 -12   25.34   10.27
 -13   0 -12    9.12    9.78
 -13   0  12   12.93   10.48
 -13   0  12   16.85    9.58
  13   0  12   42.79    8.97
  13  -1  12  115.83   26.28
 -13   2 -12   -6.12    8.10
 -13   2 -12    1.80    5.85
 -13   3 -12   -2.65    8.41
 -13   4 -12   -3.43    6.51
 -13   4 -12    2.19    8.00
  13  -4  12   -2.66    5.87
  13  -4  12   -3.69    7.78
 -13   5 -12    3.37    6.94
 -13   5 -12    5.49    7.84
  13  -5  12   -4.27    8.32
  13  -5  12   -4.41    6.05
 -13   6 -12   -1.01    7.43
 -13   6 -12   -3.68    7.84
  13  -6  12   -7.68    6.41
  13  -6  12    3.68    9.59
 -13   7 -12   -4.21    7.21
 -13   7 -12   -0.41    8.27
  13  -7  12   -9.52    6.64
  13  -7  12    6.84    9.07
 -13   8 -12   14.55    8.96
  13  -8  12   -5.33    6.87
  13  -9  12   -0.45    6.93
 -14  -3 -12   -1.18    5.31
  14   3  12   -2.83    7.18
 -14  -2 -12   10.03    5.40
  14   2  12    3.47    4.21
  14   2  12   -7.76    7.72
 -14  -1 -12   -2.75    5.36
  14   1  12    0.21    4.00
  14   1  12    7.92    7.62
 -14   0 -12    2.46    5.16
  14   0  12    0.41    3.92
  14   0  12    5.90    8.03
 -14   1 -12    2.24    5.56
 -14   1 -12    0.92    8.61
  14  -1  12   19.14    8.26
  14  -1  12    6.73    4.41
 -14   2 -12   15.07    8.60
 -14   2 -12    2.21    5.90
  14  -2  12   -7.45    4.73
  14  -2  12   -5.56    7.61
 -14   3 -12    1.34    8.87
 -14   3 -12  -11.99    6.92
  14  -3  12    0.12    5.45
  14  -3  12   -4.61    7.13
 -14   4 -12   14.48    7.47
 -14   4 -12   -4.35    9.21
  14  -4  12   10.76    9.23
  14  -4  12    7.74    6.63
 -14   5 -12   -2.49    8.67
 -14   5 -12   -5.54    7.63
  14  -5  12    5.28    9.81
  14  -5  12    1.64    6.66
 -14   6 -12   -4.81    8.34
 -14   6 -12    5.67    8.40
  14  -6  12    4.08   10.53
  14  -6  12   -0.76    6.82
 -14   7 -12   21.28    8.44
 -14   7 -12    2.71    8.66
  14  -7  12   -9.04    7.30
  14  -7  12    2.34   10.24
 -14   8 -12   -6.64    9.35
 -14   8 -12    4.58    7.53
  14  -8  12   -3.67    7.17
 -14   9 -12   -1.92    9.70
  14  -9  12   -2.28    7.28
 -15  -3 -12    6.04    6.14
  15   3  12    7.32    8.10
 -15  -2 -12   -3.64    6.05
  15   2  12   -4.99    4.67
  15   2  12   -7.59    8.12
 -15  -1 -12    6.35    5.68
  15   1  12    2.03    4.22
  15   1  12   -4.65    8.37
 -15   0 -12   -1.57    6.07
  15   0  12    7.85    4.49
  15   0  12    6.13    8.86
  15  -1 -12    7.10    7.10
 -15   1 -12    2.90    5.91
 -15   1 -12    6.87    9.29
  15  -1  12    9.13    7.93
  15  -1  12    0.35    4.55
 -15   1  12  -11.65    8.37
 -15   2 -12  -13.85    9.74
 -15   2 -12   -2.33    6.44
  15  -2  12   -2.79    4.94
  15  -2  12    0.31    7.29
 -15   3 -12    3.50    7.29
 -15   3 -12    3.89   10.11
  15  -3  12  -13.60    6.23
  15  -3  12   13.13    7.85
 -15   4 -12   23.26   11.62
 -15   4 -12  -14.02   12.28
  15  -4  12   23.30   14.04
 -15   5 -12   -8.27    9.13
 -15   5 -12    0.31    9.82
  15  -5  12  -27.84   11.72
  15  -5  12  -13.67    7.87
 -15   6 -12   -3.00    8.79
 -15   6 -12   -4.43    9.05
  15  -6  12    1.82    7.44
  15  -6  12    7.06   11.60
 -15   7 -12   -4.82    9.67
 -15   7 -12    7.14    8.72
  15  -7  12   -3.03    7.50
  15  -7  12   -4.26   11.12
 -15   8 -12    4.05    8.56
 -15   8 -12    9.50   10.19
  15  -8  12    6.86    7.82
 -15   9 -12  -30.25   12.49
 -16  -3 -12    2.14    6.44
  16   3  12  -10.37    8.71
 -16  -2 -12   16.70    7.02
  16   2  12    0.13    8.88
  16   2  12   -0.15    5.34
 -16  -1 -12    2.77    6.55
  16   1  12   -5.72    4.88
  16   1  12    8.86    8.73
 -16   0 -12   -1.39    6.53
 -16   0 -12  -11.71    9.81
  16   0  12    2.29    4.75
  16   0  12   -6.80    8.81
 -16   1 -12   -8.56    6.58
 -16   1 -12    0.57   10.12
 -16   1  12   -8.48    8.58
  16  -1  12    3.93    8.40
  16  -1  12   -1.67    5.10
 -16   2 -12    6.90    7.36
 -16   2 -12    0.32   10.95
  16  -2  12    0.95    5.78
  16  -2  12   13.78    7.79
 -16   3 -12   -9.49   11.14
 -16   3 -12   -2.86    8.07
  16  -3  12    2.33    6.07
  16  -3  12   16.09    9.27
 -16   4 -12    9.55   11.36
 -16   4 -12   10.60    9.17
  16  -4  12   10.42   10.81
  16  -4  12    9.19    7.48
 -16   5 -12   13.25   10.81
 -16   5 -12    9.14    9.75
  16  -5  12   12.14   12.43
  16  -5  12    5.27    8.02
 -16   6 -12  -12.28   10.03
 -16   6 -12    0.35   10.26
  16  -6  12    1.00   12.51
  16  -6  12  -11.98    8.29
 -16   7 -12    8.68   10.49
 -16   7 -12  -17.56   11.16
  16  -7  12  -18.62   13.20
 -16   8 -12  -20.72   10.54
 -16   8 -12   20.18    9.99
 -17  -3 -12   -1.32    7.34
  17   3  12    4.27    9.29
 -17  -2 -12   19.80    7.78
  17   2  12    4.69    5.66
  17   2  12   -4.69    9.61
 -17  -1 -12   -0.97    7.47
  17   1  12   -4.39    9.34
  17   1  12    6.24    5.53
 -17   0 -12    2.65   10.85
 -17   0 -12   10.20    7.66
  17   0  12  -16.85    5.75
  17   0  12   -7.77    9.09
 -17   1 -12   27.36    7.82
 -17   1 -12    2.57   11.46
  17  -1  12    0.43    5.64
  17  -1  12   -3.04    8.05
 -17   2 -12   20.80   12.37
 -17   2 -12   -9.43    7.86
  17  -2  12   -9.40    7.89
  17  -2  12    7.76    5.97
 -17   3 -12   -0.24    8.54
 -17   3 -12    2.54   12.04
  17  -3  12   -2.59    6.61
  17  -3  12   -5.52    9.93
 -17   4 -12  -21.07   10.35
 -17   4 -12    4.51   12.44
  17  -4  12  -12.73    8.10
  17  -4  12  -16.55   12.58
 -17   5 -12   89.08   31.51
 -17   5 -12   -2.30   28.05
  17  -5  12  -14.70   37.58
 -17   6 -12    9.26   11.07
 -17   6 -12  -23.35   12.03
  17  -6  12   -1.18    8.70
 -17   7 -12   -0.40   10.89
 -17   7 -12   19.21   10.73
  17  -7  12   -5.30    8.55
  17  -7  12   -7.02   13.99
 -17   8 -12   -4.34   11.60
  17  -8  12    8.13    9.02
 -18  -3 -12   -0.30    8.56
  18   3  12   -3.09   10.05
 -18  -2 -12   -2.01    8.97
  18   2  12    6.00   10.39
  18   2  12  -10.28    6.67
 -18  -1 -12    0.27    8.71
 -18  -1 -12   -0.62   11.55
  18   1  12  -13.47    6.31
 -18   0 -12   -7.88   12.17
 -18   0 -12  -19.40    9.29
 -18   1 -12   22.86   13.26
 -18   1 -12   18.53    9.00
  18  -1  12    0.80    6.70
 -18   2 -12  -16.44    9.43
 -18   2 -12   -6.21   13.35
  18  -2  12  -11.29    9.80
  18  -2  12  -12.53    6.91
 -18   3 -12   -2.00   13.01
 -18   3 -12    8.70    9.79
  18  -3  12  -12.22   11.98
  18  -3  12    6.19    7.05
 -18   4 -12    0.84   13.02
 -18   4 -12    2.87   10.23
  18  -4  12  -13.72   13.08
  18  -4  12   -7.04    8.14
 -18   5 -12    8.16   12.97
 -18   5 -12   -8.49   11.31
  18  -5  12   -3.23   14.75
  18  -5  12  -16.36    8.99
 -18   6 -12   -5.69   12.65
  18  -6  12   12.56   14.93
  18  -6  12  -10.10    9.18
 -18   7 -12    1.80   12.30
 -18   7 -12    1.52   12.01
  18  -7  12   -0.25   15.08
  18  -7  12   19.35    9.98
 -18   8 -12   -6.48   12.04
  18  -8  12    6.65    9.35
 -19  -2 -12    0.65   10.08
  19   2  12    6.47    7.36
 -19  -1 -12    0.31    9.89
  19   1  12    9.03    7.48
 -19   0 -12   -0.30    9.89
 -19   0 -12   -6.71   13.22
  19   0  12  -10.30    7.03
  19   0  12   -7.77    9.18
 -19   1 -12    2.35    9.99
 -19   1 -12   -4.49   14.51
  19  -1  12    8.17    9.10
  19  -1  12   -1.47    7.33
 -19   2 -12    0.88   10.33
 -19   2 -12   27.00   15.29
  19  -2  12   -4.51    7.07
  19  -2  12    8.70   11.32
 -19   3 -12   -0.30   10.89
  19  -3  12    2.85    7.82
 -19   4 -12   -8.59   11.65
 -19   4 -12    8.29   12.08
  19  -4  12    3.78    8.21
   0   0 -13    0.81    0.95
   0   1 -13   19.68    4.46
   0   1 -13   15.85    5.32
   1   0 -13   18.72    4.45
  -1   0 -13   16.66    4.58
  -1   0  13   13.66    5.74
   0  -1  13   14.45    5.79
   1   1 -13   -0.11    0.78
   1   1 -13   -0.71    1.86
  -1   1 -13   -0.08    1.79
  -1   1 -13    0.20    0.70
   1  -1  13   -0.52    2.31
  -1  -1  13    0.34    2.37
   2   1 -13    2.92    2.07
  -1   2 -13    2.07    1.89
   2   1 -13    2.02    1.00
  -1   2 -13    2.58    0.90
  -2  -1  13    2.66    2.53
   1  -2  13    1.35    2.24
   1  -2  13    1.95    1.96
   0   2 -13   -0.80    1.66
   0   2 -13   -0.04    0.68
   2   0 -13   -0.55    2.03
   2   0 -13    0.07    0.95
  -2   0 -13    0.98    1.00
  -2   0  13   -0.97    2.43
   0  -2  13    1.17    1.03
   0  -2  13   -0.76    2.07
  -2   1 -13    3.04    1.03
   1   2 -13    3.33    1.79
   1   2 -13    1.86    0.91
   2  -1  13    2.31    1.81
  -1  -2  13    1.41    2.24
   2   2 -13    0.07    1.79
   2   2 -13   -0.18    0.73
  -2   2 -13    3.15    1.75
  -2   2 -13   -0.29    0.65
   2  -2  13   -1.59    2.38
  -2  -2  13    1.00    2.20
   2  -2  13    7.70    2.15
  -2   3 -13   -3.83    1.91
   3   2 -13    0.62    0.72
   3   2 -13    0.16    1.15
   3   2 -13    0.07    1.85
  -2   3 -13   -1.34    0.69
  -2   3 -13   -1.96    2.20
  -3  -2  13   -1.43    2.60
   3   1 -13    0.59    2.10
  -1   3 -13    0.28    0.55
  -1   3 -13    0.34    1.16
  -1   3 -13    0.06    1.71
   1  -3  13   -0.66    1.21
   1  -3  13    0.23    1.93
  -3  -1  13   -1.05    2.63
   0   3 -13   -0.37    1.71
   3   0 -13    0.29    1.99
   0   3 -13    0.37    0.58
   0  -3  13    0.65    1.90
  -3   0  13   -0.51    2.69
   1   3 -13   -0.20    0.66
   1   3 -13    0.13    1.70
  -1  -3  13    0.39    1.99
   2   3 -13   -0.29    0.75
   2   3 -13   -0.95    2.03
  -2  -3  13   -1.79    2.40
   3   3 -13   -1.92    2.28
  -3   3 -13   -2.77    0.83
   3   3 -13   -0.17    0.79
  -3  -3  13   -4.07    2.90
  -3   4 -13    6.20    1.91
  -3   4 -13    3.61    2.32
  -3   4 -13    6.15    1.53
   4   3 -13    4.34    2.54
  -3   4 -13    5.81    2.47
  -4  -3  13    4.69    2.83
   3  -4  13    6.70    2.91
   3  -4  13    3.37    2.41
   3  -4  13    4.26    1.94
   3  -4  13    5.05    1.41
   4   2 -13    5.22    2.28
  -2   4 -13    1.51    2.15
  -2   4 -13    3.76    1.52
  -2   4 -13    2.67    2.13
   4   2 -13    5.22    1.26
  -2   4 -13    5.39    1.20
   4   2 -13    4.55    1.73
   2  -4  13   -0.53    2.15
  -4  -2  13    4.36    2.78
   2  -4  13    4.20    1.11
  -1   4 -13   -3.47    2.02
  -1   4 -13   -0.29    0.65
   4   1 -13    0.52    0.92
   4   1 -13   -0.62    2.29
  -4  -1  13   -0.40    2.99
   1  -4  13   -0.28    0.60
   4   0 -13    1.14    1.46
   4   0 -13    5.88    2.89
   0   4 -13    3.50    1.21
   0   4 -13    4.63    2.20
  -4   0  13    4.98    3.45
   1   4 -13   -0.08    0.72
   1   4 -13   -1.46    1.84
  -1  -4  13   -3.99    2.23
  -1  -4  13   -0.23    0.71
   2   4 -13    3.57    1.19
   2   4 -13    4.79    2.05
  -2  -4  13    3.43    2.27
  -2  -4  13    4.91    1.20
   3   4 -13    4.02    1.48
   3   4 -13    4.36    2.38
  -3  -4  13    4.73    2.58
  -3  -4  13    6.63    1.45
  -4   4 -13   -0.11    0.59
   4   4 -13   -0.58    1.89
   4  -4  13   -0.56    0.49
  -4  -4  13   -0.16    2.18
   5   4 -13   19.45    6.92
   5   4 -13   23.09    5.45
  -4   5 -13   24.58    6.15
  -4   5 -13   27.92    7.14
   4  -5  13   22.60    5.51
   4  -5  13   23.53    6.97
  -5  -4  13   15.85    7.15
  -5  -4  13   18.79    5.36
  -3   5 -13   42.46   13.00
   5   3 -13   46.28   11.77
  -3   5 -13   44.01   15.12
   5   3 -13   50.23   14.65
  -3   5 -13   59.86   13.14
   3  -5  13   48.24   12.01
  -5  -3  13   42.59   15.41
  -2   5 -13   11.26    2.68
  -2   5 -13   10.41    3.32
   5   2 -13   11.21    3.65
   5   2 -13   11.70    2.51
  -5  -2  13    6.96    4.13
   2  -5  13    8.11    2.94
   2  -5  13    8.01    3.39
   2  -5  13    8.38    2.46
   5   1 -13   12.95    4.30
  -1   5 -13    8.06    3.84
   5   1 -13   12.52    3.15
  -1   5 -13   13.58    3.22
   5   1 -13   10.75    4.06
   1  -5  13   13.50    3.96
  -5  -1  13    9.20    4.96
   1  -5  13   15.57    3.05
  -5   0 -13   20.78    8.65
   5   0 -13   33.30    9.33
   5   0 -13   27.57    7.53
   0   5 -13   33.65    8.83
   0   5 -13   32.58    7.71
   0  -5  13   32.59    7.38
   0  -5  13   27.76    8.94
   5   0  13   32.40    9.04
  -5   0  13   29.88   10.13
  -5   1 -13   11.33    3.19
   1   5 -13   10.82    2.91
  -5   1 -13    8.18    4.00
   1   5 -13    8.57    3.60
  -1  -5  13   12.22    3.74
  -1  -5  13    8.50    2.75
   5  -1  13   16.52    4.96
   5  -1  13   10.46    3.77
  -5   2 -13   16.26    3.41
  -5   2 -13   13.90    3.56
   2   5 -13   12.22    3.41
   2   5 -13    9.20    2.66
  -5   2 -13    8.54    2.75
   5  -2  13   10.08    3.81
   5  -2  13    6.71    3.26
   5  -2  13    4.47    5.05
  -2  -5  13   11.01    3.50
  -2  -5  13    9.93    2.58
   3   5 -13   50.13   14.55
  -5   3 -13   55.38   15.41
  -5   3 -13   52.51   13.86
  -5   3 -13   57.48   13.43
  -3  -5  13   52.55   14.80
   5  -3  13   22.02   16.66
  -5   4 -13   28.50    6.08
  -5   4 -13   19.54    6.04
   4   5 -13   17.55    6.45
  -4  -5  13   19.27    6.62
   5  -4  13   22.75    5.95
   5  -4  13    7.87    7.03
   5   5 -13   -0.38    2.08
   5   5 -13   -0.28    0.89
  -5   5 -13    0.66    2.27
  -5   5 -13    0.28    2.86
  -5   5 -13    0.31    0.90
  -5  -5  13   -0.87    0.84
   5  -5  13    2.01    2.34
  -5  -5  13   -1.77    2.44
   5  -5  13   -2.04    3.93
   5  -5  13    0.03    0.55
  -5   6 -13    6.40    3.55
   6   5 -13    6.21    1.95
  -5   6 -13    8.26    2.79
   6   5 -13    6.41    3.09
  -6  -5  13    6.57    3.28
   5  -6  13    5.10    3.46
   5  -6  13    5.56    1.81
  -6  -5  13    8.17    1.87
   6   4 -13    3.85    2.43
  -4   6 -13    0.82    1.62
   6   4 -13    1.91    0.92
  -4   6 -13    0.92    1.04
  -6  -4  13    3.01    0.95
   4  -6  13    0.30    0.62
  -6  -4  13   -0.82    2.70
  -3   6 -13   14.95    3.37
   6   3 -13   11.29    2.96
  -3   6 -13   13.07    3.93
   6   3 -13   14.37    4.17
   3  -6  13   10.10    2.96
  -6  -3  13    7.02    4.65
  -2   6 -13    4.84    2.68
  -2   6 -13    7.01    2.23
   6   2 -13    8.60    1.97
   6   2 -13    3.62    3.11
  -6  -2  13    4.37    3.89
   2  -6  13    9.19    1.89
   6   1 -13   34.08    6.22
  -1   6 -13   27.96    6.71
   6   1 -13   21.46    7.55
  -1   6 -13   20.49    7.65
   6   1 -13   19.84    8.07
  -6  -1  13   18.85    9.02
   6   1  13   23.66    7.51
   1  -6  13   29.07    6.19
   6   0 -13   -0.28    1.03
  -6   0 -13    0.28    0.88
  -6   0 -13   -0.17    2.13
   0   6 -13    0.35    1.53
   0   6 -13   -0.50    0.91
   6   0 -13    0.55    2.53
   6   0  13    1.04    3.08
  -6   0  13    0.90    3.30
   0  -6  13   -0.05    0.61
  -6   1 -13   23.42    7.35
  -6   1 -13   21.51    8.18
   1   6 -13   21.07    7.82
   1   6 -13   29.50    6.89
   6  -1  13   32.78    7.77
   6  -1  13   33.38    9.60
   2   6 -13    6.28    2.12
  -6   2 -13    6.98    2.77
   2   6 -13    7.50    2.78
   6  -2  13    8.55    2.70
  -2  -6  13    6.23    1.94
   6  -2  13   13.07    5.03
   3   6 -13    8.15    3.61
   3   6 -13   10.92    2.87
  -6   3 -13   14.34    4.34
  -6   3 -13   11.42    3.54
  -3  -6  13    9.44    2.71
   6  -3  13    6.81    5.27
   6  -3  13   10.76    3.47
   4   6 -13    0.89    1.94
  -6   4 -13    3.89    3.35
  -6   4 -13    2.25    2.22
   6  -4  13    3.67    2.95
   6  -4  13    5.21    2.34
  -4  -6  13    0.64    2.15
   5   6 -13    8.73    2.13
  -6   5 -13    6.12    3.45
   5   6 -13    6.93    2.97
  -6   5 -13    7.90    3.76
  -5  -6  13    7.09    3.09
   6  -5  13    7.44    3.40
  -5  -6  13    7.92    1.95
   6  -5  13    2.91    4.64
   6   6 -13   -1.12    1.20
   6   6 -13   -1.26    2.16
  -6   6 -13    0.88    3.34
   6  -6  13    3.27    3.24
  -6  -6  13    0.38    0.92
  -6  -6  13   -0.81    2.45
   6  -6  13    4.49    4.64
   7   6 -13    8.45    2.24
   7   6 -13    5.02    3.40
  -7  -6  13    8.12    2.08
  -7  -6  13    6.83    3.58
   6  -7  13    7.83    4.17
   7   5 -13    0.91    1.08
  -5   7 -13    0.67    1.71
   7   5 -13    0.35    2.45
  -7  -5  13    1.51    2.79
  -7  -5  13    2.48    1.00
  -4   7 -13   41.97   11.65
   7   4 -13   29.06   11.59
   7   4 -13   36.01    8.95
  -7  -4  13   34.78   12.02
  -3   7 -13   13.10    4.77
   7   3 -13    9.64    5.09
   7   3 -13   14.69    3.60
   3  -7  13   14.88    3.66
  -7  -3  13   15.86    5.70
  -2   7 -13    9.18    2.84
   7   2 -13    7.25    3.82
  -2   7 -13   10.67    3.27
   7   2 -13    7.92    2.42
  -7  -2  13    7.53    4.56
   2  -7  13    9.66    2.38
   7   1 -13    3.34    1.35
  -1   7 -13    3.76    1.90
  -1   7 -13    4.76    1.50
   7   1 -13    2.00    2.89
  -7  -1  13    3.00    3.84
   1  -7  13    3.57    1.15
   7   1  13    5.63    3.29
   7   0 -13   30.48    8.50
   7   0 -13   17.00    9.02
   7   0 -13   26.56    6.79
   0   7 -13   27.05    8.19
  -7   0 -13   14.74    8.84
   0   7 -13   30.90    7.28
  -7   0  13   21.64   10.03
   0  -7  13   30.95    6.63
   7   0  13   26.94    8.24
   7   0  13   32.44    9.22
   1   7 -13    4.91    1.53
  -7   1 -13    3.64    2.41
   1   7 -13    3.89    1.97
   7  -1  13    2.89    4.52
  -1  -7  13    2.33    1.14
   7  -1  13    3.41    2.19
   2   7 -13   14.98    2.91
   2   7 -13    9.80    3.43
  -7   2 -13    9.19    3.55
  -2  -7  13    6.45    2.59
   7  -2  13   11.05    3.35
   7  -2  13   15.41    5.82
   3   7 -13   15.74    3.96
   3   7 -13   15.96    4.64
  -7   3 -13   11.02    4.64
  -7   3 -13   14.02    5.47
   7  -3  13   13.55    6.38
   7  -3  13   14.05    4.57
  -3  -7  13   15.43    3.61
  -7   4 -13   38.02    9.91
  -7   4 -13   26.66   10.23
   4   7 -13   35.61   10.32
   7  -4  13   20.18   11.70
   7  -4  13   26.67    9.89
  -4  -7  13   45.41    8.15
   5   7 -13    0.16    1.25
  -7   5 -13    1.69    3.71
   5   7 -13    0.68    2.02
  -7   5 -13   -0.16    3.06
  -5  -7  13    0.78    0.90
   7  -5  13    0.50    3.10
   7  -5  13    0.06    4.29
  -7   6 -13    7.86    4.21
  -7   6 -13   11.04    4.57
   6   7 -13    7.85    3.05
   6   7 -13    2.45    2.10
  -6  -7  13    6.77    1.79
   7  -6  13    3.48    4.07
   7  -6  13    1.94    5.80
   7   7 -13    2.47    2.41
   7   7 -13    1.06    1.40
   7  -7  13   -0.56    3.88
  -7  -7  13    2.66    2.75
  -7  -7  13    0.51    1.06
   8   7 -13    0.09    1.49
   8   7 -13   -0.09    2.56
  -8  -7  13    0.55    1.13
  -8  -7  13   -0.41    2.96
   8   6 -13    5.57    2.00
   8   6 -13    8.38    3.30
  -8  -6  13    5.53    1.86
  -8  -6  13    6.49    3.61
   8   5 -13   24.08    6.13
   8   5 -13   17.59    4.52
  -5   8 -13   11.48    5.68
  -8  -5  13   28.81    6.58
  -8  -5  13   12.66    4.39
   8   4 -13    1.28    0.98
  -4   8 -13   -0.17    1.70
   8   4 -13    1.45    2.62
  -8  -4  13    0.23    3.32
  -8  -4  13    0.20    0.94
   8   3 -13   14.81    7.89
  -3   8 -13   19.83    7.59
   8   3 -13   27.84    5.68
  -8  -3  13   16.79    8.82
   8   2 -13    1.22    2.82
   8   2 -13    3.18    1.17
  -2   8 -13    2.74    1.78
  -8  -2  13    0.18    3.69
  -8  -1 -13    7.40    5.27
   8   1 -13   14.85    4.90
   8   1 -13   15.31    3.45
  -1   8 -13   10.28    4.44
   8   1 -13   11.97    5.26
   8   1  13   13.36    5.68
  -8  -1  13   14.13    6.36
   1  -8  13   11.11    3.40
  -8   0 -13   -0.09    2.65
   8   0 -13    0.87    2.86
   0   8 -13   -0.09    1.28
   8   0 -13   -0.07    1.15
   8   0 -13    0.08    3.69
   0   8 -13    0.37    1.65
  -8   0  13    1.14    3.95
   8   0  13    0.39    4.47
   0  -8  13    0.25    0.78
   8   0  13    1.08    2.36
   1   8 -13   17.49    4.47
   1   8 -13   18.50    4.92
  -8   1 -13   13.14    5.25
   8  -1  13   21.29    7.32
   8  -1  13   17.67    4.93
  -1  -8  13   15.48    4.06
   2   8 -13    2.68    1.92
  -8   2 -13    0.75    2.36
   2   8 -13    2.77    1.61
   8  -2  13    5.63    5.11
  -2  -8  13    1.77    1.03
   8  -2  13    2.92    2.16
  -8   3 -13   32.09    8.54
  -8   3 -13   20.57    7.86
   3   8 -13   26.63    7.01
   3   8 -13   32.56    7.88
  -3  -8  13   29.51    6.48
   8  -3  13   20.31   10.00
   8  -3  13   25.54    7.69
  -8   4 -13    1.95    2.96
  -8   4 -13    1.58    4.43
   4   8 -13    0.15    2.01
   4   8 -13    2.16    1.60
   8  -4  13    2.65    3.74
  -4  -8  13   -0.14    0.94
   8  -4  13   -1.51    3.04
  -8   5 -13   14.14    6.38
   5   8 -13   13.80    4.77
   5   8 -13   17.33    5.49
  -8   5 -13   12.84    6.32
   8  -5  13   30.20    7.52
   8  -5  13   19.32    6.13
  -8   6 -13    5.82    4.45
  -8   6 -13    6.20    4.83
   6   8 -13    4.12    2.19
   6   8 -13    4.21    2.87
   8  -6  13    1.72    4.31
   8  -6  13    3.46    5.88
  -6  -8  13    7.52    1.72
   7   8 -13    0.22    1.64
   7   8 -13    0.09    2.47
  -8   7 -13    1.02    4.21
   8  -7  13   -0.72    4.25
  -7  -8  13    0.08    1.06
   8   8 -13    0.09    2.65
   9   7 -13    6.89    1.88
   9   7 -13    1.82    3.15
  -9  -7  13    1.67    3.60
   9   6 -13   -5.71    2.98
   9   6 -13    1.30    1.41
  -9  -6  13    0.84    1.13
  -9  -6  13    0.53    3.41
   9   5 -13    2.60    3.08
   9   5 -13    2.11    1.43
  -9  -5  13    6.97    3.71
  -9  -5  13    2.21    1.32
   9   4 -13   24.18    5.85
  -4   9 -13   19.59    7.54
   9   4 -13   19.39    7.95
  -9  -4  13   24.35    5.80
  -9  -4  13   26.98    8.69
   9   3 -13    0.52    1.02
  -3   9 -13   -0.69    1.77
   9   3 -13   -1.43    2.95
  -9  -3  13   -0.45    3.86
  -2   9 -13   11.20    3.24
   9   2 -13   14.44    2.44
   9   2 -13    6.29    4.04
   9   2  13   -2.85    4.72
  -9  -2  13    7.15    5.22
  -9  -1 -13    2.73    3.26
  -1   9 -13    1.51    1.88
   9   1 -13    1.43    3.14
   9   1 -13    1.67    1.15
   9   1  13    0.81    4.48
   9   1  13    0.55    2.83
  -9  -1  13    3.12    4.41
   0   9 -13   20.05    5.37
  -9   0 -13   18.03    5.91
   9   0 -13   10.40    6.44
   9   0 -13   16.98    4.36
   9   0 -13   15.71    6.25
   9   0  13   14.93    7.51
   9   0  13   17.33    5.35
  -9   0  13   14.16    7.43
   1   9 -13    1.84    1.86
  -9   1 -13    3.05    2.81
   9  -1 -13    2.02    1.49
   9  -1  13    1.99    2.46
  -1  -9  13    2.20    1.01
   9  -1  13   -2.98    5.61
   2   9 -13    9.69    2.86
  -9   2 -13    9.96    3.46
   9  -2  13  -13.41    6.94
   9  -2  13    0.63    3.29
  -2  -9  13    7.38    1.93
  -9   3 -13   -0.42    5.09
   3   9 -13    5.08    1.93
  -9   3 -13    1.41    3.15
   3   9 -13    7.44    2.24
  -3  -9  13    1.31    1.17
   9  -3  13    3.50    3.27
  -9   4 -13   22.42    8.04
  -9   4 -13   23.95    7.56
   4   9 -13   21.39    6.00
   4   9 -13   26.91    6.78
   9  -4  13    7.59    8.46
   9  -4  13   24.07    7.21
  -4  -9  13   25.03    5.45
   5   9 -13    2.95    2.48
  -9   5 -13    2.40    4.21
  -9   5 -13   -0.46    4.93
   9  -5  13    5.13    5.39
   9  -5  13    5.41    4.07
  -9   6 -13   -0.16    4.62
   6   9 -13   -0.08    2.34
  -9   6 -13   -0.51    5.14
   9  -6  13    3.51    4.24
   9  -6  13    3.31    6.68
  -9   7 -13   -0.91    4.84
   9  -7  13    0.80    4.66
   8   9 -13   -0.13    1.94
   9  -8  13   -1.35    4.84
  -8  -9  13   -0.09    1.25
   9   9 -13    0.10    2.95
   9   9 -13    2.76    2.23
  -9  -9  13    1.99    1.43
  10   9 -13    2.18    2.30
  10   9 -13    4.91    3.20
 -10  -9  13    0.11    1.47
  10   8 -13   25.94    4.38
  10   8 -13   -1.54    3.49
 -10  -8  13   21.02    4.81
  10   6 -13    5.77    4.16
  10   6 -13    8.41    2.65
 -10  -6  13   10.49    4.67
 -10  -6  13   10.72    2.43
  10   5 -13    8.31    4.53
  10   5 -13    8.87    2.81
 -10  -5  13   10.08    5.27
 -10  -5  13   12.40    2.81
  10   4 -13    3.36    1.51
  10   4 -13    2.17    3.30
 -10  -4  13    6.22    4.45
 -10  -4  13    4.39    1.53
  10   3 -13   16.84    4.72
  10   3 -13   18.31    6.71
 -10  -3  13   23.18    7.85
  10   2 -13    0.12    3.20
  10   2 -13    0.78    1.06
 -10  -2 -13   -8.99    3.82
 -10  -2  13   -0.11    4.60
  10   2  13   -3.25    4.53
  10   1 -13   -1.76    3.36
 -10  -1 -13   -1.99    3.56
  10   1 -13    0.65    1.12
  10   1  13    2.34    2.95
 -10  -1  13    0.83    4.63
  10   1  13    2.80    5.21
  10   0 -13    3.74    4.19
  10   0 -13    0.95    1.32
 -10   0 -13   -3.43    3.16
 -10   0  13   -1.29    4.40
  10   0  13    9.76    5.83
  10   0  13   -1.43    2.78
  10  -1 -13    2.47    1.56
 -10   1 -13    1.20    3.06
  10  -1 -13    3.11    4.70
  10  -1  13   -1.08    2.58
  10  -1  13  -10.31    6.18
 -10   2 -13   -1.89    3.26
  10  -2  13    7.54    2.99
  10  -2  13    6.38    6.60
 -10   3 -13   20.86    6.15
 -10   3 -13   11.72    7.54
  10  -3  13   20.27    5.86
  10  -3  13    6.92    8.05
 -10   4 -13    7.97    5.97
 -10   4 -13    4.02    4.24
  10  -4  13    2.20    4.99
  10  -4  13    1.21    3.99
 -10   5 -13    7.86    6.09
 -10   5 -13    8.41    5.60
  10  -5  13   11.45    5.17
  10  -5  13    5.42    6.85
 -10   6 -13    4.19    5.43
 -10   6 -13   11.09    5.95
  10  -6  13   -1.13    4.99
  -6 -10  13    2.94    1.60
  10  -6  13   -1.08    7.00
 -10   7 -13    0.99    5.17
   7  10 -13    0.09    2.53
 -10   7 -13    1.70    6.35
  -7 -10  13    1.74    1.39
  10  -7  13   -4.62    6.79
  10  -7  13   -8.03    5.09
   8  10 -13   -0.10    2.98
  -8 -10  13   -0.97    1.64
   9  10 -13    2.34    3.02
  -9 -10  13    0.11    1.36
  10  10 -13    0.11    3.11
 -10 -10  13    0.12    1.47
  11  10 -13    1.07    3.53
  11   9 -13   -2.29    2.33
  11   9 -13    2.10    3.48
 -11  -9  13   -2.71    1.60
 -11  -9  13   -7.42    4.01
  11   8 -13    0.14    2.15
  11   8 -13    5.07    3.39
 -11  -8  13   -1.30    4.12
 -11  -8  13    0.10    1.34
  11   7 -13    1.73    1.89
 -11  -7  13    0.47    1.30
  11   5 -13    1.90    3.58
  11   5 -13   -1.06    1.52
 -11  -5  13    3.49    4.53
 -11  -5  13    4.24    1.34
  11   4 -13    5.16    3.57
  11   4 -13    4.31    1.58
 -11  -4  13    2.41    1.51
 -11  -4  13    5.24    4.75
  11   3 -13    0.77    1.18
  11   3 -13    1.04    3.37
 -11  -3  13    1.11    1.23
 -11  -3  13   -0.75    4.64
  11   2 -13   -0.43    1.13
 -11  -2 -13   -0.45    4.12
  11   2 -13    1.72    3.50
 -11  -2  13   -3.20    5.02
  11   2  13   -0.08    5.28
 -11  -1 -13    0.54    3.94
  11   1 -13    2.65    3.32
  11   1 -13   -0.33    1.17
  11   1  13    3.69    5.78
  11   1  13   -8.25    3.19
 -11  -1  13    4.29    5.14
 -11   0 -13    2.63    3.58
  11   0 -13    1.18    1.30
  11   0  13   -0.38    2.92
  11   0  13   -1.47    6.54
 -11   0  13   -1.63    4.80
  11  -1 -13    2.19    5.08
 -11   1 -13    2.91    3.51
  11  -1 -13   -0.78    1.46
  11  -1  13   -0.64    2.95
  11  -1  13   -8.45    6.77
 -11   2 -13   -7.54    6.53
 -11   2 -13   -0.72    3.74
  11  -2  13  -15.27    6.93
  11  -2  13    1.48    3.22
 -11   3 -13    2.79    4.05
 -11   3 -13    6.53    6.35
  11  -3  13    1.09    3.66
  11  -3  13   -1.25    5.79
 -11   4 -13    1.97    6.62
 -11   4 -13    2.68    4.70
  11  -4  13    0.10    4.46
  11  -4  13   -4.69    5.99
 -11   5 -13    2.17    5.38
 -11   5 -13   -4.55    6.31
  11  -5  13    3.65    7.08
  11  -5  13   -0.21    4.91
 -11   6 -13   -9.87    6.71
 -11   6 -13   -4.57    6.41
  11  -6  13   -6.56    8.03
 -11   7 -13    1.37    6.92
 -11   7 -13   14.89    5.58
  11  -7  13   -8.31    5.75
  12  10 -13    5.00    3.70
 -12 -10  13   -4.55    4.38
  12   9 -13    0.32    2.49
  12   9 -13    2.15    3.87
 -12  -9  13    5.80    1.87
 -12  -9  13    3.94    4.55
  12   8 -13    1.14    3.70
  12   8 -13   -3.81    2.42
 -12  -8  13    2.77    4.39
 -12  -8  13    1.34    1.46
  12   7 -13   -0.77    4.20
  12   7 -13   -1.03    2.39
 -12  -7  13    1.66    4.95
 -12  -7  13   -0.10    1.73
  12   6 -13   -0.64    1.85
 -12  -6  13    0.76    1.43
  12   4 -13    6.37    2.51
  12   4 -13    0.72    4.71
 -12  -4  13    8.18    2.50
 -12  -4  13   29.82    6.40
  12   3 -13    2.06    1.23
  12   3 -13    3.07    3.65
 -12  -3  13   -0.23    5.07
 -12  -3  13    1.17    1.41
  12   2 -13    2.45    3.52
  12   2 -13    3.21    1.38
 -12  -2  13    5.79    5.52
  12   2  13    0.99    6.11
  12   1 -13    0.82    3.51
  12   1 -13    1.21    1.22
 -12  -1  13    1.59    5.00
  12   0 -13   -1.05    1.34
  12  -1 -13    6.61    5.53
  12  -1 -13    0.93    1.52
  12  -6  13   -2.48    8.53
 -12   8 -13   -3.32    8.16
  12  -8  13  -18.31    6.35
  12  -9  13   -2.76    6.24
  13  10 -13   -0.13    3.77
 -13 -10  13    0.49    4.73
  13   9 -13   -0.14    4.10
  13   9 -13    3.72    2.67
 -13  -9  13    6.19    5.09
 -13  -9  13    0.13    1.66
  13   8 -13   -0.46    2.95
  13   8 -13    2.42    4.56
 -13  -8  13    5.55    2.43
 -13  -8  13   25.27    5.86
  13   7 -13   -3.82    4.15
  13   7 -13    0.67    2.07
 -13  -7  13    4.05    1.64
 -13  -7  13    2.68    5.13
  13   6 -13    5.49    4.03
  13   6 -13    0.11    1.95
 -13  -6  13    1.00    5.30
 -13  -6  13    2.38    1.56
  13   5 -13   -0.09    1.62
 -13  -5  13    3.72    1.55
  13   3 -13   10.84    1.68
  13   3 -13    0.52    3.85
  13   3  13    4.47    6.39
 -13  -3  13    5.53    5.99
 -13  -3  13   -0.09    1.56
 -13  -2 -13   -6.40    4.98
 -13  -2  13    0.66    5.60
  13   2  13  -10.92    6.96
  13   2  13    1.78    3.96
 -13  -1 -13    4.46    4.84
  13   1  13   -3.36    7.39
  13   1  13    8.90    3.97
 -13   0 -13   -0.41    4.57
  13   0  13   -9.78    7.83
  13   0  13   -1.03    3.71
 -13   1 -13    3.07    4.70
  13  -1 -13    0.14    6.11
  13  -1  13   -0.32    8.30
  13  -1  13   -4.40    3.85
 -13   2 -13   -0.88    7.75
 -13   2 -13   -3.11    5.15
  13  -2  13    7.20    7.95
  13  -2  13   -2.18    4.17
 -13   3 -13   -5.85    8.65
 -13   3 -13    3.24    5.99
  13  -3  13   -5.69    6.76
  13  -3  13   -0.97    4.89
 -13   4 -13    5.85    6.18
 -13   4 -13    1.48    8.34
  13  -4  13   -0.94    5.26
  13  -4  13    2.97    7.70
 -13   5 -13   12.12    7.97
 -13   5 -13   -4.45    6.56
  13  -5  13   -4.25    6.06
  13  -5  13    5.45    8.67
 -13   6 -13   -1.29    7.53
 -13   6 -13    3.53    7.37
  13  -6  13    2.61    6.30
  13  -6  13    5.22    9.40
 -13   7 -13    2.84    7.97
 -13   7 -13   14.76    7.33
  13  -7  13   -8.34    9.26
  13  -7  13    0.43    6.53
 -13   8 -13   12.66    9.73
 -13   8 -13   11.12    8.21
  13  -8  13   33.60    8.22
 -13   9 -13   16.08    9.07
  13  -9  13   -0.15    7.51
  14  10 -13    6.71    4.45
 -14 -10  13   -7.66    5.20
 -14  -9  13    0.70    1.76
 -14  -8  13    2.79    1.88
  14   3  13    5.64    7.25
 -14  -2 -13    0.19    5.35
  14   2  13    4.84    7.65
  14   2  13    0.24    4.22
 -14  -1 -13    4.44    5.22
  14   1  13   -0.68    4.07
  14   1  13   -1.48    8.03
 -14   0 -13    2.02    5.01
  14   0  13    1.15    4.11
  14   0  13   10.88    8.21
 -14   1 -13    2.06    8.37
 -14   1 -13   -2.13    5.30
  14  -1  13   -2.43    4.08
  14  -1  13    6.68    8.10
 -14   2 -13  -12.95    8.79
 -14   2 -13    0.15    5.52
  14  -2  13   -0.75    4.44
  14  -2  13   -0.11    7.43
 -14   3 -13  -15.13    6.35
 -14   3 -13   -5.45    9.16
  14  -3  13    9.56    6.88
  14  -3  13    3.81    4.97
 -14   4 -13   -4.12    6.95
 -14   4 -13   -3.60    9.12
  14  -4  13   -8.26    8.34
  14  -4  13    0.53    5.91
 -14   5 -13    7.85    7.87
 -14   5 -13    1.99    9.25
  14  -5  13   12.10    9.80
  14  -5  13    8.83    6.99
 -14   6 -13    0.20    9.24
 -14   6 -13    6.28    9.45
  14  -6  13   16.90   11.82
  14  -6  13   25.89    8.02
 -14   7 -13    2.93    8.21
 -14   7 -13   10.00    9.08
  14  -7  13    2.01   10.45
  14  -7  13   15.31    7.49
 -14   8 -13    4.31    9.23
 -14   8 -13    3.67    7.81
  14  -8  13   10.26    7.30
 -14   9 -13   -9.94    9.41
  14  -9  13   -4.99    7.54
 -15  -3 -13   13.34   15.30
  15   3  13    6.22   15.79
 -15  -2 -13    4.19    6.23
  15   2  13   -3.83    8.42
  15   2  13   -1.33    4.68
 -15  -1 -13    8.61    6.08
  15   1  13  -10.02    4.77
  15   1  13    5.13    8.49
 -15   0 -13    7.04    5.80
  15   0  13   -0.36    8.89
  15   0  13    5.59    4.60
 -15   1 -13   -4.06    9.38
 -15   1 -13   -1.39    5.94
  15  -1  13   -5.82    8.55
  15  -1  13   -8.73    4.86
 -15   2 -13    5.29    6.67
 -15   2 -13   16.10   10.17
  15  -3  13  102.88   28.91
  15  -3  13  146.62   32.01
 -15   4 -13    3.03    7.99
 -15   4 -13  -14.48   10.44
  15  -4  13  -23.54   10.56
  15  -4  13   -9.79    6.47
 -15   5 -13   10.70    9.90
 -15   5 -13   13.41    8.22
  15  -5  13   -4.30    7.10
  15  -5  13  -10.77   10.82
 -15   6 -13  -11.47    9.42
 -15   6 -13   -8.64    9.61
  15  -6  13   -1.83    7.62
  15  -6  13  -18.76   12.33
 -15   7 -13    2.94    8.86
 -15   7 -13    0.23    9.49
  15  -7  13    2.97   11.47
  15  -7  13   11.03    7.61
 -15   8 -13   -8.13    8.61
 -15   8 -13    7.48    9.57
  15  -8  13    6.63    7.58
 -15   9 -13   16.22   37.62
  15  -9  13  190.88   34.03
 -16  -3 -13   -3.61    6.47
  16   3  13   10.21    8.78
 -16  -2 -13   -0.70    6.82
  16   2  13   14.97    8.80
  16   2  13   -1.32    5.01
 -16  -1 -13    0.86    6.93
  16   1  13   10.26    9.12
  16   1  13    7.96    5.50
 -16   0 -13    0.41    6.39
 -16   0 -13   10.31    9.88
  16   0  13   -6.39    4.99
  16   0  13   12.18    8.82
 -16   1 -13   -0.85   10.25
 -16   1 -13   11.48    7.21
  16  -1  13    0.12    8.40
  16  -1  13   10.63    5.62
 -16   2 -13   -0.40    7.06
 -16   2 -13    3.82   10.97
  16  -2  13  -14.81    7.40
  16  -2  13  -13.02    5.52
 -16   3 -13    6.16    7.90
 -16   3 -13    3.68   11.32
  16  -3  13    2.37    5.72
  16  -3  13   -1.58    8.27
 -16   4 -13  -10.48    8.64
 -16   4 -13  -12.73   11.13
  16  -4  13   -4.92   10.72
  16  -4  13  -10.44    7.00
 -16   5 -13  -12.34   10.80
 -16   5 -13   -8.05    9.02
  16  -5  13    2.32    6.97
  16  -5  13    5.38   11.75
 -16   6 -13    8.10    9.72
 -16   6 -13  -12.18   10.48
  16  -6  13    2.02   12.52
  16  -6  13    9.74    7.94
 -16   8 -13  -10.01   10.33
 -16   8 -13    5.64    9.88
  16  -8  13    7.13    8.11
 -16   9 -13    9.48   10.95
  16  -9  13    3.72    8.66
 -17  -3 -13   -2.94    8.59
  17   3  13  -23.84   10.09
 -17  -2 -13    7.07    7.71
  17   2  13    5.20    5.79
  17   2  13   -9.29    9.42
 -17  -1 -13   11.72    7.69
  17   1  13    0.69    9.47
  17   1  13    1.87    5.64
 -17   0 -13    5.16    7.67
 -17   0 -13    0.58   10.99
  17   0  13    4.04    9.12
  17   0  13    7.45    5.80
 -17   1 -13   -3.16    7.55
 -17   1 -13  -20.13   11.47
  17  -1  13    1.76    5.72
  17  -1  13    0.81    7.80
 -17   2 -13    7.78    8.08
 -17   2 -13   21.81   12.49
  17  -2  13    6.99    8.22
  17  -2  13    4.94    6.16
 -17   3 -13   -5.09   12.79
 -17   3 -13  -15.10    9.28
 -17   4 -13   -3.78   30.82
 -17   4 -13   52.24   33.94
 -17   5 -13  -20.47   14.00
 -17   6 -13    1.89   10.34
 -17   6 -13   -7.20   11.18
  17  -6  13    2.13    8.72
  17  -6  13  -11.37   14.39
 -17   7 -13  -14.07   10.93
 -17   7 -13    2.04   11.04
  17  -7  13   13.19   13.87
  17  -7  13    8.32    8.67
 -17   8 -13   -5.90   10.88
 -17   8 -13   -9.21   10.59
  17  -8  13   11.07    8.82
 -18  -3 -13    2.10    8.46
  18   3  13   -8.36   10.33
 -18  -2 -13    4.14    8.64
  18   2  13   -3.99    6.60
  18   2  13   25.10   10.36
 -18  -1 -13    3.05    8.56
 -18  -1 -13   21.84   11.64
  18   1  13   -5.19    9.98
  18   1  13   -1.22    6.30
 -18   0 -13    4.83    8.67
 -18   0 -13   -5.21   11.64
  18   0  13  -13.96    9.26
  18   0  13   -1.47    6.24
 -18   1 -13    6.87    8.78
 -18   1 -13   -0.35   12.68
  18  -1  13    5.73    6.48
  18  -1  13    6.02    8.66
 -18   2 -13    4.25   13.44
 -18   2 -13   -3.64    8.99
  18  -2  13    0.99    6.74
  18  -2  13    3.75    9.38
 -18   3 -13   11.01    9.44
 -18   3 -13  -28.05   13.40
  18  -3  13  -20.32   11.27
  18  -3  13    4.81    7.22
 -18   4 -13  -10.10   13.88
 -18   4 -13   -0.28    9.84
  18  -4  13    4.18   13.14
  18  -4  13    7.07    7.55
 -18   5 -13   10.76   11.55
 -18   5 -13    9.08   13.86
  18  -5  13   17.89    9.33
  18  -5  13   23.86   16.04
 -18   6 -13   -2.21   13.27
 -18   6 -13  -17.69   11.51
  18  -6  13  -13.37    9.04
  18  -6  13   -8.97   15.58
 -18   7 -13   16.41   12.60
 -18   7 -13   18.65   12.49
  18  -7  13   -5.78   15.08
  18  -7  13  -23.44    9.59
 -18   8 -13  -13.61   12.32
  18  -8  13   -7.03    9.96
 -19  -1 -13    0.33   10.27
  19   1  13  -10.19    7.53
 -19   0 -13   -0.92    9.94
 -19   0 -13    0.37   10.14
  19   0  13   -8.19    7.25
 -19   1 -13   -0.91   10.03
 -19   1 -13   -9.70   13.16
  19  -1  13   -0.13    6.66
  19  -1  13   -7.48    6.80
 -19   2 -13    0.42   13.07
 -19   2 -13    3.30   10.42
  19  -2  13  -10.61    7.45
 -19   3 -13  -15.07   11.06
  19  -3  13   -6.79    7.95
   0   0 -14   17.38    4.62
   0   1 -14    0.17    2.03
   1   0 -14   -0.59    1.01
   0   1 -14    0.56    0.78
  -1   0 -14   -0.43    1.05
   0  -1  14    1.39    2.51
  -1   0  14    0.34    2.57
  -1   1 -14   11.34    4.35
   1   1 -14    9.42    3.45
  -1   1 -14   18.97    3.56
   1   1 -14    9.21    4.39
   1  -1  14   14.83    4.78
  -1  -1  14   12.34    4.87
  -1   2 -14   -0.44    2.17
   2   1 -14    1.07    0.90
   2   1 -14    1.25    2.14
  -1   2 -14    1.06    0.75
  -2  -1  14    0.39    2.84
   1  -2  14   -3.39    2.71
   0   2 -14    2.09    2.09
   2   0 -14    2.85    1.12
  -2   0 -14    1.45    1.16
   0   2 -14    5.13    0.87
   0  -2  14   -2.27    1.38
   0  -2  14    1.18    2.67
  -2   0  14    0.96    2.88
   1   2 -14    0.49    0.78
   1   2 -14   -0.08    2.01
  -2   1 -14   -0.83    0.95
  -2   1 -14   -3.84    2.69
  -1  -2  14    0.39    2.53
  -2   2 -14   -3.14    2.65
   2   2 -14    0.05    0.81
   2   2 -14    0.47    2.12
  -2   2 -14    0.87    0.80
  -2  -2  14   -2.08    2.81
   2  -2  14   -5.17    2.86
  -2   3 -14   -1.94    1.05
   3   2 -14   -0.26    0.80
  -2   3 -14   -0.39    0.62
   3   2 -14   -0.41    2.09
  -2   3 -14    0.13    1.81
   2  -3  14   -3.46    2.20
  -3  -2  14    0.84    2.60
   2  -3  14   -4.95    2.38
   3   1 -14   -0.12    0.97
  -1   3 -14   -1.01    0.74
   3   1 -14   -0.55    2.40
  -1   3 -14   -0.60    2.05
   1  -3  14   -4.76    2.36
  -3  -1  14   -0.82    3.01
   0   3 -14   -0.54    2.07
   3   0 -14   -0.07    1.09
   0   3 -14   -1.03    0.79
   3   0 -14   -0.83    2.42
  -3   0 -14   -2.19    1.30
   0  -3  14   -4.05    2.63
  -3   0  14   -1.18    2.97
  -3   1 -14   -1.45    0.93
   1   3 -14   -0.09    0.77
   1   3 -14   -1.75    2.06
  -1  -3  14   -2.75    2.38
  -3   2 -14   -1.17    2.00
   2   3 -14   -0.05    0.69
  -3   2 -14    0.04    0.68
   2   3 -14    0.66    1.93
   3  -2  14   -0.73    2.44
  -2  -3  14   -0.23    2.33
  -3   3 -14    6.27    3.53
  -3   3 -14   14.04    2.60
   3   3 -14    8.91    3.54
   3   3 -14    7.94    2.49
  -3   3 -14    9.16    3.30
  -3  -3  14    8.65    3.89
   3  -3  14    6.61    3.69
   3  -3  14   12.13    3.11
   3  -3  14    4.14    4.14
  -3   4 -14   11.41    3.43
  -3   4 -14   11.23    3.95
  -3   4 -14    9.97    3.28
  -3   4 -14   13.55    2.91
   4   3 -14   10.40    3.85
  -4  -3  14    8.27    4.23
   3  -4  14   11.23    3.25
   3  -4  14   11.43    2.68
   3  -4  14    6.63    3.85
   3  -4  14    4.83    4.02
  -2   4 -14    0.51    1.80
   4   2 -14   -0.51    2.14
  -2   4 -14    0.49    0.66
   2  -4  14    0.28    0.96
   2  -4  14    2.58    2.42
   2  -4  14    0.44    0.58
  -4  -2  14    0.22    2.75
   2  -4  14    0.84    1.94
  -1   4 -14   15.92    3.75
   4   1 -14   13.22    4.91
  -1   4 -14   12.70    4.69
   1  -4  14   15.00    3.59
   1  -4  14   18.98    4.71
  -4  -1  14    6.90    5.47
   4   0 -14    0.75    1.11
  -4   0 -14   -0.31    1.04
   0   4 -14   -0.21    0.66
   0   4 -14    0.13    1.86
   4   0 -14   -0.65    2.58
   0  -4  14   -0.14    1.97
  -4   0  14    0.10    3.22
   4   0  14    1.32    2.13
   0  -4  14    0.05    0.67
   1   4 -14   10.75    3.22
   1   4 -14   15.00    4.28
   4  -1  14    9.42    4.90
  -1  -4  14   10.64    4.33
   2   4 -14   -0.29    1.81
  -4   2 -14    0.43    0.60
   2   4 -14    0.32    0.75
  -2  -4  14   -0.31    2.15
   3   4 -14    9.63    2.76
  -4   3 -14   11.22    2.91
   3   4 -14    7.77    3.80
  -3  -4  14   10.94    3.99
  -4   4 -14   10.90    3.26
  -4   4 -14   18.42    4.14
   4   4 -14    9.96    4.13
   4  -4  14   13.65    4.12
  -4  -4  14   14.37    4.27
   4  -4  14    9.71    3.05
   5   4 -14    7.01    1.61
   5   4 -14    5.44    2.84
  -4   5 -14    5.36    1.69
  -4   5 -14    5.84    2.44
  -5  -4  14    5.33    2.98
   4  -5  14    6.86    1.47
   4  -5  14    2.79    2.45
   5   3 -14    7.79    3.87
  -3   5 -14   10.41    2.93
   5   3 -14   10.16    2.68
  -3   5 -14   12.56    3.76
   3  -5  14    9.39    2.67
   3  -5  14    9.81    3.76
  -5  -3  14   11.22    4.31
   5   2 -14    8.47    2.83
  -2   5 -14   10.85    3.85
  -2   5 -14   11.80    3.03
   5   2 -14   10.84    4.12
   2  -5  14   11.67    2.80
  -5  -2  14    7.05    4.57
   2  -5  14   14.16    3.87
  -1   5 -14   23.31    6.71
   5   1 -14   27.14    8.15
   5   1 -14   21.38    6.36
  -1   5 -14   26.30    7.89
   1  -5  14   26.03    6.35
   1  -5  14   30.20    7.88
  -5  -1  14   23.57    8.96
   5   0 -14    0.61    1.18
   5   0 -14    0.45    2.66
   0   5 -14    0.77    1.75
   0   5 -14   -0.09    0.77
   0  -5  14    0.05    0.62
   5   0  14    1.11    2.53
  -5   0  14   -0.10    3.29
   0  -5  14    0.04    1.90
  -5   1 -14   20.17    8.40
   1   5 -14   22.63    6.70
   1   5 -14   28.48    7.86
   5  -1  14   37.40    9.03
  -1  -5  14   23.56    7.93
  -1  -5  14   24.72    6.43
  -5   2 -14   10.68    3.76
   2   5 -14    6.95    2.91
   2   5 -14    9.24    3.78
   5  -2  14   10.06    5.49
  -2  -5  14   12.67    3.93
   5  -2  14   12.83    3.61
  -2  -5  14   13.34    2.80
   3   5 -14    7.15    3.75
   3   5 -14   10.74    2.92
  -5   3 -14   16.85    3.52
  -3  -5  14   10.33    2.82
  -3  -5  14   12.50    3.91
   5  -3  14    7.65    4.92
   5  -3  14   10.64    3.42
  -5   4 -14    4.97    3.08
   4   5 -14    5.45    2.47
  -5   4 -14    3.25    2.01
  -5   4 -14    2.98    1.31
   5  -4  14    6.31    2.15
   5  -4  14    3.53    1.13
  -4  -5  14    4.63    2.62
   5  -4  14    1.23    2.87
  -5   5 -14   18.61    5.32
  -5   5 -14   27.98    5.84
  -5   5 -14   19.15    4.80
   5   5 -14   19.96    5.47
   5   5 -14   16.75    4.26
  -5   5 -14   19.07    5.17
   5  -5  14   14.87    5.52
   5  -5  14   14.74    5.10
  -5  -5  14   14.72    5.70
   5  -5  14   14.51    4.21
   5  -5  14    5.60    6.49
  -5  -5  14   16.54    4.14
   6   5 -14   -0.30    1.01
   6   5 -14    0.09    2.46
  -5   6 -14   -1.06    1.82
  -5   6 -14    0.91    0.96
  -6  -5  14    2.46    2.68
  -6  -5  14    0.07    0.96
  -4   6 -14   14.11    3.78
   6   4 -14   11.97    3.34
  -4   6 -14   12.99    4.46
   6   4 -14   10.14    4.70
   4  -6  14   13.90    3.30
  -6  -4  14   14.11    4.98
  -6  -4  14   12.47    3.28
   4  -6  14   14.92    4.45
   6   3 -14   17.02    4.89
   6   3 -14   15.87    3.53
  -3   6 -14   14.40    4.70
  -3   6 -14   14.65    4.00
  -6  -3  14    8.14    5.40
   3  -6  14   14.55    3.53
   3  -6  14   11.12    4.71
  -2   6 -14    9.32    3.76
   6   2 -14   12.91    2.87
  -2   6 -14   13.66    3.15
   6   2 -14   11.68    4.20
   2  -6  14    9.65    2.83
  -6  -2  14    9.34    4.86
  -1   6 -14    1.51    1.91
  -1   6 -14    2.93    1.21
   6   1 -14    2.67    2.80
   6   1 -14    3.23    1.34
  -6  -1  14    3.11    3.73
   1  -6  14    3.71    1.03
   6   1  14    3.51    2.93
   0   6 -14    9.53    2.40
   0   6 -14    5.72    3.02
   6   0 -14    7.38    3.83
   6   0 -14    7.60    2.35
   0  -6  14    8.12    2.14
   0  -6  14   10.38    3.13
  -6   0  14    2.24    4.53
   6   0  14    9.79    4.03
   1   6 -14    4.27    1.27
   1   6 -14    2.18    1.98
  -6   1 -14    1.31    2.39
  -1  -6  14    4.30    2.15
  -1  -6  14    2.51    1.10
   6  -1  14    3.92    4.07
   6  -1  14    3.46    2.25
  -6   2 -14    9.17    3.50
   2   6 -14   11.76    2.66
   2   6 -14    8.85    3.48
  -2  -6  14    9.81    3.59
  -2  -6  14    8.93    2.49
   6  -2  14   11.69    5.61
   6  -2  14    5.34    3.26
   3   6 -14   12.65    3.49
  -6   3 -14   11.58    4.99
  -6   3 -14   17.05    4.16
   3   6 -14   11.22    4.36
  -3  -6  14   15.47    4.53
  -3  -6  14   12.65    3.30
   6  -3  14    8.54    4.09
   6  -3  14   10.72    6.01
  -6   4 -14   16.68    4.13
   4   6 -14   13.27    4.32
  -6   4 -14   14.37    4.85
   6  -4  14    4.17    4.90
  -4  -6  14   12.64    3.31
   6  -4  14   18.06    4.15
  -4  -6  14   13.61    4.51
   5   6 -14    0.34    1.06
   5   6 -14    0.32    2.20
  -6   5 -14   -1.80    2.42
  -6   5 -14   -0.21    3.23
   6  -5  14   -0.48    4.09
   6  -5  14    0.15    2.56
  -5  -6  14   -1.03    2.46
  -5  -6  14   -0.06    0.85
   6   6 -14    2.34    1.49
   6   6 -14    3.75    2.75
   6  -6  14   -2.21    4.90
  -6  -6  14    5.07    1.35
  -6  -6  14    4.87    3.06
   7   6 -14   -0.93    2.79
   7   6 -14    0.67    1.28
  -7  -6  14    0.36    1.10
  -7  -6  14   -0.96    3.12
   7   5 -14   10.54    4.34
   7   5 -14    9.10    2.86
  -5   7 -14   15.48    4.01
  -7  -5  14    7.73    4.56
  -7  -5  14   10.06    2.78
  -4   7 -14    2.06    2.00
   7   4 -14    2.22    2.76
   7   4 -14    2.73    1.17
  -7  -4  14    1.83    1.18
   4  -7  14    2.83    0.92
  -7  -4  14    4.30    3.30
   7   3 -14   18.73    4.42
   7   3 -14   17.86    5.99
  -3   7 -14   14.46    5.70
  -3   7 -14   20.49    5.08
   3  -7  14   19.77    4.47
  -7  -3  14   15.17    6.54
  -2   7 -14    8.73    2.61
   7   2 -14   10.62    2.31
   7   2 -14    2.15    3.68
  -2   7 -14    9.55    3.12
  -7  -2  14    6.11    4.53
   2  -7  14    7.66    2.20
   7   1 -14   14.96    7.56
  -1   7 -14   18.42    7.00
  -1   7 -14   29.05    6.19
   7   1 -14   24.78    5.60
  -7  -1  14   13.69    8.54
   1  -7  14   20.28    5.57
   7   1  14   27.24    7.12
   7   0 -14    0.15    1.24
  -7   0 -14   -1.27    2.49
   0   7 -14    0.26    1.75
   7   0 -14   -0.33    3.42
   7   0 -14   -1.76    3.07
   0   7 -14   -0.16    1.16
   7   0  14   -2.28    3.50
  -7   0  14    0.79    3.80
   0  -7  14   -0.35    0.79
  -7   1 -14   17.57    7.13
   1   7 -14   22.94    5.93
   1   7 -14   30.70    6.85
   7  -1  14   26.56    8.95
  -1  -7  14   20.98    5.46
   7  -1  14   15.40    6.63
   2   7 -14    7.79    2.52
   2   7 -14   10.04    3.26
  -7   2 -14    8.02    3.24
   7  -2  14   12.37    5.72
   7  -2  14    8.54    3.08
  -2  -7  14    8.55    2.28
  -7   3 -14   23.77    5.97
   3   7 -14   13.67    5.08
  -7   3 -14   13.38    4.96
   3   7 -14   12.87    4.23
   7  -3  14   13.70    4.81
   7  -3  14   18.72    7.13
  -3  -7  14   13.93    3.90
  -7   4 -14    0.63    2.43
   4   7 -14    1.39    1.49
   4   7 -14    2.12    2.24
  -7   4 -14    6.12    3.99
   7  -4  14   -4.27    3.35
  -4  -7  14    3.54    1.05
   7  -4  14    1.62    2.52
  -7   5 -14   13.06    4.15
  -7   5 -14    9.72    4.78
   5   7 -14   11.77    3.85
   7  -5  14    6.04    4.14
  -5  -7  14   11.46    3.95
   7  -5  14    3.13    5.38
   6   7 -14    1.03    2.53
   6   7 -14   -0.36    1.53
  -6  -7  14    2.76    2.61
   7  -6  14    0.07    3.38
   7  -6  14   -1.58    5.35
  -6  -7  14    0.51    1.08
   7   7 -14    8.02    2.35
   7   7 -14    6.13    3.37
  -7  -7  14    7.87    3.60
  -7  -7  14    4.83    2.00
   8   7 -14    7.84    1.75
   8   7 -14    0.90    3.00
  -8  -7  14    3.28    3.28
  -8  -7  14   -0.08    1.14
   8   6 -14    4.51    1.60
   8   6 -14   -0.10    3.17
  -8  -6  14    5.16    1.44
  -8  -6  14    1.42    3.40
   8   5 -14    1.24    2.91
   8   5 -14    0.68    1.18
  -8  -5  14    0.29    1.14
  -8  -5  14   -0.62    3.45
  -4   8 -14   35.18   12.85
   8   4 -14   30.65    9.72
   8   4 -14   48.27   12.92
  -8  -4  14   36.67   13.79
  -8  -4  14   42.00    9.58
   8   3 -14    4.46    1.33
  -3   8 -14    2.79    2.13
   8   3 -14    3.39    3.03
  -8  -3  14    1.41    3.87
   8   2 -14   20.11    4.68
   8   2 -14   16.97    6.63
  -2   8 -14   17.47    6.03
   2  -8  14   20.51    4.76
  -8  -2  14   12.41    7.64
   8   1 -14    0.47    1.15
   8   1 -14    2.40    3.12
  -1   8 -14    0.91    1.81
  -1   8 -14   -0.10    1.31
   1  -8  14    1.01    0.84
   8   1  14   -2.64    3.78
  -8  -1  14    0.89    4.19
   0   8 -14   20.06    4.81
   8   0 -14   11.81    6.15
  -8   0 -14    8.91    5.91
   8   0 -14   17.04    4.42
   0   8 -14   23.93    5.40
   0  -8  14   12.55    4.27
   8   0  14   22.15    5.49
  -8   0  14   11.81    7.22
   8   0  14   23.15    7.05
  -8   1 -14    1.32    2.58
   1   8 -14    0.10    1.46
   1   8 -14   -0.62    1.89
  -1  -8  14    1.79    0.87
   8  -1  14   -4.86    5.13
   8  -1  14    0.33    2.13
  -8   2 -14   14.23    5.79
   2   8 -14   19.50    5.88
   2   8 -14   25.47    5.14
   8  -2  14   16.90    8.71
   8  -2  14   18.03    5.61
  -2  -8  14   16.81    4.61
  -8   3 -14    2.56    2.67
   3   8 -14    2.77    2.32
  -8   3 -14    2.24    4.45
   3   8 -14    3.47    1.81
   8  -3  14   -2.24    4.87
  -3  -8  14    4.00    1.26
   8  -3  14    4.76    2.51
  -8   4 -14   27.63   12.01
   4   8 -14   72.03   12.20
  -8   4 -14   30.46   12.02
   8  -4  14   39.69   11.64
   8  -4  14   36.23   13.85
  -4  -8  14   41.30    9.80
  -8   5 -14    1.17    3.25
  -8   5 -14    0.95    4.52
   5   8 -14    0.08    2.28
   8  -5  14   -4.33    4.97
   8  -5  14   -0.48    3.38
   6   8 -14    0.17    2.58
  -8   6 -14    4.87    4.24
  -8   6 -14    3.02    4.16
   6   8 -14    2.47    1.79
  -6  -8  14    1.12    1.29
   8  -6  14    0.54    3.80
   8  -6  14    3.75    5.85
   7   8 -14    1.39    2.78
   9   8 -14    0.37    1.98
  -9  -8  14   -0.09    1.43
  -9  -8  14    0.93    3.24
   9   6 -14   12.81    3.20
   9   6 -14   18.02    4.85
  -9  -6  14    1.47    5.05
  -9  -6  14   12.38    2.99
   9   5 -14    5.73    2.09
   9   5 -14    6.57    3.89
  -9  -5  14    8.91    4.37
  -9  -5  14    7.91    2.05
   9   4 -14    2.02    1.22
   9   4 -14    3.67    3.24
  -4   9 -14    0.83    1.93
  -9  -4  14    1.82    3.97
  -9  -4  14    0.68    1.20
  -3   9 -14   19.14    7.24
   9   3 -14   23.23    7.73
   9   3 -14   20.24    5.63
  -9  -3  14   30.93    8.69
   9   2 -14   -0.82    2.98
   9   2 -14   -0.56    1.10
  -2   9 -14    1.14    1.84
  -9  -2  14   -0.76    4.47
   9   1 -14   11.46    2.71
  -9  -1 -14    1.12    4.70
  -1   9 -14    9.72    3.59
   9   1 -14   13.37    4.56
  -9  -1  14   12.09    5.86
   9   1  14    8.04    5.52
  -9   0 -14    0.11    3.44
  -9   0  14    1.41    4.68
   9   0  14   12.91    3.36
   1   9 -14    9.51    3.00
   1   9 -14   12.06    3.48
  -9   1 -14    9.50    3.85
   9  -1  14   -1.60    6.89
  -1  -9  14   13.93    2.47
   9  -1  14   -0.36    3.81
   2   9 -14   -0.11    1.58
  -9   2 -14   -0.71    2.68
   2   9 -14    0.89    2.07
  -2  -9  14    1.36    1.00
   9  -2  14   -1.10    2.42
   3   9 -14   21.83    6.66
  -9   3 -14   26.85    8.04
  -9   3 -14   14.79    6.82
   3   9 -14   22.18    5.91
   9  -3  14   18.82    9.16
  -3  -9  14   24.52    5.31
   9  -3  14   19.52    6.58
   4   9 -14   -0.12    1.74
  -9   4 -14   -0.17    3.36
  -9   4 -14    4.80    5.29
   4   9 -14    0.08    2.36
   9  -4  14    5.39    4.01
  -4  -9  14    1.03    1.12
   9  -4  14    3.72    3.20
   5   9 -14    0.86    2.89
  -9   5 -14   10.22    5.26
  -9   5 -14    7.64    4.17
   9  -5  14   -0.88    5.81
   9  -5  14    7.57    4.07
  -9   6 -14    2.77    5.30
  -9   6 -14    5.09    5.21
   9  -6  14   11.46    6.87
   9  -6  14    4.24    4.95
   7   9 -14    1.80    1.93
  -7  -9  14    0.09    1.28
   9  -7  14    0.11    6.34
   9  -7  14   -0.68    4.70
   8   9 -14   -1.89    2.10
   8   9 -14    0.31    2.93
  -8  -9  14    0.38    1.38
   9   9 -14   -0.11    2.98
   9   9 -14   -0.14    2.14
  -9  -9  14   -3.06    1.46
  10   9 -14    0.15    2.15
  10   9 -14   -2.55    3.42
 -10  -9  14   -1.49    3.72
 -10  -9  14   -0.11    1.51
  10   8 -14    1.04    2.06
  10   8 -14    0.12    3.52
 -10  -8  14   -1.11    4.04
 -10  -8  14    0.50    1.44
  10   7 -14   -0.43    1.87
 -10  -7  14    4.27    1.48
  10   5 -14    3.68    3.63
  10   5 -14    2.27    1.62
 -10  -5  14   -2.18    4.44
 -10  -5  14    6.44    1.54
  10   4 -14    6.91    4.64
  10   4 -14    9.77    2.65
 -10  -4  14    8.89    2.65
 -10  -4  14    9.33    5.63
  10   3 -14    2.11    3.43
  10   3 -14    4.46    1.42
 -10  -3  14    1.27    4.73
  10   2 -14    6.76    1.82
  10   2 -14    5.48    3.84
  10   2  14    4.27    4.96
 -10  -2  14    1.42    5.21
  10   1 -14    1.41    1.22
 -10  -1 -14   -1.96    3.49
  10   1 -14    0.67    3.70
  10   1  14   -3.56    5.14
  10   1  14    3.26    3.06
 -10  -1  14    1.64    4.92
  10   0 -14   -1.58    1.38
 -10   0 -14   -0.34    3.34
  10   0  14    8.46    6.05
  10   0  14   -4.48    2.99
 -10   0  14    1.22    4.84
 -10   1 -14   -0.58    3.15
  10  -1 -14   -0.66    1.58
  10  -1  14    0.26    6.58
  10  -1  14    0.20    2.64
 -10   2 -14    7.08    3.63
   2  10 -14    5.09    2.92
  10  -2  14    9.04    3.24
  10  -2  14    0.60    6.76
 -10   3 -14    4.44    3.47
   3  10 -14   -3.93    2.32
 -10   3 -14    1.97    5.81
  10  -3  14    6.61    3.06
  10  -3  14   -3.04    5.52
 -10   4 -14   17.97    6.95
 -10   4 -14    8.50    5.20
  10  -4  14   19.77    4.97
  10  -4  14    7.09    6.17
 -10   5 -14    5.35    5.96
 -10   5 -14    4.53    4.50
  10  -5  14    0.92    4.32
  10  -5  14   -3.78    5.85
 -10   6 -14    0.74    5.29
   6  10 -14    3.66    2.54
 -10   6 -14    2.59    5.11
  10  -6  14   -1.16    6.76
  10  -6  14   -0.50    4.64
  -6 -10  14   -0.10    1.23
   7  10 -14    1.85    2.16
   7  10 -14    0.10    2.83
 -10   7 -14    4.17    6.24
 -10   7 -14    4.11    5.29
  -7 -10  14   -1.33    1.14
  10  -7  14  -17.02    5.41
   8  10 -14   -5.95    2.28
   8  10 -14   -4.65    3.06
  -8 -10  14   -0.11    1.35
   9  10 -14    0.16    2.19
   9  10 -14    0.11    3.14
  -9 -10  14    0.11    1.50
  10  10 -14    0.12    3.45
 -10 -10  14    0.12    1.49
  11  10 -14   -0.12    3.72
 -11 -10  14    0.13    1.76
 -11 -10  14    0.90    4.36
  11   9 -14    2.54    2.53
  11   9 -14   -0.13    3.64
 -11  -9  14    3.06    4.31
 -11  -9  14    1.40    1.65
  11   8 -14    0.13    3.52
  11   8 -14    2.96    2.31
 -11  -8  14    2.15    4.49
 -11  -8  14    0.11    1.51
  11   7 -14    1.33    2.05
  11   7 -14    1.65    3.77
 -11  -7  14    2.11    4.50
 -11  -7  14    2.48    1.58
  11   6 -14   -0.10    1.60
 -11  -6  14   -1.48    1.43
  11   4 -14    2.35    1.48
  11   4 -14   -2.93    3.68
 -11  -4  14    6.59    1.44
 -11  -4  14   -2.71    4.87
  11   3 -14    1.86    1.32
  11   3 -14    2.76    3.72
 -11  -3  14    3.34    1.48
 -11  -3  14    3.38    4.91
  11   2 -14    0.20    1.21
  11   2 -14    0.66    3.39
 -11  -2  14    2.02    5.24
 -11  -1 -14    3.23    4.13
  11   1 -14    1.27    3.63
 -11  -1  14   -0.53    5.13
  11   1  14    1.10    3.38
 -11   0 -14   -4.15    3.96
  11   0 -14   -1.04    1.51
  11   0  14   -4.57    3.18
  11   0  14   -5.46    6.70
  11  -1 -14    0.65    1.75
 -11   1 -14   -0.75    3.59
  11  -1  14    5.66    3.02
  11  -1  14   -3.60    6.96
 -11   2 -14    6.21    6.37
 -11   2 -14   -2.76    3.53
  11  -2  14    0.45    7.28
  11  -2  14   -3.18    3.12
 -11   3 -14    1.96    3.99
 -11   3 -14   -0.74    6.54
  11  -3  14   -6.01    6.10
  11  -3  14   -0.39    3.45
 -11   4 -14   -1.52    4.60
 -11   4 -14    5.21    6.99
  11  -4  14    0.68    5.67
  11  -4  14    5.82    4.23
 -11   5 -14   -3.09    5.13
 -11   5 -14    0.20    6.55
 -11   6 -14   -2.30    5.62
 -11   6 -14   -1.86    6.48
  11  -6  14  -15.37    5.65
 -11   7 -14   -7.41    6.52
  11  -7  14  -12.37    5.57
  12  11 -14    0.41    3.85
 -12 -11  14   -0.10    4.66
  12  10 -14    7.74    4.11
 -12 -10  14    1.99    1.97
 -12 -10  14    0.29    4.80
  12   9 -14    4.33    2.91
  12   9 -14    0.27    4.27
 -12  -9  14   20.39    5.12
 -12  -9  14    0.12    2.02
  12   8 -14    4.18    4.07
  12   8 -14    0.15    2.42
 -12  -8  14    1.23    4.87
 -12  -8  14    3.20    1.65
  12   7 -14    5.71    4.29
  12   7 -14   -1.01    2.31
 -12  -7  14    6.24    5.24
 -12  -7  14   -0.31    1.75
  12   6 -14    2.31    3.95
  12   6 -14    0.85    1.83
 -12  -6  14    1.06    1.42
 -12  -6  14   -0.55    5.16
  12   5 -14   -0.09    1.53
 -12  -5  14   -1.29    1.51
  12   3 -14    9.71    3.23
  12   3 -14    9.23    5.57
 -12  -3  14   25.61    7.34
  12   2 -14    0.28    3.97
  12   2 -14   -1.45    1.23
 -12  -2 -14   13.18    4.23
  12   2  14   -6.66    6.20
 -12  -2  14   -7.63    5.83
  12   1 -14    0.29    3.70
  12   1 -14    1.01    1.34
  12   1  14   -2.08    6.54
 -12  -1  14   -0.70    5.43
  12   0 -14   -0.16    1.37
  12  -1 -14    1.29    1.69
 -12   6 -14    0.23    6.88
  12  -6  14   -3.79    8.59
 -12   7 -14   30.23    7.74
 -12   7 -14    3.09    7.28
  12  -7  14    9.72    9.38
  12  -8  14   -6.56    6.25
  13  11 -14    0.43    4.22
 -13 -11  14    6.42    5.21
  13  10 -14   -0.14    4.36
 -13 -10  14   -9.29    5.30
  13   9 -14    0.57    4.35
  13   9 -14    3.83    2.62
 -13  -9  14    6.17    5.41
 -13  -9  14    0.92    1.88
  13   8 -14   -2.94    2.54
  13   8 -14   -5.21    4.58
 -13  -8  14   -7.94    5.36
 -13  -8  14   -0.49    1.81
  13   7 -14   -1.96    2.43
  13   7 -14    4.34    4.47
 -13  -7  14   -0.80    1.77
 -13  -7  14  -16.71    5.91
  13   6 -14    1.06    2.20
  13   6 -14    8.05    4.23
 -13  -6  14   11.90    6.07
 -13  -6  14    2.19    1.84
  13   5 -14    3.12    4.04
  13   5 -14    0.59    1.76
 -13  -5  14    3.12    1.52
 -13  -5  14   -0.36    5.45
  13   4 -14   -0.41    1.39
 -13  -4  14   -0.95    1.47
 -13  -2 -14   -2.85    5.03
  13   2 -14    0.29    3.99
 -13  -2  14    2.52    5.88
  13   2  14    7.25    6.65
 -13  -1 -14   -9.98    5.16
  13   1 -14    0.15    4.13
  13   1  14    1.46    7.08
  13   1  14    7.07    4.02
 -13  -1  14   -0.44    5.71
 -13   0 -14    4.32    4.74
  13   0  14    0.10    3.90
  13   0  14    6.60    7.62
 -13   1 -14   -2.95    4.65
  13  -1  14   -3.97    8.04
  13  -1  14   -4.29    3.84
 -13   2 -14    3.74    8.00
 -13   2 -14    6.01    4.84
  13  -2  14    5.33    3.92
  13  -2  14   -4.33    8.05
 -13   3 -14    0.14    5.41
 -13   3 -14    3.33    8.36
  13  -3  14   -2.72    6.91
  13  -3  14    5.89    4.46
 -13   4 -14    3.75    8.24
 -13   4 -14    3.38    5.82
  13  -4  14    2.88    4.99
  13  -4  14   -9.39    7.89
 -13   5 -14    1.79    8.17
 -13   5 -14   -2.32    6.41
  13  -5  14   -2.70    5.74
  13  -5  14  -16.13    8.81
 -13   6 -14    1.56    7.92
 -13   6 -14    4.65    7.35
  13  -6  14   12.52   10.15
  13  -6  14   -0.68    6.23
 -13   7 -14   -4.53    7.48
 -13   7 -14    0.19    7.82
  13  -7  14   -6.61    6.49
  13  -7  14    0.76    9.40
  13  -8  14   -4.34    6.78
  14  11 -14    0.46    4.57
 -14 -11  14    5.99    5.56
  14  10 -14   -5.03    4.59
 -14 -10  14    2.98    5.68
  14   9 -14    0.15    4.38
  14   9 -14   -4.38    2.82
 -14  -9  14   -3.85    5.58
 -14  -9  14   -2.30    1.95
  14   8 -14    0.15    4.68
 -14  -8  14    1.03    1.87
 -14  -8  14   -1.56    5.81
 -14  -7  14    7.31    2.51
 -14  -2 -14   -3.30    5.32
  14   2  14    8.55    7.41
  14   2  14    1.10    4.10
 -14  -1 -14    3.80    5.48
  14   1  14   -1.58    7.79
  14   1  14    4.18    4.06
 -14   0 -14    1.29    5.10
  14   0  14    6.66    4.29
  14   0  14   -4.99    8.17
 -14   1 -14   -7.01    5.21
 -14   1 -14    6.64    8.44
  14  -1  14    1.54    3.98
  14  -1  14   -4.05    7.97
 -14   2 -14   -2.21    8.87
 -14   2 -14    5.04    5.48
  14  -2  14   -1.53    4.14
  14  -2  14   -4.63    7.79
 -14   3 -14    7.97    9.43
 -14   3 -14    0.65    5.92
  14  -3  14   -8.79    4.83
  14  -3  14    0.93    6.62
 -14   4 -14   10.67    6.85
 -14   4 -14   -1.40    9.44
  14  -4  14    7.48    8.61
  14  -4  14    0.37    5.61
 -14   5 -14   -2.60    8.06
 -14   5 -14   -0.86    9.68
  14  -5  14  -20.60    7.48
  14  -5  14  -27.13   11.00
 -14   6 -14  -17.31    8.19
 -14   6 -14   -2.04    8.85
  14  -6  14    2.27   10.79
  14  -6  14   -1.20    6.80
 -14   7 -14    3.14    8.43
 -14   7 -14   -8.31    8.53
  14  -7  14   10.07   10.46
  14  -7  14    7.97    7.14
 -14   8 -14   12.21    8.68
 -14   8 -14   -3.07    7.87
  14  -8  14   -8.29    7.21
 -15  -2 -14  -10.81    6.26
  15   2  14   10.80    8.33
  15   2  14   -1.47    4.70
 -15  -1 -14   26.86   13.48
  15   1  14   28.54   11.41
  15   1  14   26.48   15.22
 -15   0 -14   11.32   16.01
  15   0  14   56.54   14.68
  15   0  14   75.47   18.78
 -15   1 -14   20.49   16.82
 -15   1 -14   30.36   16.04
  15  -1  14   92.72   18.74
  15  -1  14   57.32   14.92
 -15   2 -14  -11.52    6.38
 -15   2 -14   -7.50    9.83
 -15   3 -14   -6.07   10.17
 -15   3 -14   13.98    6.83
  15  -3  14  -11.38    7.75
  15  -3  14    6.30    5.22
 -15   4 -14   -0.31   10.01
 -15   4 -14   -8.74    7.29
  15  -4  14    2.10    5.94
  15  -4  14    4.19    8.98
 -15   5 -14    4.77    9.78
 -15   5 -14    6.26    8.02
  15  -5  14    1.10   10.53
  15  -5  14   -7.51    6.79
 -15   6 -14   -4.58   10.23
 -15   6 -14   -6.12    8.63
  15  -6  14   -3.24    6.96
  15  -6  14    7.38   11.37
 -15   7 -14   14.56    9.35
 -15   7 -14   -1.99    9.33
  15  -7  14   -1.99    7.79
  15  -7  14   15.65   11.73
 -15   8 -14   12.88    9.73
 -15   8 -14   -2.72    9.08
 -16  -2 -14    3.30    6.75
  16   2  14   -4.43    5.13
  16   2  14   -0.13    8.59
 -16  -1 -14   17.71    6.91
  16   1  14   -2.45    8.97
  16   1  14   -6.83    5.11
 -16   0 -14   14.96   10.17
 -16   0 -14   11.19    7.09
  16   0  14    6.99    5.40
 -16   1 -14   -4.78    9.94
 -16   1 -14   -1.82    6.81
  16  -1  14   -0.13    5.04
  16  -1  14  -10.11    8.25
 -16   2 -14    0.40    6.96
 -16   2 -14   -8.58   10.80
  16  -2  14   10.77    5.43
  16  -2  14    8.59    8.04
 -16   3 -14   -2.69   11.27
 -16   3 -14    4.78    7.49
  16  -3  14  -11.66    8.44
  16  -3  14    6.50    5.71
 -16   4 -14   31.58    8.75
 -16   4 -14    0.35   11.47
  16  -4  14   -1.18    6.82
  16  -4  14    6.62   10.82
 -16   5 -14  -20.76    8.92
 -16   5 -14   10.68   11.24
  16  -5  14   20.01   12.53
  16  -5  14   13.64    7.47
 -16   6 -14  -24.79   11.10
 -16   6 -14  -11.95   12.34
 -16   7 -14  -21.00   11.70
 -16   7 -14   -9.22   11.29
  16  -7  14  -28.78    9.52
 -16   8 -14   -4.08   10.05
 -16   8 -14   -0.38    9.84
  16  -8  14  -13.83    8.62
 -17  -1 -14  -28.00    8.82
  17   1  14    4.91   10.00
  17   1  14   -6.07    6.19
 -17   0 -14    5.80   10.89
 -17   0 -14  -15.59    8.53
  17   0  14  -11.89    9.83
  17   0  14  -17.63    6.58
 -17   1 -14   -8.66   11.24
 -17   1 -14   -5.10    8.40
  17  -1  14  -16.24    9.54
 -17   2 -14  -30.25   10.77
 -17   2 -14  -18.93   13.81
 -17   3 -14   58.29   57.39
 -17   3 -14  143.92   61.78
  17  -3  14  312.94   56.73
 -17   4 -14  -25.77   14.35
 -17   4 -14  -27.17   11.61
 -17   5 -14    2.78   12.36
 -17   5 -14   -5.71    9.68
  17  -5  14    2.61    7.33
  17  -5  14    2.46   13.72
 -17   6 -14    0.40   11.62
 -17   6 -14   -5.31   10.10
  17  -6  14   -7.52    8.45
  17  -6  14  -23.52   15.00
 -17   7 -14   13.79   10.82
 -17   7 -14    6.59   11.56
  17  -7  14  -17.36   14.22
  17  -7  14    7.20    8.53
 -17   8 -14    6.33   11.08
 -17   8 -14    4.12   10.72
  17  -8  14  -19.62    8.80
 -18  -2 -14    4.17    8.66
  18   2  14   -9.52   10.10
  18   2  14  -19.19    6.77
 -18  -1 -14    4.89   11.76
 -18  -1 -14   -1.17    8.92
  18   1  14    6.29   10.18
  18   1  14   -0.70    6.35
 -18   0 -14    9.54    9.26
 -18   0 -14    5.49   11.77
  18   0  14   -2.19    6.63
  18   0  14   14.74    9.52
 -18   1 -14   -4.20   12.61
 -18   1 -14  -10.62    8.90
  18  -1  14   -0.17    6.41
  18  -1  14  -11.32    8.66
 -18   2 -14    6.92   13.17
 -18   2 -14  -11.35    9.05
  18  -2  14   -0.92    9.36
  18  -2  14   -2.61    6.91
 -18   3 -14    7.64   13.41
 -18   3 -14   -3.46    9.38
  18  -3  14    7.11    7.03
  18  -3  14   -3.55   11.16
 -18   4 -14    8.29    9.91
 -18   4 -14  -13.06   13.82
  18  -4  14   -7.49    7.44
  18  -4  14   32.40   13.49
 -18   5 -14   17.38   13.71
 -18   5 -14  -23.40   10.90
  18  -5  14    0.23   15.01
  18  -5  14    7.08    7.81
 -18   6 -14    6.30   13.33
 -18   6 -14   16.99   11.20
  18  -6  14    2.01    8.77
  18  -6  14   -8.38   16.14
 -18   7 -14   -4.42   11.21
 -18   7 -14    7.35   12.98
  18  -7  14    2.52   15.37
  18  -7  14   -7.80    9.12
 -18   8 -14  -17.80   12.92
 -18   8 -14  -15.07   10.51
  18  -8  14    9.22    9.63
   0   0 -15   -1.08    1.18
   0   1 -15   32.14   11.72
   1   0 -15   33.76   10.02
   0   1 -15   58.37   10.15
  -1   0 -15   36.83   10.36
   0  -1  15   30.19   12.34
   1   1 -15   -0.29    2.10
   1   1 -15    0.38    0.98
  -1   1 -15    0.65    0.90
  -1   1 -15    0.09    2.10
   1  -1  15   -1.72    2.77
  -1  -1  15    0.66    2.76
   2   1 -15   -0.78    2.40
   2   1 -15   -0.19    1.00
  -1   2 -15    0.93    0.82
  -1   2 -15    0.33    2.21
   1  -2  15    2.22    2.01
  -2  -1  15    0.09    2.94
   1  -2  15    0.28    2.71
   0   2 -15   -0.08    2.06
   2   0 -15   -1.26    1.24
   0   2 -15    0.46    0.86
  -2   0 -15   -0.75    1.10
  -2   0  15    0.09    3.02
   0  -2  15   -0.70    2.74
   1   2 -15    1.10    2.20
   1   2 -15    0.48    0.85
  -2   1 -15    0.91    0.93
  -1  -2  15   -0.94    2.79
   2  -1  15   -0.08    2.61
   2  -1  15    1.00    1.82
   2   2 -15   -0.50    0.86
  -2   2 -15   -1.23    2.28
  -2   2 -15   -0.37    0.77
   2   2 -15   -0.09    2.21
   2  -2  15   -0.44    2.59
  -2  -2  15   -2.21    2.70
   2  -2  15    3.70    2.70
   3   2 -15   -0.06    0.92
  -2   3 -15    0.07    1.98
   3   2 -15   -0.27    2.36
  -2   3 -15   -0.40    0.67
  -3  -2  15   -1.08    2.83
   2  -3  15   -0.91    2.43
  -1   3 -15   10.47    2.93
  -1   3 -15    6.96    3.89
   3   1 -15   11.97    2.91
   3   1 -15   12.74    4.17
   1  -3  15   12.89    4.10
  -3  -1  15    8.72    4.65
  -3   0 -15    0.22    1.06
   3   0 -15    0.24    1.20
   0   3 -15   -0.32    0.71
   0   3 -15    0.38    1.96
   0  -3  15    0.83    2.44
  -3   0  15   -1.08    3.10
   1   3 -15   11.27    3.05
  -3   1 -15   11.86    3.30
   1   3 -15    8.97    3.93
  -1  -3  15   15.06    4.19
  -3   2 -15    0.38    0.72
   2   3 -15    0.08    2.07
  -3   2 -15    0.25    2.16
   2   3 -15   -0.25    0.80
   3  -2  15   -0.07    2.72
  -2  -3  15    0.32    2.53
  -3   3 -15    1.01    2.05
  -3   3 -15   -0.11    0.64
   3   3 -15   -0.05    0.88
   3   3 -15    1.33    2.12
   3  -3  15   -0.61    2.99
  -3  -3  15   -0.27    2.64
   3  -3  15    0.42    1.29
   3  -3  15   -0.23    2.45
  -3   4 -15    5.72    1.41
  -3   4 -15    4.77    2.57
   4   3 -15    2.35    2.65
   3  -4  15    4.10    1.32
   3  -4  15    7.00    2.68
  -4  -3  15    2.88    3.11
  -2   4 -15   16.71    3.75
   4   2 -15   12.91    4.86
  -2   4 -15   15.54    4.84
   2  -4  15   10.89    3.55
   2  -4  15   19.27    4.83
  -4  -2  15    6.89    5.33
  -1   4 -15    2.39    2.17
  -1   4 -15    2.71    0.97
   4   1 -15    5.15    2.77
   1  -4  15    3.37    2.34
   1  -4  15    1.93    0.92
  -4  -1  15    1.40    3.45
   4   0 -15    0.93    2.71
   0   4 -15   -0.13    0.70
  -4   0 -15   -0.54    1.07
   0   4 -15   -0.74    2.06
   4   0  15    1.96    2.27
  -4   0  15    0.10    3.19
   0  -4  15   -0.42    2.18
   1   4 -15    1.69    0.99
  -4   1 -15    1.82    1.13
   1   4 -15    1.07    2.17
   4  -1  15    6.42    2.99
  -1  -4  15    3.14    2.37
   2   4 -15   10.78    4.82
  -4   2 -15   13.18    3.98
   2   4 -15   18.24    3.76
  -4   2 -15   16.09    4.92
  -2  -4  15   14.16    4.89
   4  -2  15   15.22    5.23
  -4   3 -15    5.37    2.50
   3   4 -15    4.82    1.41
  -4   3 -15    3.57    1.31
   3   4 -15    4.37    2.69
   4  -3  15    7.13    2.96
  -3  -4  15    2.37    2.77
   4   4 -15    0.09    2.35
  -4   4 -15    0.80    2.03
  -4   4 -15    0.15    0.69
   4  -4  15    0.63    2.30
  -4  -4  15   -0.65    2.63
   4  -4  15    0.36    0.53
   5   4 -15    8.02    3.07
  -4   5 -15    3.38    1.85
   5   4 -15    7.08    1.76
  -4   5 -15    4.03    2.80
  -5  -4  15    6.01    3.49
   4  -5  15    6.47    1.59
   4  -5  15    6.43    2.87
   5   3 -15    3.62    1.08
  -3   5 -15    2.50    2.23
   5   3 -15    2.38    2.64
  -3   5 -15    1.91    1.02
   3  -5  15    0.81    2.21
  -5  -3  15    1.90    3.08
   3  -5  15    1.79    0.84
  -2   5 -15    7.12    2.64
   5   2 -15    5.38    1.71
  -2   5 -15    5.75    1.68
   5   2 -15    8.71    3.06
   2  -5  15    4.25    1.53
   2  -5  15    6.57    2.64
  -5  -2  15    4.89    3.63
   5   1 -15    9.66    3.63
   5   1 -15    9.36    2.19
  -1   5 -15    6.83    2.15
  -1   5 -15    6.90    3.00
   1  -5  15    6.54    2.02
   1  -5  15    8.89    3.15
  -5  -1  15    6.29    4.22
   5   0 -15    2.70    1.40
   0   5 -15    2.33    2.13
  -5   0 -15    2.28    1.37
   5   0 -15    2.68    3.00
   0   5 -15    4.07    1.14
   0  -5  15    2.74    1.03
  -5   0  15    2.04    3.58
   5   0  15    2.18    2.79
   0  -5  15    4.57    2.30
   1   5 -15    6.55    2.17
   1   5 -15    9.52    3.05
  -5   1 -15    6.87    2.35
   5  -1  15    6.25    4.25
  -1  -5  15    9.76    2.09
  -1  -5  15    8.72    3.18
  -5   2 -15    2.79    2.41
  -5   2 -15    4.54    1.50
   2   5 -15    5.35    1.52
   2   5 -15    4.98    2.53
   5  -2  15    3.57    2.30
  -2  -5  15    6.64    1.45
   5  -2  15    3.74    4.54
  -2  -5  15    4.80    2.78
  -5   3 -15    3.52    1.78
   3   5 -15    2.12    1.10
   3   5 -15    0.32    2.29
  -5   3 -15    1.76    0.83
   5  -3  15    0.99    1.65
  -3  -5  15    1.38    2.45
   5  -3  15    0.89    3.76
  -3  -5  15    2.45    1.00
  -5   4 -15    5.05    1.89
   4   5 -15    6.41    1.93
  -5   4 -15   11.22    3.06
   4   5 -15    9.75    3.07
   5  -4  15    5.88    1.73
  -4  -5  15    3.83    1.86
  -4  -5  15    9.42    3.20
   5  -4  15    3.52    2.42
   5  -4  15   14.77    3.28
   5   5 -15   -0.71    2.50
  -5   5 -15    0.30    0.92
  -5   5 -15   -1.66    2.20
   5   5 -15   -0.79    1.07
  -5  -5  15   -0.66    2.79
   6   5 -15    7.96    4.29
   6   5 -15    9.41    2.88
  -6  -5  15   14.23    4.59
  -6  -5  15   10.19    2.80
  -4   6 -15   13.39    3.65
  -4   6 -15   15.32    4.50
   6   4 -15   12.69    3.21
   6   4 -15    9.53    4.53
   4  -6  15   10.50    4.42
  -6  -4  15   14.91    4.96
   4  -6  15   10.41    3.15
  -3   6 -15    5.54    2.35
  -3   6 -15    7.49    3.12
   6   3 -15    3.30    3.44
   6   3 -15    8.38    2.09
   3  -6  15    9.24    3.15
   3  -6  15    7.77    1.98
  -6  -3  15    8.20    4.04
  -2   6 -15   12.87    5.18
  -2   6 -15   18.91    4.30
   6   2 -15   13.70    5.38
   6   2 -15   13.35    3.88
  -6  -2  15   14.06    6.15
   2  -6  15   20.56    5.23
   2  -6  15   12.90    3.90
   6   1 -15    9.87    2.21
  -1   6 -15    8.30    3.07
  -1   6 -15    7.17    2.29
   6   1 -15    8.31    3.75
  -6  -1  15    5.42    4.52
   1  -6  15    7.81    3.14
   1  -6  15    7.29    2.05
   0   6 -15    0.63    1.88
   0   6 -15    0.12    0.96
   6   0 -15   -0.16    1.31
   6   0 -15    0.26    3.08
   0  -6  15   -0.32    0.68
   6   0  15    0.14    3.12
   0  -6  15   -0.48    2.12
  -6   0  15    0.11    3.77
   1   6 -15    7.76    2.89
   1   6 -15    6.55    1.96
  -6   1 -15    2.73    3.08
   6  -1  15    2.89    2.84
  -1  -6  15    7.69    1.80
  -1  -6  15    5.86    2.98
   6  -1  15    8.63    4.59
   2   6 -15   14.87    5.17
  -6   2 -15   19.74    5.21
   2   6 -15   10.54    4.26
   6  -2  15   21.52    7.29
  -2  -6  15   16.83    4.06
   6  -2  15   13.77    4.91
  -2  -6  15   19.77    5.30
   3   6 -15    7.81    3.13
   3   6 -15    7.78    2.14
  -6   3 -15    8.55    2.79
  -3  -6  15    5.98    2.03
   6  -3  15    8.56    2.72
  -3  -6  15    6.47    3.28
   6  -3  15    4.90    4.89
  -6   4 -15   18.50    4.00
  -6   4 -15   17.74    4.85
   4   6 -15   10.35    3.35
   4   6 -15   17.14    4.41
  -4  -6  15   16.64    4.55
  -4  -6  15   12.46    3.22
   6  -4  15    9.79    3.89
   6  -4  15    1.84    4.85
   5   6 -15    9.64    4.26
  -5  -6  15   14.20    4.50
   6   6 -15   -6.74    3.15
   6   6 -15   -1.57    1.49
  -6  -6  15   -7.65    3.59
  -6  -6  15   -2.22    1.25
   7   6 -15    7.21    3.26
   7   6 -15    3.40    1.86
  -7  -6  15    6.50    1.71
  -7  -6  15    3.64    3.73
   7   5 -15   -0.93    1.27
   7   5 -15   -8.42    3.62
  -7  -5  15   -1.17    1.26
   7   4 -15    4.62    1.75
   7   4 -15    5.80    3.56
  -4   7 -15    8.31    2.78
  -4   7 -15    5.33    2.02
   4  -7  15    6.26    1.59
  -7  -4  15    2.56    4.16
  -3   7 -15    4.69    2.03
   7   3 -15    4.64    3.32
   7   3 -15    5.62    1.74
  -3   7 -15    6.75    2.69
   3  -7  15    6.54    1.59
  -7  -3  15    3.23    4.04
   7   2 -15    9.42    6.75
  -2   7 -15   20.92    6.49
  -2   7 -15   24.13    5.62
   7   2 -15   22.62    4.89
   2  -7  15   15.97    4.90
  -7  -2  15   17.68    7.78
  -1   7 -15    1.91    1.97
   7   1 -15   -0.37    2.99
   7   1 -15    1.41    1.30
  -1   7 -15    2.59    1.39
  -7  -1  15    0.89    4.10
   1  -7  15    1.81    0.92
   7   1  15    4.53    3.33
   7   0 -15   11.74    2.57
   7   0 -15    7.11    4.02
   0   7 -15    6.50    3.21
   0   7 -15    6.23    2.62
   7   0  15   12.16    4.52
   0  -7  15    8.94    2.26
  -7   0  15    5.17    4.85
  -7   1 -15    0.88    2.52
   1   7 -15    1.44    2.06
   1   7 -15    2.66    1.31
  -1  -7  15    1.33    0.86
   7  -1  15    1.06    2.39
   7  -1  15   -1.51    4.52
  -7   2 -15   17.91    6.57
   2   7 -15   21.34    5.72
   2   7 -15   28.65    6.62
  -2  -7  15   23.07    5.33
   7  -2  15   29.18    9.03
   7  -2  15   16.25    6.27
  -7   3 -15    2.20    4.30
  -7   3 -15    5.02    2.54
   3   7 -15    6.52    1.80
   3   7 -15    3.86    2.64
  -3  -7  15   10.04    2.89
   7  -3  15    1.90    2.38
  -3  -7  15    3.69    1.54
   7  -3  15    6.29    5.02
   4   7 -15    6.19    1.96
   4   7 -15    0.08    3.33
  -7   4 -15    8.24    2.72
  -7   4 -15    8.09    4.30
   7  -4  15    1.77    3.71
  -4  -7  15    5.98    1.63
  -4  -7  15    3.08    3.13
   7  -4  15    5.20    2.72
   7  -5  15    0.06    2.88
   7  -5  15  -11.21    4.77
   6   7 -15    4.42    1.83
   6   7 -15    1.12    3.03
  -6  -7  15    5.87    1.51
  -6  -7  15    0.07    3.28
   7   7 -15    1.99    2.74
   7   7 -15    3.88    1.60
  -7  -7  15   -0.08    1.11
  -7  -7  15    3.02    3.26
   8   6 -15   -0.11    3.26
   8   6 -15    3.80    1.54
  -8  -6  15    4.70    1.40
  -8  -6  15   -1.76    3.72
   8   5 -15   14.37    5.53
   8   5 -15   14.56    3.57
  -8  -5  15    6.47    5.86
  -8  -5  15   14.87    3.52
  -4   8 -15    4.47    2.13
   8   4 -15   -1.51    3.06
   8   4 -15    2.01    1.20
  -8  -4  15    0.72    4.00
  -8  -4  15    3.41    1.29
   8   3 -15   17.25    4.93
  -3   8 -15   16.48    6.71
   8   3 -15   18.25    6.91
  -8  -3  15   18.18    7.86
   3  -8  15   24.44    5.07
  -2   8 -15    2.06    1.65
  -2   8 -15    2.64    2.29
   8   2 -15    5.68    3.28
   8   2 -15    2.16    1.33
   2  -8  15    3.03    1.10
  -8  -2  15    6.65    4.78
  -1   8 -15   11.52    3.82
   8   1 -15   11.89    3.30
   8   1 -15   12.64    5.32
  -1   8 -15   13.69    4.45
   8   1  15    3.01    5.38
   1  -8  15   14.40    3.19
  -8  -1  15   15.22    6.43
  -8   0 -15   -1.09    3.05
   0   8 -15    1.96    2.02
   0   8 -15    0.49    1.51
   8   0 -15   -1.34    1.45
   0  -8  15    0.99    0.93
   8   0  15   -1.47    4.36
  -8   0  15   -2.30    4.27
   1   8 -15   17.17    4.75
  -8   1 -15    7.74    5.07
   1   8 -15   13.30    4.10
  -1  -8  15   18.34    3.65
   8  -1  15   14.73    6.92
   8  -1  15   14.19    4.68
  -8   2 -15    3.83    2.77
   2   8 -15    2.07    1.73
   2   8 -15    5.82    2.48
  -2  -8  15    4.78    1.37
   8  -2  15    1.10    5.82
   8  -2  15    1.23    2.41
   3   8 -15   15.31    5.40
  -8   3 -15   17.53    6.13
   3   8 -15   28.42    6.35
  -8   3 -15   19.69    7.35
  -3  -8  15   25.94    4.87
   8  -3  15   12.67    8.82
   8  -3  15   13.52    5.94
  -8   4 -15    3.14    4.70
   4   8 -15    0.08    2.50
   4   8 -15    2.07    1.60
  -8   4 -15    1.37    2.77
   8  -4  15    0.05    3.75
  -4  -8  15    3.22    1.23
   8  -4  15    3.27    2.67
   5   8 -15   19.49    4.70
  -8   5 -15   11.22    4.98
  -8   5 -15   11.35    5.77
   8  -5  15   10.04    6.39
   8  -5  15    6.75    4.82
   6   8 -15   -0.09    2.76
  -6  -8  15    0.07    2.88
   8   8 -15   -0.11    2.68
   8   8 -15    1.16    1.87
  -8  -8  15   -3.62    1.36
   9   8 -15    1.95    1.98
   9   8 -15    2.08    3.41
  -9  -8  15   -0.30    1.49
  -9  -8  15    0.75    3.91
   9   7 -15   -2.64    1.60
  -9  -7  15    0.09    1.28
   9   5 -15    1.90    1.55
   9   5 -15    2.59    3.72
  -9  -5  15   -6.40    4.25
  -9  -5  15    7.90    1.49
   9   4 -15   18.30    5.39
   9   4 -15   13.82    3.64
  -4   9 -15   10.51    4.69
  -9  -4  15    9.35    6.12
  -9  -4  15   19.69    3.65
  -3   9 -15    0.07    2.01
   9   3 -15   -1.53    3.41
   9   3 -15   -0.06    1.12
  -9  -3  15   -1.15    4.45
   9   2 -15   18.36    7.01
   9   2 -15   13.83    4.80
  -2   9 -15   18.11    6.23
  -9  -2  15   33.64    8.24
  -1   9 -15    0.22    2.11
   9   1 -15   -0.07    1.26
   9   1 -15    2.18    3.48
   1  -9  15   -0.23    0.95
  -9  -1  15   -0.50    4.75
   9   1  15    3.02    4.53
   9   0 -15    1.27    1.52
  -9   0 -15   -0.46    3.28
   0   9 -15    1.89    2.22
   0   9 -15    3.07    1.69
   9   0  15    4.58    2.80
   0  -9  15    2.60    1.05
  -9   0  15   -0.81    4.84
   9   0  15    3.87    5.14
   1   9 -15    0.54    2.08
  -9   1 -15   -0.93    2.88
   1   9 -15    0.57    1.71
   9  -1  15   -2.48    5.93
  -1  -9  15   -0.08    1.01
   9  -1  15   -3.93    2.51
   2   9 -15   22.30    5.27
   2   9 -15   17.07    5.96
  -9   2 -15   19.90    6.06
   9  -2  15   18.54    5.71
   9  -2  15    9.04    9.03
  -2  -9  15   19.41    4.65
   3   9 -15    0.25    2.28
   3   9 -15   -0.35    1.67
  -9   3 -15   -2.04    5.46
  -9   3 -15    1.02    2.74
   9  -3  15    1.94    5.28
  -3  -9  15   -0.80    1.08
   9  -3  15   -1.26    2.55
   4   9 -15   -0.12    3.06
   4   9 -15    9.41    4.08
  -9   4 -15   13.62    4.51
  -9   4 -15   21.26    6.32
   9  -4  15    7.89    5.52
   9  -4  15   16.57    4.23
  -9   5 -15    3.31    3.69
  -9   5 -15    1.58    5.28
   9  -5  15    0.07    5.39
   9  -5  15    2.43    3.62
   6   9 -15    1.88    1.82
   9  -6  15    2.72    6.26
  -6  -9  15   -0.81    1.24
   7   9 -15    5.98    2.90
   7   9 -15    1.70    2.03
  -7  -9  15    0.09    1.31
   8   9 -15    1.23    2.05
   8   9 -15    0.75    3.04
  -8  -9  15   -0.84    3.44
  -8  -9  15   -1.69    1.36
   9   9 -15   -2.14    2.26
   9   9 -15    0.11    3.37
  -9  -9  15   -0.96    1.48
  -9  -9  15   -2.78    3.71
  10   9 -15    0.25    3.65
  10   9 -15   -4.48    2.43
 -10  -9  15    2.66    4.10
 -10  -9  15   -6.65    1.61
  10   8 -15    0.12    3.55
  10   8 -15    2.98    2.30
 -10  -8  15    1.36    1.59
 -10  -8  15    0.28    4.35
  10   7 -15   -3.86    1.91
  10   7 -15   -7.93    3.73
 -10  -7  15   -0.37    4.40
 -10  -7  15    0.57    1.46
  10   6 -15   -0.10    1.61
 -10  -6  15    0.09    1.41
  10   4 -15    5.52    3.69
  10   4 -15    3.56    1.49
  -4  10 -15   -0.51    2.35
 -10  -4  15    3.84    4.75
 -10  -4  15    5.48    1.52
  -3  10 -15    6.20    4.73
  10   3 -15   14.19    5.69
  10   3 -15   16.70    3.65
 -10  -3  15   23.17    6.99
  -2  10 -15   -0.69    2.27
  10   2 -15    3.34    3.60
  10   2 -15    0.84    1.21
 -10  -2  15   -4.40    5.12
 -10  -1 -15    4.63    3.59
  10   1 -15   -1.36    1.32
  -1  10 -15    2.02    2.20
  10   1 -15    0.72    3.59
 -10  -1  15   -2.41    5.07
  10   1  15   -0.91    5.16
  10   0 -15    0.09    1.41
   0  10 -15   -1.59    2.17
 -10   0 -15    1.33    3.50
  10   0  15    0.56    2.95
 -10   0  15   -1.72    4.99
  10   0  15    2.70    5.94
   1  10 -15    0.41    2.30
 -10   1 -15    2.24    3.21
  10  -1  15    3.21    2.68
  10  -1  15   -4.30    6.48
 -10   2 -15    2.75    3.12
   2  10 -15   -0.84    2.35
  10  -2  15    2.32    6.46
  10  -2  15    3.39    2.65
  -2 -10  15   -0.09    0.90
 -10   3 -15    9.67    6.77
 -10   3 -15   13.77    4.72
  10  -3  15   11.15    7.02
  10  -3  15    8.22    4.40
   4  10 -15   -0.13    1.90
 -10   4 -15    1.47    3.71
 -10   4 -15   -1.80    6.27
  10  -4  15    6.75    4.76
  -4 -10  15   -0.09    1.29
  10  -4  15    0.89    3.30
 -10   5 -15    1.08    5.91
 -10   5 -15    0.11    4.41
   5  10 -15   13.03    2.99
  10  -5  15    7.34    4.28
  -5 -10  15    0.10    1.58
  10  -5  15    5.74    6.15
   6  10 -15   -3.27    2.10
   6  10 -15    0.80    2.79
  -6 -10  15    0.20    1.30
  10  -6  15  -17.48    7.12
  10  -6  15   -3.82    4.86
   7  10 -15    0.11    2.96
   7  10 -15   -1.77    2.29
  -7 -10  15   -1.75    1.19
   8  10 -15    0.15    2.15
   8  10 -15    0.11    3.14
  -8 -10  15    0.22    1.37
   9  10 -15    0.48    2.47
   9  10 -15    0.47    3.48
  -9 -10  15    0.11    1.60
  10  10 -15    0.99    3.48
  10  10 -15    2.02    2.58
 -10 -10  15   -1.24    4.00
 -10 -10  15    0.50    1.59
  11  10 -15   -2.39    3.77
  11  10 -15    1.60    2.75
 -11 -10  15   -6.73    4.82
 -11 -10  15    2.78    1.77
  11   9 -15    1.47    4.01
  11   9 -15    1.30    2.65
 -11  -9  15   11.04    4.72
 -11  -9  15    0.60    1.68
  11   8 -15   -0.27    4.02
  11   8 -15    0.14    2.15
 -11  -8  15   -3.28    4.59
 -11  -8  15    0.78    1.67
  11   7 -15    3.11    4.01
  11   7 -15   -4.05    2.03
 -11  -7  15    1.01    1.59
 -11  -7  15    7.66    4.86
  11   6 -15    8.57    4.09
  11   6 -15   -1.20    1.69
 -11  -6  15    3.13    4.92
 -11  -6  15    0.57    1.49
  11   5 -15   -0.09    1.54
 -11  -5  15    0.55    1.47
  11   3 -15   -0.07    1.11
  11   3 -15   -3.89    3.84
 -11  -3  15    1.64    5.46
  11   2 -15   -0.50    1.33
  11   2 -15   -1.41    3.79
 -11  -2  15    2.95    5.50
  11   1 -15   -0.47    1.40
 -11  -1 -15   10.80    4.15
  11   1 -15    2.69    4.01
  11   1  15   -1.03    3.35
 -11  -1  15    5.93    5.31
 -11   0 -15    5.63    4.63
 -11   1 -15    1.69    3.58
  11  -1  15   -0.90    2.94
  11  -1  15  -11.71    7.29
 -11   2 -15    0.41    3.64
  11  -2  15    2.64    6.98
  11  -2  15    1.77    3.03
 -11   3 -15    1.46    3.79
 -11   3 -15    0.75    6.84
  11  -3  15    1.08    6.18
  11  -3  15    0.52    3.26
 -11   4 -15   -0.61    6.94
 -11   4 -15   -0.34    4.18
 -11   5 -15   -1.47    4.83
 -11   5 -15    1.23    6.85
  11  -5  15  -14.01    7.37
 -11   6 -15    6.93    5.51
 -11   6 -15    8.90    6.28
  11  -6  15   -1.71    5.24
   8  11 -15   -2.10    3.27
   9  11 -15    0.12    3.46
  10  11 -15    1.16    3.68
  11  11 -15    2.44    3.83
 -11 -11  15   -0.10    5.22
  12  11 -15    0.14    4.15
 -12 -11  15    4.38    5.09
  12  10 -15    0.72    4.23
  12  10 -15    8.02    2.99
 -12 -10  15    1.70    2.04
 -12 -10  15    0.52    5.01
  12   9 -15   -5.61    2.65
  12   9 -15   -8.45    4.24
 -12  -9  15    0.13    1.72
 -12  -9  15    0.11    5.10
  12   8 -15  -10.27    4.51
  12   8 -15    1.19    2.56
 -12  -8  15  -11.39    5.34
 -12  -8  15   -3.80    1.92
  12   7 -15    3.12    2.13
  12   7 -15    0.15    4.27
 -12  -7  15   -0.88    1.60
 -12  -7  15    3.74    5.38
  12   6 -15    1.29    4.26
  12   6 -15   -4.07    1.77
 -12  -6  15    3.39    5.47
 -12  -6  15   -1.74    1.56
  12   5 -15   -1.63    1.57
  12   5 -15    1.52    4.06
 -12  -5  15   -3.01    5.42
 -12  -5  15    0.48    1.53
  12   4 -15   -3.89    1.54
 -12  -4  15    0.84    1.53
  12   2 -15   -0.15    3.95
 -12  -2  15   -4.69    6.02
  12   2  15    2.34    6.10
  12   1 -15   -0.16    4.61
  12   1  15   -1.88    6.97
 -12  -1  15   -5.47    6.24
  12   0 -15    6.12    2.09
  12   0  15    0.10    7.35
  12  -1 -15    2.58    2.00
  12  -5  15   -8.99    7.55
 -12   6 -15   -2.80    7.20
  12  -6  15  -16.91    9.16
  12  -7  15    1.91    8.66
  13  11 -15   15.70    6.78
 -13 -11  15   16.63    7.49
  13  10 -15    0.15    4.58
 -13 -10  15   -5.45    5.40
 -13 -10  15    4.07    2.05
  13   9 -15   10.67    4.76
  13   9 -15    9.93    3.21
 -13  -9  15    0.41    2.22
 -13  -9  15    4.85    5.80
  13   8 -15    4.18    2.65
  13   8 -15  -11.92    4.83
 -13  -8  15   -1.31    5.69
 -13  -8  15    0.13    1.77
  13   7 -15   -2.91    2.54
  13   7 -15   25.81    5.09
 -13  -7  15   -2.23    6.20
 -13  -7  15   -0.92    1.77
  13   6 -15    2.50    4.29
  13   6 -15   -1.04    1.96
 -13  -6  15    4.62    6.01
 -13  -6  15    0.53    1.67
  13   5 -15    2.75    4.18
  13   5 -15    0.79    1.67
 -13  -5  15   -3.13    5.91
 -13  -5  15    0.41    1.59
  13   4 -15    1.05    1.56
  13   4 -15    5.91    4.27
 -13  -4  15    0.20    1.60
 -13  -4  15    0.83    5.87
  13   3 -15   -0.15    3.32
  13   3 -15   -0.81    1.43
 -13  -3  15   -1.46    1.52
 -13  -2 -15    1.09    4.71
  13   2  15    2.71    6.67
 -13  -1 -15    1.02    4.89
  13   1  15    3.90    3.90
  13   1  15    0.10    7.27
 -13   0 -15    1.53    4.71
  13   0  15   -4.01    7.58
  13   0  15   -3.63    3.79
 -13   1 -15   -1.66    4.58
  13  -1  15    1.50    7.62
  13  -1  15    3.64    3.70
 -13   2 -15    5.43    4.62
 -13   2 -15    1.33    8.03
  13  -2  15   -8.69    3.84
  13  -2  15   -0.10    7.74
 -13   3 -15    5.77    8.46
 -13   3 -15    0.82    4.95
  13  -3  15    5.37    4.18
  13  -3  15    0.18    6.69
 -13   4 -15    1.03    8.67
 -13   4 -15    3.89    5.57
  13  -4  15    2.70    7.01
  13  -4  15    6.23    4.79
 -13   5 -15    9.55    8.56
 -13   5 -15    0.32    6.04
  13  -5  15   -0.90    8.73
  13  -5  15    2.87    5.37
 -13   6 -15   -7.86    8.15
 -13   6 -15   -5.66    6.69
  13  -6  15   -4.98    9.86
  13  -6  15    7.51    6.00
  13  -7  15  -22.56    6.64
  13  -7  15    1.82   10.01
  14  11 -15    0.82    4.72
 -14 -11  15    1.94    5.98
  14  10 -15   -3.40    4.87
 -14 -10  15   -9.59    5.94
 -14 -10  15   -0.16    2.11
  14   9 -15    3.25    4.76
  14   9 -15   -2.07    2.87
 -14  -9  15    1.87    1.94
 -14  -9  15   -2.52    6.01
  14   8 -15    1.68    2.69
  14   8 -15    2.77    4.87
 -14  -8  15   -2.45    6.11
 -14  -8  15   -1.86    1.90
  14   7 -15    0.16    4.55
  14   7 -15    0.15    2.49
 -14  -7  15    3.37    6.54
 -14  -7  15    0.13    1.85
 -14  -6  15   -9.69    6.35
 -14  -6  15    0.11    1.71
 -14  -5  15   -3.10    1.95
 -14  -2 -15   -3.15    5.23
  14   2  15   -2.88    7.48
 -14  -1 -15  -10.49    5.61
  14   1  15   -0.12    4.25
  14   1  15    2.02    7.77
 -14   0 -15    8.36    5.23
  14   0  15   -0.34    8.10
  14   0  15   -4.90    4.06
 -14   1 -15   -6.42    5.05
  14  -1  15    8.06    8.22
  14  -1  15    6.18    4.19
 -14   2 -15   -8.33    5.48
 -14   2 -15   -2.95    8.98
  14  -2  15   -2.32    7.56
  14  -2  15    2.35    4.29
 -14   3 -15    0.94    5.65
 -14   3 -15   -5.26    9.47
  14  -3  15    3.35    6.76
  14  -3  15    2.06    4.60
 -14   4 -15   11.62    6.86
 -14   4 -15   -6.81   10.22
  14  -4  15    6.22    5.97
 -14   5 -15   -0.29    9.62
  14  -5  15  -14.51    6.32
 -14   6 -15    8.85    9.05
 -14   6 -15    8.44    7.23
  14  -6  15    8.15   10.42
  14  -6  15   -6.57    6.58
 -14   7 -15   -0.20    7.86
 -14   7 -15   -4.78    8.23
  14  -7  15   -3.17    6.88
  14  -7  15  -12.62   10.29
 -15  -2 -15   15.37    6.60
  15   2  15   12.10    8.92
 -15  -1 -15  -12.46    6.10
  15   1  15   -0.65    4.68
  15   1  15    3.48    8.32
 -15   0 -15   14.99    6.60
  15   0  15    1.07    8.74
  15   0  15    6.91    5.15
 -15   1 -15   -5.80    9.08
 -15   1 -15  -11.39    5.93
  15  -1  15    8.01    4.63
  15  -1  15    5.86    8.10
 -15   2 -15   -4.58    6.19
 -15   2 -15  -14.63    9.43
  15  -2  15    3.56    4.75
  15  -2  15   -1.02    8.20
 -15   3 -15  -11.04   10.21
 -15   3 -15    2.51    6.36
  15  -3  15   -3.78    7.37
  15  -3  15    1.53    5.11
 -15   4 -15   -0.76    7.05
 -15   4 -15   17.67   10.68
  15  -4  15   10.95    5.77
  15  -4  15   -9.61    9.18
 -15   5 -15    0.20    7.64
 -15   5 -15  -12.71   10.04
  15  -5  15    1.42    6.18
  15  -5  15   -5.55   10.59
 -15   6 -15    0.21    8.15
 -15   6 -15    4.63    9.82
  15  -6  15   -6.27    7.14
  15  -6  15    2.17   11.57
 -15   7 -15    8.70    9.69
 -15   7 -15    2.43    8.77
  15  -7  15    2.80   11.79
  15  -7  15   -0.17    7.55
 -16  -2 -15    2.88    6.68
  16   2  15    1.97    8.78
 -16  -1 -15   15.35    7.14
  16   1  15   11.35    5.53
  16   1  15   -8.43    8.85
 -16   0 -15   -5.44    7.17
  16   0  15  -10.65    5.45
  16   0  15   -9.34    9.10
 -16   1 -15   -1.42    6.70
 -16   1 -15   -7.49   10.07
  16  -1  15   -4.85    9.20
  16  -1  15   15.07    5.38
 -16   2 -15   -4.59   10.86
 -16   2 -15   -4.23    7.00
  16  -2  15   -1.33    7.84
  16  -2  15   -7.87    5.49
 -16   3 -15    8.41   11.47
 -16   3 -15    5.73    7.29
  16  -3  15   -4.89    5.58
  16  -3  15    3.46    8.35
 -16   4 -15  -11.22    8.17
 -16   4 -15   -0.70   11.49
  16  -4  15    6.63    5.98
  16  -4  15  -12.48   10.74
 -16   5 -15  -30.31   10.88
 -16   5 -15  -12.20   12.74
 -16   6 -15  -25.32   10.14
 -16   6 -15   29.26   12.55
 -16   7 -15    5.24   10.41
 -16   7 -15    2.43    9.51
  16  -7  15   -1.87   12.88
  16  -7  15  -11.06    8.05
 -17  -1 -15   23.53   31.90
  17   1  15  166.86   32.77
  17   1  15   92.28   28.53
 -17   0 -15   70.28   57.06
  17   0  15  184.18   51.83
  17   0  15  291.30   58.97
 -17   1 -15   29.21   23.84
 -17   1 -15   26.98   26.12
  17  -1  15   60.13   22.52
 -17   2 -15  -11.17   12.74
 -17   3 -15  -28.80   13.36
 -17   3 -15    8.63    8.52
  17  -3  15  -11.50    6.48
 -17   4 -15   -1.94    8.83
 -17   4 -15    6.18   12.92
  17  -4  15    1.01   11.82
  17  -4  15   17.72    7.20
 -17   5 -15   20.52    9.86
 -17   5 -15    5.99   12.42
  17  -5  15    4.62    7.66
  17  -5  15    4.12   14.14
 -17   6 -15    9.18   10.19
 -17   6 -15    6.93   12.09
  17  -6  15  -11.03   14.96
  17  -6  15   12.34    8.26
 -17   7 -15   -7.48   11.76
 -17   7 -15    1.86   10.09
  17  -7  15    0.97    8.51
  17  -7  15    5.05   14.09
 -18  -2 -15    1.21    8.60
  18   2  15   11.94   10.58
 -18  -1 -15    9.12   11.88
 -18  -1 -15  -14.38    9.02
  18   1  15    8.38    6.56
  18   1  15   -0.14    9.87
 -18   0 -15  -18.43   11.98
 -18   0 -15   -9.91    8.97
  18   0  15    0.14    9.75
  18   0  15    0.53    6.54
 -18   1 -15   -8.20    8.86
 -18   1 -15    0.35   12.49
  18  -1  15    1.36    8.68
  18  -1  15   -7.63    6.62
 -18   2 -15    2.11    8.86
 -18   2 -15   -8.07   13.25
  18  -2  15    7.15    6.67
  18  -2  15   -0.99    8.80
 -18   3 -15    1.20   13.73
  18  -3  15   -8.17   11.19
  18  -3  15    7.52    6.96
 -18   4 -15    4.35    9.65
 -18   4 -15    5.90   13.54
  18  -4  15  -14.48   13.08
  18  -4  15   -4.85    7.34
 -18   5 -15   -1.33   13.65
 -18   5 -15   13.46   10.61
  18  -5  15   -0.67   14.44
  18  -5  15   -4.75    7.71
 -18   6 -15   -1.45   10.66
 -18   6 -15   11.34   13.65
  18  -6  15   -2.30    8.20
  18  -6  15  -17.32   16.08
 -18   7 -15   -2.92   11.27
 -18   7 -15    2.32   13.22
  18  -7  15   18.99    9.20
   0   1 -16   -1.13    2.34
   0   1 -16   -0.26    0.98
   0  -1  16    0.09    2.98
  -1   1 -16   28.00    8.17
   1   1 -16   21.72    8.16
   1   1 -16   22.79    6.78
  -1   1 -16   30.16    7.04
   1  -1  16   26.03    8.50
  -1  -1  16   28.49    8.61
   2   1 -16    1.07    2.64
  -1   2 -16   -0.74    2.44
  -1   2 -16    2.90    1.02
   2   1 -16    2.77    1.22
  -2  -1  16    0.55    3.32
   1  -2  16    3.62    3.00
   0   2 -16    4.62    1.36
   0   2 -16    3.62    2.66
   2   0 -16    2.11    1.53
   0  -2  16    4.56    3.30
   1   2 -16    2.73    2.55
   1   2 -16    1.99    1.04
  -2   1 -16    1.66    1.04
   2  -1  16    0.69    1.93
  -1  -2  16    0.81    3.10
   2  -1  16   -1.44    2.87
   2   2 -16    5.50    2.95
  -2   2 -16    8.08    1.74
   2   2 -16    3.17    1.70
  -2   2 -16    4.49    2.88
  -2  -2  16    3.61    3.55
   2  -2  16    7.96    3.45
   3   2 -16   25.81    4.85
   3   2 -16   11.83    6.26
  -2   3 -16   18.56    6.36
  -2   3 -16   21.32    5.12
   2  -3  16   16.93    6.58
  -3  -2  16   12.82    6.89
  -1   3 -16    1.73    2.33
   3   1 -16    0.56    1.10
  -1   3 -16    1.24    0.85
   3   1 -16    0.11    2.65
  -3  -1  16   -0.19    3.36
   1  -3  16    0.52    2.72
   0   3 -16   -0.61    0.87
   3   0 -16    0.78    1.17
   0   3 -16   -0.25    2.09
   0  -3  16    1.53    2.69
  -3   0  16   -2.84    3.39
   1   3 -16    1.37    0.94
  -3   1 -16    2.28    1.07
   1   3 -16    0.09    2.36
  -1  -3  16    2.37    2.75
  -3   2 -16   22.34    5.48
   2   3 -16   20.21    6.40
  -3   2 -16   17.19    6.57
   2   3 -16   19.46    5.12
  -2  -3  16   22.21    6.65
   3  -2  16   18.17    6.88
   3   3 -16    3.75    1.26
  -3   3 -16    2.54    2.53
   3   3 -16    2.26    2.57
  -3   3 -16    3.35    1.14
  -3  -3  16    3.16    2.98
   3  -3  16    4.44    3.02
   4   3 -16   -0.06    0.97
  -3   4 -16   -0.13    0.72
  -3   4 -16   -0.76    2.25
   4   3 -16   -1.98    2.53
   3  -4  16   -0.73    2.50
  -4  -3  16    1.62    3.10
   3  -4  16    0.43    0.65
  -2   4 -16   -0.38    2.22
   4   2 -16    1.03    2.56
  -2   4 -16   -0.04    0.73
  -4  -2  16    2.24    3.55
   2  -4  16    0.38    0.70
   2  -4  16   -0.46    2.53
   4   1 -16    8.54    4.44
  -1   4 -16   12.54    4.13
  -1   4 -16   13.36    3.20
  -4  -1  16   10.33    5.17
   1  -4  16   15.99    4.36
   0   4 -16    2.48    0.90
  -4   0 -16    1.00    1.27
   0   4 -16    2.34    2.25
   0  -4  16    0.42    2.64
  -4   0  16    1.97    3.50
   1   4 -16   10.78    3.77
   1   4 -16    7.64    2.71
  -4   1 -16    9.11    3.03
   4  -1  16    8.24    4.25
  -1  -4  16   14.51    3.97
   2   4 -16   -0.26    2.20
   2   4 -16    0.05    0.88
  -4   2 -16   -0.73    2.34
  -4   2 -16    0.26    0.77
   4  -2  16    1.63    2.92
  -2  -4  16   -1.22    2.68
   4  -2  16    8.50    3.86
  -4   3 -16    0.82    2.34
   3   4 -16   -0.05    0.87
   3   4 -16    1.51    2.36
  -4   3 -16    0.22    0.66
  -3  -4  16    0.27    2.80
   4  -3  16   -3.34    2.87
   4   4 -16    0.79    0.99
  -4   4 -16    1.72    2.29
   4   4 -16    3.69    2.69
  -4   4 -16    1.07    0.74
  -4  -4  16    1.22    3.05
   4  -4  16    1.97    2.58
   4  -4  16    0.51    0.67
   5   4 -16    3.77    2.77
  -4   5 -16    0.83    2.55
  -4   5 -16    1.01    1.01
  -5  -4  16    4.30    3.26
   4  -5  16    2.41    0.80
   4  -5  16    1.82    2.50
   5   3 -16   -0.69    2.78
   5   3 -16    0.66    1.04
  -3   5 -16   -0.24    0.82
  -3   5 -16    0.99    2.27
   3  -5  16    0.31    0.67
  -5  -3  16    1.23    3.24
   3  -5  16    1.70    2.43
   5   2 -16   31.70    5.77
   5   2 -16   25.14    7.35
  -2   5 -16   24.49    6.13
  -2   5 -16   21.03    7.41
   2  -5  16   24.06    7.27
   2  -5  16   19.46    5.78
  -5  -2  16   16.16    8.04
   5   1 -16   -0.83    2.94
  -1   5 -16    1.01    2.29
   5   1 -16    1.53    1.14
  -1   5 -16    0.16    0.86
  -5  -1  16   -0.84    3.66
   1  -5  16    0.26    0.75
   1  -5  16   -0.27    2.46
   5   0 -16   -0.34    1.16
   0   5 -16   -0.84    0.84
  -5   0 -16   -0.27    1.15
   0   5 -16    0.08    2.28
   0  -5  16   -0.16    0.82
  -5   0  16    0.92    3.58
   5   0  16    0.37    2.76
   0  -5  16    1.29    2.39
   1   5 -16    0.22    0.88
  -5   1 -16    1.50    0.94
   1   5 -16   -1.05    2.20
   5  -1  16    0.65    3.34
  -1  -5  16    0.58    0.84
  -1  -5  16    0.12    2.45
  -5   2 -16   12.62    6.87
   2   5 -16   19.24    6.69
   2   5 -16   23.76    5.40
  -5   2 -16   21.23    5.76
  -2  -5  16   21.99    6.82
   5  -2  16   22.29    8.54
  -2  -5  16   21.56    5.20
  -5   3 -16    1.97    2.37
   3   5 -16    0.79    2.51
   3   5 -16    0.53    1.00
  -5   3 -16    0.23    0.68
   5  -3  16    2.93    3.89
  -3  -5  16    0.77    0.97
  -3  -5  16    2.15    2.77
   5  -3  16    3.85    1.73
  -5   4 -16    4.59    2.37
   4   5 -16    0.85    1.11
  -5   4 -16    2.25    0.85
   4   5 -16    4.69    2.60
  -4  -5  16    1.14    1.05
  -4  -5  16    0.53    2.89
   5   5 -16    3.11    2.72
  -5  -5  16   -1.22    2.97
   6   5 -16    2.91    2.03
   6   5 -16    0.41    4.16
  -6  -5  16    2.08    4.82
  -6  -5  16    6.03    1.98
   6   4 -16    1.49    1.09
  -4   6 -16    1.74    1.19
   6   4 -16    2.33    2.89
  -4   6 -16    0.07    2.32
  -6  -4  16   -2.14    3.53
   4  -6  16    0.92    0.68
   4  -6  16    2.06    2.40
  -3   6 -16    5.48    3.58
   6   3 -16    6.89    3.89
   6   3 -16    9.31    2.34
  -3   6 -16    9.25    2.60
  -6  -3  16    8.01    4.50
   3  -6  16    6.64    3.58
   3  -6  16   10.11    2.27
   6   2 -16    4.65    3.30
   6   2 -16    3.56    1.51
  -2   6 -16    2.67    2.55
  -2   6 -16    3.82    1.50
   2  -6  16    2.82    1.19
   2  -6  16    6.44    2.64
  -6  -2  16    1.61    4.08
  -1   6 -16    8.24    2.33
  -1   6 -16    8.54    3.30
   6   1 -16    9.98    2.32
   6   1 -16    8.70    4.03
   1  -6  16    7.11    2.12
   1  -6  16    6.02    3.42
  -6  -1  16    6.34    4.86
   6   0 -16    4.68    1.75
   0   6 -16    4.10    1.52
   0   6 -16    5.01    2.58
   0  -6  16    4.68    2.75
   6   0  16    3.80    3.56
   0  -6  16    3.61    1.35
  -6   0  16    3.86    4.21
   1   6 -16    5.06    2.30
   1   6 -16    7.84    3.27
  -1  -6  16    7.33    2.12
  -1  -6  16   11.28    3.41
   6  -1  16    9.44    4.86
   2   6 -16    5.56    2.67
  -6   2 -16    5.45    2.62
   2   6 -16    5.30    1.63
  -2  -6  16    4.87    1.56
  -2  -6  16    5.03    2.96
   6  -2  16    4.65    2.38
   6  -2  16    4.38    5.12
   3   6 -16    7.74    2.50
  -6   3 -16    8.84    3.18
   3   6 -16    9.93    3.60
   6  -3  16    7.10    3.01
  -3  -6  16   12.32    3.76
   6  -3  16    4.22    5.37
  -3  -6  16    9.06    2.34
   4   6 -16   -2.86    2.62
   4   6 -16   -0.28    1.22
  -4  -6  16   -1.10    2.80
  -4  -6  16    1.10    1.02
   5   6 -16   35.26    7.08
  -5  -6  16   24.04    7.26
   6   6 -16    3.57    1.69
   6   6 -16    3.85    3.16
  -6  -6  16    5.31    1.45
  -6  -6  16    1.70    3.46
   7   6 -16    2.06    3.42
   7   6 -16    2.22    1.64
  -7  -6  16    8.68    1.63
  -7  -6  16    2.02    3.69
   7   5 -16    2.09    3.32
   7   5 -16    2.76    1.33
  -7  -5  16   -0.08    3.72
  -7  -5  16   -0.46    1.25
  -4   7 -16    9.51    3.17
   7   4 -16    6.88    2.10
   7   4 -16    3.66    3.73
  -4   7 -16    6.92    2.40
   4  -7  16    7.99    3.30
   4  -7  16    9.05    1.93
  -7  -4  16    3.74    4.41
  -3   7 -16    7.19    3.72
  -3   7 -16   10.46    3.00
   7   3 -16    8.89    2.60
   7   3 -16    9.80    4.26
  -7  -3  16   17.34    5.39
   3  -7  16    7.83    2.52
   3  -7  16   11.10    3.83
   7   2 -16   14.13    4.98
  -2   7 -16    9.45    3.65
  -2   7 -16    9.88    4.37
   7   2 -16   11.67    3.25
   2  -7  16   18.10    4.53
   2  -7  16   10.55    3.18
  -7  -2  16   13.47    5.94
   7   1 -16    7.84    3.90
  -1   7 -16    3.73    2.85
  -1   7 -16    8.71    2.23
   7   1 -16    5.21    1.98
   1  -7  16    7.10    3.03
  -7  -1  16    7.19    4.85
   1  -7  16    5.96    1.77
   0   7 -16   -0.48    1.32
   7   0 -16   -0.44    1.35
   0   7 -16   -0.53    2.14
   0  -7  16    0.06    0.82
  -7   0  16    1.27    4.34
   7   0  16    1.35    3.84
   0  -7  16   -0.16    2.34
   1   7 -16    4.99    2.05
   1   7 -16    5.69    2.91
  -7   1 -16    4.29    3.23
  -1  -7  16    5.57    1.72
  -1  -7  16    8.58    3.08
   7  -1  16    4.30    5.10
   7  -1  16    7.31    2.94
   2   7 -16   17.70    4.36
   2   7 -16   13.04    3.42
  -7   2 -16   11.10    4.41
  -2  -7  16   14.04    3.19
   7  -2  16    7.10    7.01
  -2  -7  16   12.69    4.56
   7  -2  16    8.77    4.01
   3   7 -16   10.21    3.83
  -7   3 -16   12.53    3.45
   3   7 -16    8.41    2.83
  -3  -7  16   14.81    4.19
   7  -3  16    6.93    3.30
   7  -3  16   -2.46    5.96
  -3  -7  16    9.16    2.56
   4   7 -16    1.14    1.96
   4   7 -16    1.79    3.03
  -4  -7  16    7.96    1.56
  -4  -7  16    1.19    3.15
   7  -4  16   -3.76    4.19
   7  -4  16    8.86    2.54
   5   7 -16    1.60    2.80
  -5  -7  16    2.70    3.14
   6   7 -16   -0.10    3.16
   6   7 -16    8.26    1.64
  -6  -7  16    1.57    3.44
  -6  -7  16   -0.08    1.32
   8   7 -16    0.82    1.64
  -8  -7  16   -0.09    1.20
   8   5 -16    2.51    1.32
   8   5 -16    0.12    3.33
  -8  -5  16    0.09    4.00
  -8  -5  16    0.73    1.27
   8   4 -16    0.11    3.65
  -4   8 -16    6.78    2.84
   8   4 -16    6.91    1.72
   4  -8  16    4.58    1.51
  -8  -4  16   -0.76    4.48
   8   3 -16    4.60    1.51
  -3   8 -16    2.23    2.46
   8   3 -16    3.43    3.48
  -3   8 -16    4.96    1.81
  -8  -3  16    1.37    4.43
   3  -8  16    3.32    1.22
   8   2 -16    9.14    4.97
  -2   8 -16   16.09    3.68
  -2   8 -16    9.02    4.27
   8   2 -16   12.12    3.18
   2  -8  16   11.30    3.09
  -8  -2  16   12.11    6.19
  -1   8 -16    1.10    1.47
  -1   8 -16   -0.23    2.26
   8   1 -16    2.47    1.38
   8   1 -16    0.69    3.50
  -8  -1  16    0.13    4.69
   8   1  16   -1.90    3.96
   1  -8  16    1.00    0.90
   0   8 -16    3.31    2.30
   0   8 -16    2.44    1.72
   8   0 -16    0.90    1.63
  -8   0  16    1.21    4.74
   0  -8  16    2.35    1.06
   8   0  16    1.93    4.39
   1   8 -16    0.51    1.63
   1   8 -16    0.81    2.23
  -8   1 -16    0.49    2.90
   8  -1  16    0.39    2.53
  -1  -8  16    1.56    1.02
   8  -1  16   -5.37    5.27
   2   8 -16    7.70    4.15
  -8   2 -16    6.90    4.18
   2   8 -16   16.91    3.48
   8  -2  16   12.27    3.89
  -2  -8  16   14.50    2.97
   8  -2  16    4.60    6.98
   3   8 -16    1.81    1.91
  -8   3 -16    3.73    2.59
   3   8 -16    3.00    2.68
  -8   3 -16    3.25    4.91
   8  -3  16   10.97    5.56
  -3  -8  16    2.63    1.35
   8  -3  16    3.32    2.35
   4   8 -16    5.35    2.91
  -8   4 -16    5.14    5.09
   4   8 -16    7.60    2.14
  -8   4 -16    4.98    2.94
  -4  -8  16    1.66    3.25
   8  -4  16    2.51    2.81
   8  -4  16    3.84    4.17
  -4  -8  16    7.99    1.73
   5   8 -16   -0.75    2.81
  -5  -8  16   -1.27    2.97
   7   8 -16   -0.23    1.95
   7   8 -16   -0.11    2.54
  -7  -8  16    0.27    1.32
   8   8 -16   -4.03    2.05
   8   8 -16    0.34    3.37
  -8  -8  16    0.08    3.80
  -8  -8  16    0.10    1.43
   9   8 -16    5.12    2.42
   9   8 -16    4.57    3.76
  -9  -8  16    2.31    1.69
  -9  -8  16    3.79    4.36
   9   7 -16   -3.74    3.84
   9   7 -16   -1.18    1.87
  -9  -7  16    4.94    4.16
  -9  -7  16    0.09    1.40
   9   6 -16   -0.09    1.44
  -9  -6  16    0.09    1.27
  -4   9 -16    0.08    2.54
   9   4 -16    5.76    3.69
   9   4 -16    4.04    1.53
  -9  -4  16    1.88    4.68
  -9  -4  16    6.32    1.50
   9   3 -16    7.37    5.60
   9   3 -16   17.32    3.59
  -3   9 -16   16.38    5.02
  -9  -3  16    5.01    6.74
   9   2 -16    2.56    3.60
  -2   9 -16    2.52    2.27
   9   2 -16    2.41    1.39
   2  -9  16    0.15    1.07
  -9  -2  16    2.99    5.04
   9   1 -16    1.16    3.55
  -1   9 -16    1.63    1.68
   9   1 -16    1.27    1.45
  -1   9 -16   -0.08    2.40
   1  -9  16    2.31    1.08
   9   1  16    4.32    4.52
  -9  -1  16    1.46    4.81
   0   9 -16    3.20    2.37
   9   0 -16   -0.81    1.64
   0   9 -16   -0.71    1.63
  -9   0 -16   -0.84    3.25
   9   0  16   -5.55    5.65
  -9   0  16   -3.85    5.00
   0  -9  16   -0.23    1.03
  -9   1 -16    0.30    2.97
   1   9 -16    2.24    1.81
   1   9 -16    4.24    2.43
   9  -1  16    1.60    6.04
   9  -1  16    2.43    2.64
  -1  -9  16    0.63    1.09
   2   9 -16    0.17    2.50
  -9   2 -16    1.72    2.73
   2   9 -16    2.04    1.94
  -2  -9  16    2.67    1.08
   9  -2  16    5.88    6.80
   9  -2  16    2.90    2.50
  -9   3 -16   20.53    6.67
  -9   3 -16   16.25    4.83
   3   9 -16   11.04    4.79
   9  -3  16   10.52    7.38
   9  -3  16   11.89    4.48
  -9   4 -16   -1.44    5.55
  -9   4 -16   -0.08    2.99
   9  -4  16   -2.37    4.29
   9  -4  16    1.69    2.75
  -5  -9  16    0.81    1.30
   6   9 -16   -3.46    2.85
   6   9 -16    3.27    2.16
  -6  -9  16   -0.09    1.24
   7   9 -16   -1.60    3.05
   7   9 -16    1.23    2.13
  -7  -9  16    1.47    1.49
  -7  -9  16    3.06    3.40
   8   9 -16    3.99    3.37
   8   9 -16    0.14    2.27
  -8  -9  16    0.31    1.58
  -8  -9  16    6.27    3.83
   9   9 -16    0.12    3.62
   9   9 -16    2.68    2.48
  -9  -9  16    0.22    1.67
  -9  -9  16    0.52    3.84
  10   9 -16    0.94    2.60
  10   9 -16    1.34    3.92
 -10  -9  16   -7.05    4.39
 -10  -9  16    0.12    1.67
  10   8 -16    0.13    4.01
  10   8 -16    0.67    2.21
 -10  -8  16    0.11    1.47
 -10  -8  16    0.39    4.31
  10   7 -16    0.11    1.95
  10   7 -16    1.21    3.83
 -10  -7  16    1.57    1.51
 -10  -7  16    1.92    4.66
  10   6 -16   -6.20    4.40
  10   6 -16   -5.65    1.82
 -10  -6  16  -11.16    5.44
 -10  -6  16   -4.78    1.60
  10   5 -16   -0.08    1.42
 -10  -5  16   -2.44    1.51
  -3  10 -16    0.48    2.45
  10   3 -16    1.62    3.80
 -10  -3  16    2.87    5.31
  10   2 -16    2.24    1.41
  10   2 -16   -0.14    3.88
  -2  10 -16    1.97    2.44
 -10  -2  16    0.27    5.33
  -1  10 -16    1.42    2.52
  10   1 -16   -1.52    3.82
  10   1 -16    0.16    1.37
 -10  -1  16    0.85    5.20
  10   1  16    9.57    5.29
 -10   0 -16   -1.02    3.70
   0  10 -16   -0.34    2.41
  10   0 -16    1.37    1.63
  10   0  16   -2.72    5.98
  10   0  16   -3.12    3.07
 -10   1 -16    0.55    3.43
   1  10 -16   -3.25    2.56
  -1 -10  16   -0.09    0.89
  10  -1  16   -6.49    6.42
  10  -1  16    2.45    2.72
 -10   2 -16    4.10    3.65
  10  -2  16    6.01    3.00
  10  -2  16   13.15    6.83
 -10   3 -16    0.72    3.16
   3  10 -16   -0.14    1.72
 -10   3 -16   -5.05    6.14
  10  -3  16    2.69    6.08
  -3 -10  16   -0.09    1.21
  10  -3  16   -0.62    2.72
   4  10 -16    6.42    2.51
 -10   4 -16    7.52    6.50
   4  10 -16    8.73    3.21
 -10   4 -16    4.29    3.78
  -4 -10  16    1.51    1.95
  10  -4  16    6.24    5.66
  10  -4  16   10.45    3.58
   5  10 -16   -1.72    2.20
   5  10 -16    0.51    2.82
  10  -5  16  -17.41    6.30
  10  -5  16   -2.73    3.85
  -5 -10  16    0.10    1.24
   6  10 -16    0.11    3.03
   6  10 -16   -0.15    2.20
   7  10 -16   -3.54    2.39
   7  10 -16   -3.34    3.13
  -7 -10  16    0.11    1.42
   8  10 -16    0.16    2.50
   8  10 -16    0.23    3.35
  -8 -10  16    1.35    1.55
   9  10 -16    0.12    3.53
   9  10 -16    0.67    2.55
  -9 -10  16    1.23    3.88
  -9 -10  16    0.71    1.65
  10  10 -16   -3.83    3.90
  10  10 -16    0.18    2.74
 -10 -10  16   -4.56    4.64
 -10 -10  16   -6.04    1.90
  11  10 -16    1.29    4.30
  11  10 -16   -1.84    2.79
 -11 -10  16   -1.44    4.95
 -11 -10  16    0.13    1.87
  11   9 -16    0.14    4.09
  11   9 -16    1.64    2.71
 -11  -9  16    0.12    1.80
 -11  -9  16   -2.82    4.94
  11   8 -16   -0.29    4.38
  11   8 -16    0.14    2.14
 -11  -8  16   -0.53    4.77
 -11  -8  16    0.12    1.54
  11   7 -16    6.01    2.16
  11   7 -16   -3.18    4.20
 -11  -7  16   -0.21    1.71
 -11  -7  16    6.10    5.24
  11   6 -16   -0.14    4.13
  11   6 -16   -0.90    1.77
 -11  -6  16    3.08    1.54
 -11  -6  16    6.86    5.33
  11   5 -16   -2.03    1.66
  11   5 -16    5.41    4.11
 -11  -5  16    9.26    5.47
 -11  -5  16   -1.15    1.57
  11   4 -16    0.08    1.40
 -11  -4  16    0.56    1.50
  11   1 -16    3.99    5.53
 -11  -1  16    0.60    6.96
 -11   0 -16   -2.02    4.22
  11   0 -16    9.32    2.02
  11   0  16   -0.26    3.57
 -11   2 -16    2.51    3.61
  11  -2  16    0.57    7.29
  11  -2  16   -6.19    3.14
 -11   3 -16   -2.48    7.12
 -11   3 -16    7.91    4.22
  11  -3  16  -15.65    7.38
   4  11 -16   -0.10    2.85
 -11   4 -16   -3.12    7.24
 -11   4 -16   -3.99    4.19
 -11   5 -16    1.65    4.67
 -11   5 -16    2.69    6.88
   5  11 -16   -0.75    3.06
  -5 -11  16    0.34    1.44
  11  -5  16    6.25    4.34
   6  11 -16   -0.11    3.10
   7  11 -16   -0.12    3.27
  -7 -11  16    0.12    1.39
   8  11 -16    0.12    3.54
  -8 -11  16   -4.38    1.80
   9  11 -16    3.99    3.67
  -9 -11  16    1.49    1.93
  10  11 -16    0.14    3.80
 -10 -11  16    5.56    4.39
 -10 -11  16    0.14    1.87
  11  11 -16    0.14    3.95
 -11 -11  16   -4.44    4.89
 -11 -11  16    0.15    1.88
  12  11 -16    1.56    4.31
 -12 -11  16    0.22    5.23
  12  10 -16    1.08    4.59
  12  10 -16    5.58    3.16
 -12 -10  16    0.14    2.06
 -12 -10  16   16.93    5.64
  12   9 -16   -7.07    2.87
  12   9 -16    0.30    4.50
 -12  -9  16    1.45    1.83
 -12  -9  16    0.34    5.30
  12   8 -16    2.34    2.72
 -12  -8  16   -0.47    5.77
 -12  -8  16   -0.12    1.88
  12   7 -16   -1.83    2.27
  12   7 -16    8.18    4.62
 -12  -7  16   -6.58    5.78
 -12  -7  16    0.22    1.64
  12   6 -16    0.22    1.93
  12   6 -16    0.30    4.18
 -12  -6  16    1.36    1.49
 -12  -6  16    2.78    5.82
  12   5 -16   -9.52    4.32
  12   5 -16   -0.86    1.66
 -12  -5  16    1.81    5.73
 -12  -5  16    0.51    1.65
  12   4 -16    4.48    1.63
  12   4 -16   -1.18    4.27
 -12  -4  16    1.92    5.98
 -12  -4  16    0.59    1.63
  12   3 -16   28.35    4.41
  12   3 -16    1.63    1.97
 -12  -3  16    0.68    2.06
  12   2 -16   -0.08    1.40
  12   2  16   -0.99    6.32
 -12  -1 -16   -8.35    4.81
  12   1  16   -4.14    6.73
 -12   0 -16   35.76    9.78
  12   0  16   34.68    8.61
  12   0  16    0.39   11.85
  12  -1  16    0.10    7.88
  12  -2  16    4.33    7.72
  12  -3  16    8.25    7.46
  12  -4  16    0.95    6.49
 -12   5 -16   -0.47    7.68
  12  -5  16   -2.91    7.42
  13  11 -16    4.31    5.30
 -13 -11  16   10.03    6.27
  13  10 -16   -4.66    3.25
  13  10 -16    0.16    4.87
 -13 -10  16   -8.18    2.36
 -13 -10  16   -7.21    6.06
  13   9 -16    1.64    4.94
  13   9 -16   -6.28    2.98
 -13  -9  16    0.12    5.90
 -13  -9  16   -5.15    1.99
  13   8 -16    2.60    2.67
  13   8 -16   -1.15    4.88
 -13  -8  16   -9.31    5.92
 -13  -8  16   -1.81    1.91
  13   7 -16    3.88    4.70
  13   7 -16   -4.23    2.37
 -13  -7  16    2.54    1.68
 -13  -7  16    0.66    6.17
  13   6 -16   14.85    5.68
  13   6 -16   30.53    9.39
 -13  -6  16    6.63    5.41
  13   5 -16    0.32    1.84
  13   5 -16   10.13    4.73
 -13  -5  16    5.91    6.55
 -13  -5  16    0.85    1.60
  13   4 -16    1.58    1.70
  13   4 -16    4.19    4.67
 -13  -4  16    3.41    1.69
 -13  -4  16    0.15    6.45
  13   3 -16   -6.13    1.50
  13   3 -16    7.77    4.63
 -13  -3  16    4.78    6.50
 -13  -3  16    0.82    1.52
  13   2 -16   -7.69    4.39
  13   2 -16    0.16    1.42
  13   2  16   -6.14    6.82
 -13  -2  16   -7.09    6.26
 -13  -1 -16    3.14    4.78
  13   1 -16   -1.20    1.53
  13   1  16    3.20    7.40
  13   1  16    0.77    3.99
 -13   0 -16   -7.60    4.85
  13   0 -16    1.51    1.70
  13   0  16   -1.05    7.42
  13   0  16    2.73    3.89
 -13   1 -16   -1.86    4.71
  13  -1  16   -4.26    7.85
  13  -1  16    7.86    3.89
 -13   2 -16    6.47    4.77
 -13   2 -16   -3.77    8.12
  13  -2  16    5.18    7.55
  13  -2  16    5.49    3.90
 -13   3 -16   -0.14    4.81
 -13   3 -16   -0.73    8.45
  13  -3  16   -3.00    4.01
  13  -3  16    1.65    6.73
 -13   4 -16    4.45    8.96
 -13   4 -16    0.14    5.23
  13  -4  16    9.30    7.15
  13  -4  16   -0.72    4.61
 -13   5 -16   -8.51    5.72
 -13   5 -16   -6.09    8.56
  13  -5  16   -0.34    4.94
  13  -5  16   -7.72    8.18
  13  -6  16   49.14   13.25
  14  11 -16   -6.11    5.57
 -14 -11  16  -10.01    6.38
  14  10 -16    7.99    5.26
 -14 -10  16    3.61    2.28
 -14 -10  16   -1.17    6.23
  14   9 -16  -13.74    5.33
  14   9 -16    4.62    3.43
 -14  -9  16    1.19    2.38
  14   8 -16   -3.66    2.88
  14   8 -16   -2.58    5.08
 -14  -8  16  -14.03    6.66
 -14  -8  16    4.82    1.99
  14   7 -16    0.99    4.90
  14   7 -16   -4.21    2.55
 -14  -7  16    1.58    6.82
 -14  -7  16    4.80    1.86
  14   6 -16   -9.54    4.93
  14   6 -16   -6.69    2.29
 -14  -6  16    5.70    6.76
 -14  -6  16    0.82    1.73
  14   5 -16   -2.88    4.53
  14   5 -16    5.85    1.99
 -14  -5  16   -2.14    6.92
 -14  -5  16    0.34    1.71
 -14  -4  16   -0.87    1.76
 -14  -3  16   15.03    6.96
  14   2  16   -4.32    7.56
 -14  -1 -16   -7.59    5.71
  14   1  16   -6.23    4.67
  14   1  16   -4.03    8.03
 -14   0 -16   -2.88    5.36
  14   0  16   -1.12    8.37
  14   0  16   -0.34    4.17
 -14   1 -16   -7.61    5.54
  14  -1  16  -10.02    8.65
  14  -1  16   -6.12    4.61
 -14   2 -16    0.99    8.91
 -14   2 -16   -0.31    5.37
 -14   3 -16   34.05   12.73
 -14   4 -16   -1.14    6.17
 -14   4 -16  -10.32   10.15
  14  -4  16  -13.12    5.18
 -14   5 -16    9.99    9.52
 -14   5 -16   14.65    6.67
  14  -5  16  -10.71    9.93
  14  -5  16   -3.03    5.63
 -14   6 -16   10.96    7.16
  14  -6  16  -12.28    6.08
  14  -6  16   -5.09   10.60
  15   2  16   -2.06    8.37
 -15  -1 -16    6.10    6.24
  15   1  16   -0.92    4.90
  15   1  16    7.05    8.62
 -15   0 -16   -7.47    6.12
  15   0  16    3.36    4.67
  15   0  16   -1.42    8.33
 -15   1 -16   -3.31    6.08
 -15   1 -16   11.27    9.40
  15  -1  16   11.81    5.04
  15  -1  16    1.09    8.77
 -15   2 -16    0.18    5.84
 -15   2 -16   11.65    9.62
  15  -2  16   -7.72    8.09
  15  -2  16    1.74    4.65
 -15   3 -16    5.85    6.32
 -15   3 -16    2.46   10.82
  15  -3  16    2.45    7.31
  15  -3  16    0.93    5.09
 -15   4 -16   12.83    7.32
 -15   4 -16    0.95   10.64
  15  -4  16    1.98    9.79
  15  -4  16    9.62    5.91
 -15   5 -16    1.60    7.41
 -15   5 -16    4.61   10.47
  15  -5  16    2.27    5.98
  15  -5  16   10.37   11.03
 -15   6 -16    1.00   10.34
 -15   6 -16    8.33    8.29
  15  -6  16   16.40   12.18
  15  -6  16    1.97    6.92
 -16  -2 -16  -13.78    6.84
  16   2  16  -13.62    9.06
 -16  -1 -16   -7.06    6.76
  16   1  16    2.49    5.18
  16   1  16  -16.01    9.14
 -16   0 -16    8.21    6.90
  16   0  16   -5.72    5.17
  16   0  16  -13.85    9.46
 -16   1 -16   23.47   10.31
 -16   1 -16    6.08    6.82
  16  -1  16    5.41    5.59
  16  -1  16    8.30    9.00
 -16   2 -16    1.65    7.06
 -16   2 -16   13.13   11.03
  16  -2  16    6.99    7.82
  16  -2  16   -3.13    5.31
 -16   3 -16    7.89    7.18
 -16   3 -16  -17.55   11.84
  16  -3  16    0.13    5.61
  16  -3  16    7.57    8.67
 -16   4 -16  -25.91   14.41
 -16   5 -16   93.11   19.78
  16  -5  16    8.40   22.85
 -16   6 -16   -3.02    8.68
 -16   6 -16   -4.48   11.29
  16  -6  16  -15.53   13.30
  16  -6  16   -0.48    7.12
 -17  -2 -16    8.90    7.24
  17   2  16   -9.51    9.66
 -17  -1 -16    7.16    7.74
  17   1  16   -8.15    5.98
  17   1  16    5.65    9.33
 -17   0 -16   -0.26    7.88
 -17   0 -16   11.99   10.66
  17   0  16   -1.25    5.66
  17   0  16   -9.04    9.91
 -17   1 -16   -3.11    7.77
 -17   1 -16    6.12   10.98
  17  -1  16    0.91    5.91
  17  -1  16   -1.38    8.89
 -17   2 -16   -6.83    7.91
 -17   2 -16   12.87   12.28
  17  -2  16   -2.49    5.78
  17  -2  16    5.34    7.90
 -17   3 -16    2.60   12.69
 -17   3 -16  -11.06    8.33
  17  -3  16    6.02    9.28
  17  -3  16   -0.15    6.17
 -17   4 -16  -13.56    8.76
 -17   4 -16    8.52   12.96
  17  -4  16  -25.43   12.11
  17  -4  16    2.70    6.58
 -17   5 -16   -1.49    9.16
 -17   5 -16    8.84   12.67
  17  -5  16   -0.21   14.19
  17  -5  16  -16.22    7.26
 -17   6 -16    0.78    9.65
 -17   6 -16    5.35   12.41
  17  -6  16    4.37    7.59
  17  -6  16   -5.43   14.65
  17  -7  16    6.69   14.41
 -18  -2 -16   -0.61    8.85
  18   2  16   26.67   10.80
 -18  -1 -16   -9.61    8.84
 -18  -1 -16   -6.96   11.68
  18   1  16    3.67   10.22
  18   1  16   -2.56    6.87
 -18   0 -16   23.99   11.89
 -18   0 -16   -8.87    8.98
  18   0  16    2.46    6.55
  18   0  16   -5.94    9.92
 -18   1 -16  -11.79    9.24
 -18   1 -16    2.07   12.33
  18  -1  16   -9.55    8.75
  18  -1  16   -6.32    6.75
 -18   2 -16  -11.08   12.87
 -18   2 -16    8.62    8.80
  18  -2  16    0.12    8.46
  18  -2  16   -5.62    6.83
 -18   3 -16  -36.44   14.14
 -18   3 -16    1.07    9.42
  18  -3  16  -13.83   11.44
  18  -3  16    4.29    6.93
 -18   4 -16  -12.63   13.83
 -18   4 -16    0.27    9.62
  18  -4  16  -17.02   13.60
  18  -4  16   -2.33    7.04
 -18   5 -16  -15.58   13.96
 -18   5 -16    7.19   10.06
  18  -5  16   -0.17    7.40
  18  -5  16    6.51   14.63
 -18   6 -16   -2.74   13.25
 -18   6 -16  -13.19   10.71
  18  -6  16   -2.55    7.89
  18  -6  16   -9.92   16.01
   0   1 -17   61.53   14.74
   0   1 -17   45.69   16.99
   0  -1  17   59.72   17.53
   1   1 -17    0.80    1.17
   1   1 -17    1.47    2.74
  -1   1 -17    0.14    1.04
   1  -1  17   -0.46    3.17
  -1  -1  17    1.35    3.36
  -1   2 -17   -0.10    2.52
   2   1 -17    0.37    1.19
  -1   2 -17    1.12    1.00
   2   1 -17   -1.27    2.63
   1  -2  17   -2.03    3.19
  -2  -1  17   -1.79    3.40
   0   2 -17   -0.41    2.58
   0   2 -17   -0.80    1.03
   0  -2  17    1.21    3.31
   1   2 -17    0.06    1.08
  -2   1 -17    0.27    1.15
   1   2 -17   -0.52    2.71
  -1  -2  17    1.06    3.31
   2   2 -17    0.06    1.00
  -2   2 -17    0.56    0.92
   2   2 -17    0.63    2.64
  -2   2 -17    0.10    2.72
   2  -2  17   -1.25    3.22
  -2  -2  17    0.64    3.30
   3   2 -17   16.09    3.64
  -2   3 -17   15.09    3.76
   3   2 -17   11.47    4.96
  -2   3 -17   10.46    4.83
   2  -3  17   16.15    5.24
  -3  -2  17   12.82    5.53
   3   1 -17    3.69    3.33
  -1   3 -17    9.68    3.20
  -1   3 -17    5.82    1.78
   3   1 -17    7.02    1.91
  -3  -1  17    1.13    3.96
   1  -3  17    5.32    3.52
   0   3 -17    6.29    3.13
   0   3 -17    5.78    1.86
   0  -3  17    6.95    3.50
   1   3 -17    4.51    3.07
  -3   1 -17    6.36    1.93
   1   3 -17    5.67    1.76
  -1  -3  17    5.18    3.45
   2   3 -17   12.96    4.61
  -3   2 -17   13.61    4.75
   2   3 -17   13.82    3.41
  -3   2 -17   12.50    3.63
   3  -2  17   11.65    5.03
  -2  -3  17    9.96    5.06
   3   3 -17   -0.55    0.99
  -3   3 -17   -0.85    0.83
  -3   3 -17    0.83    2.59
   3   3 -17    0.20    2.57
  -3  -3  17    0.41    3.28
   3  -3  17    0.96    2.98
  -3   4 -17    6.61    2.13
   4   3 -17    8.15    2.16
  -3   4 -17    7.67    3.42
   4   3 -17    8.42    3.58
  -4  -3  17    3.60    4.17
   3  -4  17    4.63    3.65
   3  -4  17    9.88    2.01
  -2   4 -17   28.50    8.57
   4   2 -17   24.29    8.52
   4   2 -17   30.04    6.75
  -2   4 -17   24.97    7.14
   2  -4  17   35.06    8.64
  -4  -2  17   18.38    9.16
  -1   4 -17    6.26    1.67
   4   1 -17    6.75    3.41
  -1   4 -17    5.34    2.97
  -4  -1  17    2.47    4.14
   1  -4  17    4.43    3.23
   0   4 -17    0.41    0.88
   0   4 -17    0.79    2.56
   0  -4  17    0.27    2.78
  -4   0  17   -0.12    3.90
   1   4 -17    4.89    2.89
   1   4 -17    4.82    1.62
  -4   1 -17    4.43    1.79
  -1  -4  17    7.02    3.25
   4  -1  17    5.54    3.43
   2   4 -17   24.73    8.13
  -4   2 -17   25.54    7.23
   2   4 -17   27.84    6.70
  -2  -4  17   29.46    8.46
   4  -2  17   23.03    8.64
   3   4 -17    7.36    2.09
   3   4 -17    3.87    3.43
  -4   3 -17   11.30    3.56
  -4   3 -17    7.38    2.09
   4  -3  17    6.49    3.82
  -3  -4  17    6.25    3.78
   4   4 -17    0.10    2.79
  -4   4 -17   -0.04    0.75
  -4   4 -17   -1.34    2.56
   4   4 -17    0.42    1.05
   4  -4  17   -0.38    0.69
   4  -4  17   -3.00    2.86
  -4  -4  17   -0.32    3.30
  -4   5 -17    1.33    0.94
   5   4 -17    0.21    2.98
  -4   5 -17    1.23    2.55
  -5  -4  17   -2.09    3.59
   4  -5  17    1.86    0.73
   4  -5  17    0.06    2.78
  -3   5 -17   17.97    4.36
  -3   5 -17   14.01    5.70
   5   3 -17   21.79    5.62
   3  -5  17   15.85    5.65
  -5  -3  17    8.24    6.11
   3  -5  17   15.25    4.01
  -2   5 -17    2.64    2.69
  -2   5 -17    2.66    1.14
   5   2 -17    2.86    1.34
   5   2 -17    0.12    3.14
   2  -5  17    3.28    1.01
   2  -5  17    0.77    2.78
  -5  -2  17    1.66    4.09
  -1   5 -17   11.93    4.48
   5   1 -17   14.16    4.76
   5   1 -17   11.06    3.22
  -1   5 -17   14.16    3.26
   1  -5  17   10.96    3.09
   1  -5  17   16.14    4.50
  -5  -1  17    5.51    5.54
   5   0 -17   -0.72    1.44
  -5   0 -17    0.51    1.21
   0   5 -17    0.09    2.46
   0   5 -17   -0.61    0.91
   0  -5  17   -0.35    0.90
  -5   0  17   -0.85    3.96
   0  -5  17   -0.37    2.64
   5   0  17   -0.51    2.80
   1   5 -17    9.58    2.96
   1   5 -17    9.64    4.14
  -5   1 -17    9.80    3.24
  -1  -5  17   15.67    2.81
   5  -1  17    3.49    4.99
  -1  -5  17   12.08    4.21
  -5   2 -17    2.75    1.01
   2   5 -17    1.51    1.15
   2   5 -17    3.23    2.76
   5  -2  17   -0.85    4.43
  -2  -5  17    3.92    2.91
  -2  -5  17    2.22    1.12
   3   5 -17   17.73    4.47
   3   5 -17   25.42    5.75
  -3  -5  17   18.53    5.81
  -3  -5  17   11.72    4.31
   4   5 -17    0.91    1.17
   4   5 -17   -0.10    2.96
  -4  -5  17   -0.57    1.06
  -4  -5  17   -1.17    3.17
  -5  -5  17   28.56   10.06
   6   5 -17   -1.20    1.25
   6   5 -17    0.11    3.30
  -6  -5  17   -1.40    1.26
  -6  -5  17   -3.44    3.72
  -4   6 -17    4.89    3.00
   6   4 -17    3.45    1.71
  -4   6 -17    8.54    1.80
   6   4 -17   -7.16    4.07
   4  -6  17    6.76    1.50
   4  -6  17    6.81    3.08
   6   3 -17   -1.92    3.60
  -3   6 -17   -1.89    2.62
   6   3 -17   -1.40    1.23
  -3   6 -17    0.46    1.20
   3  -6  17    0.25    0.82
   3  -6  17   -0.27    2.59
  -6  -3  17   -5.41    4.55
  -2   6 -17   20.76    4.62
   6   2 -17   20.58    6.08
   6   2 -17   15.55    4.26
  -2   6 -17   14.53    5.78
   2  -6  17   16.37    4.23
  -6  -2  17   16.08    6.83
   2  -6  17   13.35    5.76
  -1   6 -17   -0.45    1.04
  -1   6 -17    0.58    2.38
   6   1 -17   -0.13    3.35
   6   1 -17   -0.64    1.26
   1  -6  17    0.06    0.78
  -6  -1  17    0.59    4.29
   1  -6  17   -0.99    2.62
   0   6 -17   -0.70    1.05
   0   6 -17    0.25    2.30
   6   0 -17    1.38    1.36
   0  -6  17    4.37    2.72
  -6   0  17   -0.51    4.05
   6   0  17    1.71    3.43
   0  -6  17    0.84    0.95
   1   6 -17   -0.40    1.09
   1   6 -17   -1.82    2.49
  -1  -6  17    2.78    2.70
   6  -1  17    0.72    4.06
  -1  -6  17   -0.64    0.94
  -6   2 -17    7.65    5.49
   2   6 -17   17.02    5.38
   2   6 -17   22.58    4.26
  -2  -6  17   18.57    5.61
   6  -2  17   14.54    5.04
  -2  -6  17   14.99    3.99
   6  -2  17    7.98    7.70
   3   6 -17  -10.81    3.40
   3   6 -17   -3.45    1.51
   4   6 -17    1.65    1.64
  -4  -6  17   -1.90    1.55
   5   6 -17   -2.67    3.22
  -5  -6  17   -1.44    3.42
   6   6 -17    3.48    1.43
   6   6 -17    0.11    3.47
  -6  -6  17    1.77    1.29
  -6  -6  17    3.61    3.71
   7   5 -17    2.55    3.45
   7   5 -17    4.33    1.55
  -7  -5  17   -3.65    4.24
  -7  -5  17    6.70    1.51
  -4   7 -17    1.02    1.41
  -4   7 -17    1.04    2.63
   7   4 -17    4.14    3.37
   7   4 -17    0.90    1.17
   4  -7  17    0.76    0.78
   4  -7  17   -0.58    2.66
  -7  -4  17   -3.07    3.98
   7   3 -17   19.95    6.36
   7   3 -17   13.36    4.41
  -3   7 -17   14.35    6.16
  -3   7 -17   22.05    5.12
   3  -7  17   24.29    6.17
  -7  -3  17    2.10    7.16
   3  -7  17   19.84    4.40
   7   2 -17    0.13    3.51
   7   2 -17    0.15    1.30
  -2   7 -17    1.14    2.48
  -2   7 -17   -0.08    1.36
  -7  -2  17    0.23    4.55
   2  -7  17    1.07    0.88
   2  -7  17    0.62    2.68
  -1   7 -17    4.14    3.12
   7   1 -17    3.46    2.14
   7   1 -17    8.79    4.19
  -1   7 -17    6.57    2.20
   1  -7  17    9.21    3.39
  -7  -1  17    6.13    4.98
   1  -7  17    7.00    1.82
   0   7 -17    3.99    1.72
   7   0 -17   -0.09    1.78
   0   7 -17    2.70    2.88
   7   0  17   16.69    4.46
   0  -7  17   10.36    3.10
   0  -7  17    1.14    1.30
  -7   0  17    4.71    4.84
   1   7 -17    3.80    3.31
  -7   1 -17    0.97    3.33
   1   7 -17    9.74    2.31
  -1  -7  17    6.91    1.94
   7  -1  17   12.47    5.37
  -1  -7  17    7.80    3.56
   2   7 -17   -4.97    2.76
   2   7 -17    0.08    1.47
  -7   2 -17   -1.27    2.48
   7  -2  17    1.16    5.55
   7  -2  17   -0.11    2.29
  -2  -7  17   -0.07    0.99
   3   7 -17   18.85    5.72
   3   7 -17   24.91    4.51
   7  -3  17   11.65    7.93
  -3  -7  17   19.00    4.24
   7  -3  17   12.81    5.07
  -3  -7  17    8.11    5.95
   4   7 -17    1.03    1.60
   4   7 -17    3.77    2.83
  -4  -7  17    0.98    1.21
  -4  -7  17    3.69    3.20
   5   7 -17   -4.87    2.94
  -5  -7  17   -0.08    1.01
  -5  -7  17   -4.12    3.37
   7   7 -17   -1.55    1.45
  -7  -7  17   -0.70    1.31
   8   7 -17   -0.12    3.77
   8   7 -17    2.12    1.73
  -8  -7  17   -1.35    3.96
  -8  -7  17    0.09    1.43
   8   6 -17    1.76    1.52
  -8  -6  17    0.09    1.27
  -4   8 -17    2.31    2.53
   8   4 -17    0.37    3.40
  -4   8 -17    0.60    1.59
   8   4 -17    5.12    1.39
  -8  -4  17   -0.82    4.46
   8   3 -17    2.42    1.38
  -3   8 -17    2.00    2.58
   8   3 -17   -0.13    3.61
  -3   8 -17    1.24    1.77
   3  -8  17    3.72    2.79
  -8  -3  17    3.61    4.67
   3  -8  17    3.17    1.16
   8   2 -17    5.86    1.82
  -2   8 -17    4.37    2.13
  -2   8 -17    5.28    2.86
   8   2 -17    0.68    3.87
   2  -8  17    6.50    3.09
  -8  -2  17    5.22    5.24
   2  -8  17    5.44    1.55
  -1   8 -17   -0.17    2.44
   8   1 -17   -5.56    3.58
   8   1 -17    0.25    1.43
  -1   8 -17    1.14    1.67
   8   1  17    2.59    3.84
  -8  -1  17    1.46    4.73
   1  -8  17    0.35    2.71
   1  -8  17    0.28    0.97
   8   0 -17    0.19    1.60
   0   8 -17    1.18    2.51
   0   8 -17    2.48    1.68
   0  -8  17    0.57    1.04
   8   0  17   -5.10    4.50
  -8   0  17    2.42    4.82
   0  -8  17    3.77    2.74
   1   8 -17    1.60    1.71
   1   8 -17    0.43    2.49
  -8   1 -17    1.56    2.98
   8  -1  17    2.22    2.60
  -1  -8  17    4.85    2.86
   8  -1  17    3.74    5.43
  -1  -8  17    0.73    1.13
   2   8 -17    5.68    2.00
   2   8 -17    0.45    2.81
  -8   2 -17    5.50    3.05
  -2  -8  17    5.86    1.47
   8  -2  17    4.22    2.62
  -2  -8  17   -2.02    3.08
   8  -2  17    4.35    6.05
   3   8 -17    5.00    1.98
   3   8 -17    3.04    2.95
  -8   3 -17    3.99    5.24
  -8   3 -17    2.51    2.74
  -3  -8  17    0.65    3.11
   8  -3  17    0.70    5.56
   8  -3  17    4.94    2.41
  -3  -8  17    6.48    1.51
   4   8 -17    0.10    2.70
  -4  -8  17    1.25    3.17
   6   8 -17   -0.11    2.55
   6   8 -17   -0.67    1.74
   7   8 -17    1.39    1.94
   7   8 -17   -7.73    3.47
  -7  -8  17   -5.31    3.64
  -7  -8  17    0.09    1.34
   8   8 -17    0.12    2.00
   8   8 -17   -3.79    3.64
  -8  -8  17   -1.85    1.45
  -8  -8  17   -0.36    4.09
   9   8 -17    3.02    3.83
   9   8 -17    0.13    2.08
  -9  -8  17   -1.75    4.30
  -9  -8  17    0.10    1.51
   9   7 -17    1.69    1.75
   9   7 -17    1.74    3.95
  -9  -7  17    1.68    4.54
  -9  -7  17    0.10    1.41
   9   6 -17   -2.75    1.74
   9   6 -17  -10.26    4.23
  -9  -6  17    0.46    1.64
  -9  -6  17  -15.26    5.38
   9   5 -17    0.16    1.50
  -9  -5  17   -4.41    1.50
  -3   9 -17    4.12    2.62
   9   3 -17    1.50    3.81
  -9  -3  17   -2.96    5.26
   3  -9  17    1.68    1.11
  -2   9 -17    0.43    2.61
   9   2 -17    4.83    1.49
  -2   9 -17    4.02    1.94
   9   2 -17    2.89    3.88
   2  -9  17    0.08    1.10
  -9  -2  17    4.91    5.43
   9   1 -17    0.77    3.80
  -1   9 -17    0.60    1.76
  -1   9 -17   -0.78    2.51
   9   1 -17   -0.68    1.43
  -9  -1  17   -0.98    5.23
   1  -9  17    1.55    0.97
   9   1  17    1.03    4.66
   0   9 -17   -0.53    2.68
   9   0 -17    1.45    1.64
   0   9 -17    0.97    1.95
   0  -9  17    0.16    1.03
   9   0  17    4.46    5.28
   1   9 -17    1.72    1.83
   1   9 -17    0.18    2.66
  -9   1 -17    1.22    3.23
   9  -1  17   -1.22    2.68
  -1  -9  17    0.25    1.08
   9  -1  17   -9.62    5.84
  -9   2 -17    3.28    3.02
   2   9 -17    5.27    2.75
   9  -2  17    0.61    2.51
   9  -2  17    0.73    6.18
  -9   3 -17    1.06    5.63
  -9   3 -17    2.50    2.99
   9  -3  17    5.19    6.06
   9  -3  17    6.78    2.68
   4   9 -17    7.98    2.52
  -4  -9  17    4.37    1.94
   5   9 -17   -2.25    2.77
   5   9 -17    3.34    1.96
  -5  -9  17    3.82    3.30
  -5  -9  17   -0.09    1.38
   6   9 -17    0.11    3.23
  -6  -9  17   -5.38    3.67
   7   9 -17    0.23    3.33
   7   9 -17    0.83    2.16
  -7  -9  17   -0.08    3.75
  -7  -9  17   -0.10    1.53
   8   9 -17    0.12    3.57
   8   9 -17   -0.14    2.37
  -8  -9  17   -0.44    3.98
  -8  -9  17    0.54    1.49
   9   9 -17    0.15    2.45
   9   9 -17    0.13    3.99
  -9  -9  17   -2.03    1.65
  -9  -9  17    1.69    4.35
  10   9 -17    2.44    2.69
  10   9 -17    0.14    4.01
 -10  -9  17    2.17    1.78
 -10  -9  17   -2.78    4.64
  10   8 -17    0.14    4.23
  10   8 -17   -0.14    2.33
 -10  -8  17    0.11    1.60
 -10  -8  17    6.35    4.72
  10   7 -17    0.29    4.33
  10   7 -17    0.12    2.02
 -10  -7  17    4.03    1.60
 -10  -7  17    0.32    4.90
  10   6 -17   -0.61    1.64
  10   6 -17    1.42    4.11
 -10  -6  17    0.67    5.27
 -10  -6  17    0.29    1.52
  10   5 -17  -13.12    4.45
  10   5 -17   -1.63    1.47
 -10  -5  17   -2.75    1.66
 -10  -5  17  -10.23    5.81
  10   4 -17    0.08    1.38
 -10  -4  17   -4.39    1.52
  -3  10 -17    5.14    3.17
  -2  10 -17    1.42    2.60
  -1  10 -17    1.36    2.68
  10   1 -17   -1.29    4.18
  10   1  17   -1.68    5.36
 -10  -1  17   -4.16    5.62
   0  10 -17    0.92    2.64
 -10   0 -17   -0.79    3.54
   0 -10  17   -0.09    0.89
  10   0  17   -0.66    5.84
 -10   1 -17   -1.65    3.40
  10  -1  17  -10.97    6.51
  10  -1  17    1.19    2.83
 -10   2 -17    0.20    3.13
   2  10 -17   -0.14    1.93
  10  -2  17    2.44    7.02
  10  -2  17    1.44    2.82
  -2 -10  17   -0.09    1.28
   3  10 -17   15.73    3.38
   3  10 -17    2.56    2.67
 -10   3 -17    8.90    6.57
 -10   3 -17    2.83    3.56
  10  -3  17   12.64    7.16
  -3 -10  17    4.38    2.00
  10  -3  17    3.78    3.11
   4  10 -17   -1.43    2.19
   4  10 -17   -2.81    2.94
  -4 -10  17    1.58    1.35
   5  10 -17    0.64    2.98
   5  10 -17   -2.51    2.27
  -5 -10  17   -0.10    1.50
   6  10 -17   -0.11    3.12
   7  10 -17    0.12    3.34
   7  10 -17    2.05    2.55
  -7 -10  17    0.11    1.42
  -7 -10  17    1.58    3.73
   8  10 -17    0.12    3.63
   8  10 -17   -2.30    2.65
  -8 -10  17    0.61    3.99
  -8 -10  17   -2.43    1.67
   9  10 -17    0.13    3.76
   9  10 -17    0.17    2.62
  -9 -10  17   -0.12    1.73
  -9 -10  17   -2.73    4.30
  10  10 -17   -3.24    2.92
  10  10 -17    3.71    4.10
 -10 -10  17   -2.19    1.68
 -10 -10  17   -2.04    4.67
  11  10 -17    0.38    2.96
  11  10 -17    2.60    4.39
 -11 -10  17   -5.94    2.00
 -11 -10  17   -2.99    5.14
  11   9 -17    1.88    2.79
  11   9 -17   -0.15    4.45
 -11  -9  17    2.80    5.23
 -11  -9  17    0.13    1.71
  11   8 -17    0.15    2.43
  11   8 -17    1.98    4.57
 -11  -8  17   -4.58    5.41
 -11  -8  17    0.12    1.69
  11   7 -17    0.31    4.35
  11   7 -17    0.12    2.05
 -11  -7  17    0.43    1.63
 -11  -7  17    1.43    5.35
  11   6 -17   -0.11    1.83
  11   6 -17    3.12    4.38
 -11  -6  17    0.31    1.71
 -11  -6  17    0.99    5.57
  11   5 -17    0.09    1.59
  11   5 -17    2.06    4.27
 -11  -5  17    3.01    1.64
 -11  -5  17   -4.58    5.62
  11   4 -17   -2.08    4.48
  11   4 -17    3.59    1.65
 -11  -4  17   -2.44    5.89
 -11  -4  17   -0.20    1.54
  11   3 -17   37.36    8.96
 -11  -3  17   38.92    9.87
  11   2 -17   -1.81    1.59
   1  11 -17   18.15    6.37
 -11   1 -17    7.28    6.95
  11  -1  17   27.86    6.28
 -11   2 -17   -1.09    3.76
   2  11 -17   -1.75    2.97
 -11   3 -17   13.54    7.33
   3  11 -17    0.21    3.70
 -11   3 -17    1.56    4.21
  11  -3  17   34.70    7.13
  11  -3  17    1.20    3.72
   4  11 -17   -0.11    3.14
 -11   4 -17   -0.94    3.87
 -11   4 -17   13.74    7.55
  11  -4  17    2.60    3.45
   5  11 -17    1.47    3.14
  -5 -11  17   -1.60    1.30
   6  11 -17    0.59    3.30
   7  11 -17   -2.58    3.51
   7  11 -17   -3.48    2.54
  -7 -11  17    0.12    1.62
   8  11 -17    0.13    3.65
   8  11 -17    0.18    2.66
  -8 -11  17   -1.42    1.71
   9  11 -17    0.19    2.78
   9  11 -17    0.13    3.78
  -9 -11  17    4.01    4.22
  -9 -11  17    0.14    1.72
  10  11 -17   -6.59    4.14
 -10 -11  17   -0.10    4.73
 -10 -11  17    0.14    1.92
  11  11 -17    0.16    4.38
 -11 -11  17   -0.15    1.99
 -11 -11  17    3.89    5.09
  12  11 -17   -5.13    5.24
 -12 -11  17    1.33    2.57
 -12 -11  17   19.52    6.07
  12  10 -17   -0.33    4.70
  12  10 -17    2.40    3.22
 -12 -10  17    0.12    5.57
 -12 -10  17    0.15    2.00
  12   9 -17    0.33    4.81
  12   9 -17    1.25    2.86
 -12  -9  17    0.14    1.89
 -12  -9  17    3.68    5.82
  12   8 -17    6.73    4.80
  12   8 -17    0.31    2.45
 -12  -8  17    6.76    5.83
 -12  -8  17    0.12    1.84
  12   7 -17   -5.51    5.81
  12   7 -17    9.03    3.05
 -12  -7  17    7.38    2.58
  12   6 -17    2.20    2.04
  12   6 -17    5.49    4.62
 -12  -6  17   -0.11    1.60
 -12  -6  17   -4.30    6.15
  12   5 -17    8.24    4.48
  12   5 -17    2.13    1.82
 -12  -5  17   -0.85    1.69
 -12  -5  17    5.00    6.32
  12   4 -17    0.79    4.33
  12   4 -17    2.22    1.60
 -12  -4  17   -1.04    1.53
 -12  -4  17    1.16    6.19
  12   3 -17    0.08    1.46
  12   3 -17   -4.70    4.34
 -12  -3  17    0.93    6.53
  12   2 -17    2.12    1.57
  12   2 -17   -2.02    4.43
 -12  -2  17    1.43    6.45
  12   1 -17    4.27    4.34
  12   1 -17   16.79    7.57
 -12  -1  17   44.96    9.28
  12   1  17    8.76    8.58
 -12   0 -17    3.20    4.41
  12   0 -17   -1.81    1.85
  12   0  17   -2.13    3.54
  12   0  17    2.00    7.09
 -12   1 -17   30.72    7.66
  12  -1  17   11.54   10.37
 -12   2 -17    5.85    7.64
  12  -2  17    4.64    7.64
 -12   3 -17    6.46    7.88
  12  -3  17    8.70    6.98
 -12   4 -17   -8.52    8.35
  12  -4  17    0.52    6.37
  13  11 -17   12.65    5.37
 -13 -11  17   -8.40    6.05
 -13 -11  17    0.18    2.22
  13  10 -17   29.28    5.13
  13  10 -17   41.72    7.15
 -13 -10  17   -1.79    7.70
 -13 -10  17    0.78    4.11
  13   9 -17   -0.18    5.12
  13   9 -17    1.50    2.94
 -13  -9  17    0.79    6.14
 -13  -9  17    0.29    2.04
  13   8 -17    4.59    2.80
  13   8 -17   10.79    5.34
 -13  -8  17   -9.87    6.38
 -13  -8  17    0.54    1.92
  13   7 -17   -3.29    2.44
  13   7 -17   -0.17    4.85
 -13  -7  17   -1.47    1.87
 -13  -7  17   -7.38    6.70
  13   6 -17   -1.69    2.06
  13   6 -17    0.16    4.59
 -13  -6  17    0.12    1.77
 -13  -6  17   -0.73    6.50
  13   5 -17   51.15   13.78
  13   5 -17   21.44   10.47
 -13  -5  17   90.33   16.00
  13   4 -17    1.04    1.70
  13   4 -17   -0.17    4.61
 -13  -4  17   -7.44    7.16
 -13  -4  17   -0.54    1.73
  13   3 -17   -0.09    1.58
  13   3 -17   -3.05    4.51
 -13  -3  17   -1.96    6.86
 -13  -3  17   -1.51    1.76
  13   2 -17    0.09    1.67
  13   2 -17   -7.46    4.63
 -13  -2  17    2.16    6.35
  13   1 -17    1.01    1.73
 -13  -1 -17   -6.55    4.76
  13   1  17    3.82    7.27
 -13  -1  17   -9.09    6.52
 -13   0 -17   -6.19    5.09
  13   0 -17    0.10    1.89
  13   0  17    1.06    3.88
  13   0  17    6.17    7.90
 -13   1 -17    1.97    4.92
  13  -1  17    0.85    3.72
  13  -1  17   19.18    8.28
 -13   2 -17    6.91    8.37
 -13   2 -17    8.30    4.86
  13  -2  17    4.46    8.25
  13  -2  17   10.78    4.23
 -13   3 -17    4.16    8.75
 -13   3 -17   -5.16    4.84
  13  -3  17  -11.45    6.88
  13  -3  17    0.27    3.84
 -13   4 -17   -0.83    4.95
 -13   4 -17    3.44    9.05
  13  -4  17  -14.55    4.52
  13  -4  17  -17.37    7.52
  13  -5  17  189.30   40.75
  14  11 -17   -8.48    5.57
 -14 -11  17   -1.91    6.54
  14  10 -17    1.10    3.29
  14  10 -17    0.74    5.46
 -14 -10  17   -1.18    2.26
 -14 -10  17    1.12    6.60
  14   9 -17   -7.00    3.30
  14   9 -17   -5.36    5.66
 -14  -9  17  -20.08    6.98
 -14  -9  17    0.15    2.29
  14   8 -17  -13.02    6.18
  14   8 -17  -14.48    3.50
 -14  -8  17   -8.62    2.66
  14   7 -17   -5.24    5.28
  14   7 -17    6.08    2.51
 -14  -7  17  -10.22    7.36
 -14  -7  17   -0.26    1.83
  14   6 -17    0.53    2.26
  14   6 -17   -3.61    4.92
 -14  -6  17    0.15    6.96
 -14  -6  17    1.84    1.87
  14   5 -17   -0.92    1.94
  14   5 -17   -3.09    4.96
 -14  -5  17   -0.12    1.70
 -14  -5  17  -11.55    7.43
  14   4 -17   -0.17    4.83
  14   4 -17   -3.26    1.82
 -14  -4  17    0.91    1.82
 -14  -4  17    1.86    7.37
  14   3 -17   -4.54    5.06
 -14  -3  17  -17.91    7.32
 -14  -3  17    0.45    1.90
  14   2  17    0.11    7.68
 -14  -1 -17   -0.19    5.68
  14   1  17   -2.01    7.95
 -14   0 -17    3.64    5.60
  14   0  17   -3.03    4.68
  14   0  17   14.42    8.87
 -14   1 -17   -2.55    5.86
  14  -1  17  -16.00    4.73
  14  -1  17  -11.14    9.37
 -14   2 -17   -7.84    9.09
 -14   2 -17   -4.72    5.39
 -14   3 -17   -1.09    5.42
 -14   3 -17    1.89    9.58
  14  -3  17   -5.31    7.28
  14  -3  17   -2.15    4.45
 -14   4 -17    9.34    5.62
 -14   4 -17   12.68   10.12
  14  -4  17   -8.65    4.78
  14  -4  17    1.30    7.61
  14  -5  17    4.73    5.24
  14  -5  17    2.77   10.18
 -15 -10  17    1.25    2.35
  15   2  17    8.86    8.53
 -15  -1 -17   -8.57    6.15
  15   1  17   -5.96    8.25
 -15   0 -17    0.81    6.71
  15   0  17    7.65    5.45
  15   0  17   21.50    9.33
 -15   1 -17    2.75    8.98
 -15   1 -17    0.19    6.43
  15  -1  17    8.44    8.92
  15  -1  17   10.69    4.96
 -15   2 -17    0.72    5.74
 -15   2 -17    7.86    9.72
  15  -2  17   -3.07    8.14
  15  -2  17   -2.01    4.67
 -15   3 -17    1.60    6.20
 -15   3 -17   13.60   10.61
  15  -3  17   -9.59    4.96
  15  -3  17    1.22    7.37
 -15   4 -17   -2.17    6.78
 -15   4 -17  -13.46   11.02
  15  -4  17  -15.86    9.63
  15  -4  17   -4.39    5.36
 -15   5 -17   11.94   10.96
 -15   5 -17    8.97    7.25
  15  -5  17    0.16   10.91
  15  -5  17    5.58    6.05
 -16  -1 -17   -0.24    6.75
  16   1  17   10.77    9.16
 -16   0 -17    0.23    6.78
  16   0  17    1.74    5.46
  16   0  17   -1.54    9.18
 -16   1 -17   -1.92    9.98
 -16   1 -17   -9.18    6.92
  16  -1  17   -6.28    5.25
  16  -1  17    4.56    9.00
 -16   2 -17   -3.66   11.12
 -16   3 -17    9.45   45.61
 -16   3 -17  173.71   49.03
 -16   5 -17   -0.22    7.96
 -16   5 -17   11.83   12.13
  16  -5  17  -15.66   12.19
  16  -5  17   -7.09    6.41
  17   2  17    3.22    9.79
 -17  -1 -17   -5.38    7.66
  17   1  17    5.50    9.37
 -17   0 -17    2.34    8.31
 -17   0 -17    6.83   10.56
  17   0  17    2.55    9.72
  17   0  17   10.55    6.41
 -17   1 -17   11.26   11.14
 -17   1 -17    0.25    8.02
  17  -1  17   -1.80    5.80
  17  -1  17  -10.23    9.01
 -17   2 -17    8.02   11.68
 -17   2 -17  -17.63    8.20
  17  -2  17    5.07    6.14
  17  -2  17   -8.23    8.84
 -17   3 -17    9.64   12.58
 -17   3 -17   -5.13    8.10
  17  -3  17    0.78    9.22
  17  -3  17    1.20    6.30
 -17   4 -17   11.73    8.43
 -17   4 -17  -16.30   13.21
  17  -4  17   -2.86   12.12
  17  -4  17   -7.86    6.31
 -17   5 -17   14.25    8.69
 -17   5 -17    2.83   12.86
  17  -5  17   -3.94   13.57
  17  -5  17   -2.83    6.70
 -18  -1 -17   13.99    8.65
  18   1  17   -5.20   10.08
 -18   0 -17    0.89    9.11
 -18   0 -17   16.64   11.65
  18   0  17   -8.58    6.62
  18   0  17    1.65    9.82
 -18   1 -17   -2.06   12.31
 -18   1 -17   -0.86    8.90
  18  -1  17    0.18    6.82
  18  -1  17   -1.82    8.42
 -18   2 -17    5.81    9.05
 -18   2 -17   -7.22   13.48
  18  -2  17    0.50    6.73
  18  -2  17  -12.56    8.81
 -18   3 -17  -13.09    9.48
 -18   3 -17  -30.33   14.20
  18  -3  17   -4.01    6.83
  18  -3  17    9.16   11.27
 -18   4 -17    2.99   13.69
 -18   4 -17    6.65    9.18
  18  -4  17   15.34   12.50
  18  -4  17   -7.72    7.14
 -18   5 -17    0.89   14.05
 -18   5 -17  -11.11   10.02
  18  -5  17    4.72   15.19
  18  -5  17   -3.86    6.99
  18  -6  17    0.25   12.41
   0   1 -18    2.61    1.33
   0   1 -18   -0.86    3.01
   0  -1  18    3.05    3.44
   1   1 -18   18.31    6.40
   1   1 -18   13.93    5.11
  -1   1 -18   20.63    5.29
  -1  -1  18   20.46    6.90
   1  -1  18   25.41    6.71
   2   1 -18   -3.38    2.98
   2   1 -18   -0.64    1.18
  -1   2 -18    1.12    2.89
  -1   2 -18    0.19    1.07
  -2  -1  18    0.75    3.65
   1  -2  18   -1.93    3.36
   0   2 -18    2.99    1.39
   0   2 -18    1.91    2.90
   0  -2  18    7.97    3.71
   1   2 -18   -0.79    2.82
  -2   1 -18   -0.58    1.21
   1   2 -18    0.68    1.15
  -1  -2  18   -3.64    3.73
   2   2 -18    4.24    1.60
   2   2 -18    5.53    3.28
  -2   2 -18    4.61    1.68
  -2   2 -18    5.32    3.17
  -2  -2  18    5.72    3.97
   2  -2  18    5.70    3.63
   3   2 -18    1.21    1.21
  -2   3 -18    0.27    0.98
  -2   3 -18    3.27    2.94
   3   2 -18    0.12    3.02
   2  -3  18    0.74    3.40
  -3  -2  18    1.53    3.85
   3   1 -18   18.66    5.56
  -1   3 -18   15.31    4.25
   3   1 -18   18.08    4.18
  -1   3 -18   14.03    5.49
   1  -3  18   18.51    5.92
  -3  -1  18   12.92    6.12
   0   3 -18   -0.36    1.01
   0   3 -18    0.51    2.70
   0  -3  18    0.67    3.48
   1   3 -18   13.51    3.80
  -3   1 -18   12.86    4.15
   1   3 -18   14.11    5.11
  -1  -3  18   15.36    5.47
   2   3 -18    1.41    1.12
  -3   2 -18   -0.78    2.95
   2   3 -18    3.17    2.94
  -3   2 -18   -0.34    1.01
  -2  -3  18    2.28    3.43
   3  -2  18   -0.27    3.47
  -3   3 -18   15.02    7.04
  -3   3 -18   22.58    5.64
   3   3 -18   16.65    5.31
   3   3 -18   32.50    6.84
   3  -3  18   20.29    7.32
  -3  -3  18   20.33    7.26
   4   3 -18   21.95    6.12
  -3   4 -18   22.83    6.51
   4   3 -18   34.05    7.80
  -3   4 -18   20.14    8.00
   3  -4  18   28.90    8.08
  -4  -3  18   21.70    8.27
  -2   4 -18   27.31   11.47
   4   2 -18   47.10    8.88
  -2   4 -18   36.10    9.55
   4   2 -18   36.91   11.24
   2  -4  18   32.91   11.47
  -4  -2  18   26.90   12.02
   4   1 -18   18.67    5.20
  -1   4 -18    9.74    4.99
   4   1 -18    8.48    3.63
  -1   4 -18   15.88    3.71
  -4  -1  18   16.86    5.78
   1  -4  18   17.16    5.18
   0   4 -18   11.33    3.94
   0   4 -18   16.73    5.09
   0  -4  18   19.09    5.43
  -4   1 -18   11.72    4.04
   1   4 -18   13.52    3.67
   1   4 -18   13.96    4.90
  -1  -4  18   17.08    5.23
  -4   2 -18   42.22   10.13
   2   4 -18   34.91    9.37
   2   4 -18   42.80   11.23
   4  -2  18   32.99   11.74
  -2  -4  18   34.21   11.50
  -4   3 -18   23.79    8.26
  -4   3 -18   22.07    6.81
   3   4 -18   21.97    6.46
   3   4 -18   26.82    7.86
   4  -3  18   24.79    8.42
  -3  -4  18   39.70    8.24
   4   4 -18    4.34    5.91
  -4   4 -18   20.84    5.55
   4   4 -18   12.84    3.85
  -4   4 -18   17.18    4.04
   4  -4  18   17.12    5.65
   4  -4  18   14.45    3.77
  -4   5 -18    2.68    1.18
  -4   5 -18    4.63    2.91
   4  -5  18    4.15    1.00
   4  -5  18   -0.76    3.13
  -3   5 -18    6.31    3.06
  -3   5 -18    4.80    1.43
   5   3 -18   -3.85    4.00
   3  -5  18    6.16    1.24
  -5  -3  18   -8.18    4.60
   3  -5  18    0.78    3.29
   5   2 -18   17.89    6.35
  -2   5 -18   10.68    6.22
  -2   5 -18   22.21    4.76
  -5  -2  18   15.64    7.04
   2  -5  18   14.27    4.39
   2  -5  18   17.00    6.28
  -1   5 -18    2.89    1.23
  -1   5 -18    2.99    2.79
   5   1 -18    5.72    3.53
  -5  -1  18    4.31    4.32
   1  -5  18    2.28    3.16
   1  -5  18    3.44    1.17
   0   5 -18   -0.90    1.05
   0   5 -18    0.57    2.78
   0  -5  18    0.32    0.95
   0  -5  18    0.07    3.02
   5   0  18    1.04    2.98
  -5   1 -18    1.21    1.36
   1   5 -18    3.38    1.30
   1   5 -18    3.10    3.03
   5  -1  18    5.13    3.74
  -1  -5  18    3.28    1.30
  -1  -5  18    4.32    3.22
   2   5 -18   25.49    5.36
   2   5 -18   24.64    6.68
  -2  -5  18   18.86    6.80
  -2  -5  18   17.62    5.18
   3   5 -18   -0.10    3.60
   3   5 -18    4.80    1.74
  -3  -5  18   -0.07    1.61
   4   5 -18   -0.27    1.64
  -4  -5  18   -4.11    1.53
   5   5 -18    2.43    3.25
  -5  -5  18   -0.09    3.83
   6   5 -18    0.12    3.57
   6   5 -18    4.13    1.56
  -6  -5  18   -5.22    4.21
  -6  -5  18    6.21    1.52
  -4   6 -18    2.09    1.32
   6   4 -18    0.58    3.51
  -4   6 -18    3.00    3.02
   6   4 -18    1.80    1.37
  -6  -4  18    6.90    4.20
  -3   6 -18   24.35    9.79
   6   3 -18   30.33    7.11
  -3   6 -18   32.77    7.88
   6   3 -18   39.80    9.31
   3  -6  18   32.24    9.40
   3  -6  18   27.99    7.18
  -6  -3  18    9.60   10.10
  -2   6 -18    1.11    2.91
   6   2 -18    2.61    1.49
  -2   6 -18    2.41    1.23
   6   2 -18   -1.71    3.90
   2  -6  18    5.25    1.05
  -6  -2  18    0.82    4.71
   2  -6  18   -0.44    2.98
  -1   6 -18    8.33    3.58
   6   1 -18   11.46    3.36
   6   1 -18   22.67    5.62
  -1   6 -18   15.83    5.09
   1  -6  18    9.08    3.30
  -6  -1  18   14.58    6.26
   0   6 -18   10.48    3.94
   0   6 -18    6.76    2.39
   0  -6  18    6.42    2.17
   6   0  18    4.97    4.18
   1   6 -18   17.97    4.37
   6  -1  18   16.37    6.44
   2   6 -18  -10.38    3.85
   2   6 -18   -1.71    1.59
  -2  -6  18   -0.21    1.18
   3   6 -18   31.07    7.12
   3   6 -18   33.95    8.86
  -3  -6  18   27.28    6.78
  -3  -6  18   16.12    8.99
   4   6 -18    1.45    1.49
   4   6 -18    0.11    3.17
  -4  -6  18    4.34    1.30
  -4  -6  18    3.52    3.62
   5   6 -18   -8.68    3.60
  -5  -6  18    0.08    3.80
  -5  -6  18    7.59    1.41
   7   6 -18    1.28    1.44
  -7  -6  18    0.09    1.40
  -4   7 -18    3.35    1.46
  -4   7 -18    5.22    2.87
   7   4 -18   -0.07    1.06
   7   4 -18    0.12    3.47
  -7  -4  18   -1.84    4.50
   7   3 -18   -9.56    3.67
  -3   7 -18    2.59    2.75
   7   3 -18   -0.07    1.28
  -3   7 -18    1.44    1.40
   3  -7  18   -0.84    2.92
  -7  -3  18   -0.34    4.78
   3  -7  18   -0.47    0.81
  -2   7 -18   19.00    4.50
   7   2 -18    8.85    4.02
  -2   7 -18   18.33    5.62
   7   2 -18   17.15    6.17
  -7  -2  18    9.80    7.10
   2  -7  18   13.70    3.97
   2  -7  18   22.56    5.75
  -1   7 -18    0.08    1.32
  -1   7 -18    1.09    2.78
   7   1 -18    1.33    3.76
   7   1 -18    0.43    1.49
   1  -7  18   -0.19    3.00
  -7  -1  18    0.13    4.75
   1  -7  18   -0.57    0.91
   0   7 -18    1.84    2.61
   0   7 -18    1.35    1.42
   7   0 -18    1.40    1.67
   0  -7  18    1.95    3.01
   0  -7  18    0.07    1.00
   7   0  18    0.34    4.00
   1   7 -18    1.88    2.74
   1   7 -18   -0.08    1.28
  -1  -7  18   -0.77    1.03
   7  -1  18    0.51    4.81
  -1  -7  18    1.47    3.10
   2   7 -18   15.69    4.47
   2   7 -18   13.10    5.61
  -2  -7  18   19.65    4.18
  -2  -7  18   16.23    5.89
   3   7 -18    0.10    2.98
   3   7 -18    1.68    1.44
  -3  -7  18    1.38    1.14
  -3  -7  18   -1.08    3.32
   4   7 -18    0.73    3.09
  -4  -7  18   -1.27    3.40
   7   7 -18   -0.10    1.65
   7   7 -18    1.36    3.94
  -7  -7  18   -7.94    4.07
  -7  -7  18   -0.73    1.55
   8   7 -18    0.75    1.89
   8   7 -18    1.59    4.19
  -8  -7  18   -0.88    4.65
  -8  -7  18    0.87    1.57
   8   6 -18    1.87    1.55
   8   6 -18   -6.33    4.16
  -8  -6  18   -0.51    4.41
  -8  -6  18   -0.09    1.37
   8   5 -18    0.41    1.41
  -8  -5  18   -0.09    1.23
  -3   8 -18    4.11    2.08
  -3   8 -18    6.71    3.06
   8   3 -18    0.27    4.01
  -8  -3  18   -4.65    5.25
   3  -8  18    8.85    3.28
   3  -8  18    4.76    1.48
  -2   8 -18    0.27    2.65
   8   2 -18    4.46    1.34
   8   2 -18    0.15    3.81
  -2   8 -18   -0.85    1.65
   2  -8  18    0.21    0.96
  -8  -2  18    3.30    5.16
   2  -8  18    0.81    2.95
   8   1 -18    1.49    1.56
  -1   8 -18    1.89    2.69
   8   1 -18   -0.16    3.83
  -1   8 -18    3.59    1.85
   1  -8  18    2.37    1.14
  -8  -1  18    4.48    5.12
   1  -8  18    3.87    3.10
   0   8 -18    1.64    2.61
   0   8 -18   -0.31    1.75
   8   0 -18    1.01    1.56
   8   0  18   -3.14    4.65
   0  -8  18    0.66    1.03
   0  -8  18    4.22    3.09
   1   8 -18    3.71    1.94
  -8   1 -18    1.51    2.97
   1   8 -18    1.71    2.74
  -1  -8  18    3.69    1.23
  -1  -8  18    2.13    3.20
   8  -1  18    4.31    5.56
   2   8 -18    1.07    2.88
   2   8 -18   -0.82    1.76
  -2  -8  18   -0.86    1.15
   8  -2  18    0.08    6.08
   8  -2  18    0.75    2.49
  -2  -8  18    1.02    3.08
   3   8 -18    6.96    3.23
  -3  -8  18    1.87    3.57
   5   8 -18   -2.04    1.85
   5   8 -18   -0.11    2.68
  -5  -8  18    0.09    1.40
  -5  -8  18   -0.08    3.05
   6   8 -18    6.03    3.62
  -6  -8  18    4.27    3.91
   7   8 -18    2.81    1.86
   7   8 -18    1.97    3.76
  -7  -8  18  -11.38    4.20
  -7  -8  18   -2.84    1.55
   8   8 -18    4.96    4.84
   8   8 -18    5.21    3.22
  -8  -8  18    6.89    5.25
  -8  -8  18   15.20    2.79
   9   8 -18    3.25    4.12
   9   8 -18    0.40    2.15
  -9  -8  18    0.20    4.43
  -9  -8  18    0.11    1.64
   9   7 -18    0.14    4.16
   9   7 -18    1.78    1.90
  -9  -7  18    0.20    1.57
  -9  -7  18    3.93    4.81
   9   6 -18    0.84    4.24
   9   6 -18    1.16    1.65
  -9  -6  18    0.10    1.45
  -9  -6  18    0.78    5.06
   9   5 -18   -2.61    1.64
   9   5 -18   -8.36    4.24
  -9  -5  18   -0.85    1.56
  -9  -5  18   -3.30    5.33
   9   4 -18   -3.27    1.39
  -3   9 -18    4.40    3.05
   3  -9  18    5.45    1.61
  -2   9 -18    0.73    2.69
  -2   9 -18    0.98    1.82
   2  -9  18    2.53    1.12
  -1   9 -18    1.85    2.77
   9   1 -18   -0.16    4.02
  -1   9 -18    0.37    1.88
  -9  -1  18    0.15    5.55
   1  -9  18    0.55    1.08
   9   1  18   -0.07    4.75
   0   9 -18   -1.60    2.66
   0   9 -18   -0.50    1.83
   0  -9  18    0.49    1.06
   9   0  18   -3.38    5.38
  -9   1 -18   -0.12    3.17
   1   9 -18    3.74    2.79
   9  -1  18    0.08    5.83
  -9   2 -18    1.95    3.20
   9  -2  18    1.02    6.57
   9  -2  18    1.62    2.61
   3   9 -18    1.78    2.16
  -3  -9  18    4.50    1.58
   4   9 -18    0.39    2.18
   4   9 -18    0.11    3.13
  -4  -9  18   -4.64    3.35
  -4  -9  18    0.09    1.27
   5   9 -18    1.22    2.07
   5   9 -18    0.11    3.10
  -5  -9  18    0.10    1.48
  -5  -9  18   -2.69    3.64
   6   9 -18    0.12    3.51
  -6  -9  18    5.02    3.81
   7   9 -18    2.60    3.75
   7   9 -18   -1.16    2.33
  -7  -9  18    4.68    3.86
  -7  -9  18    0.11    1.43
   8   9 -18    0.15    2.30
   8   9 -18    0.13    3.86
  -8  -9  18    0.11    1.62
  -8  -9  18    0.09    4.15
   9   9 -18    5.79    4.19
   9   9 -18    0.16    2.44
  -9  -9  18    7.43    4.72
  -9  -9  18    0.94    1.81
  10   9 -18    9.92    3.39
  10   9 -18    0.75    5.11
 -10  -9  18    9.32    2.84
 -10  -9  18   16.52    5.82
  10   8 -18   -0.15    4.58
  10   8 -18    4.30    2.44
 -10  -8  18   -1.46    5.14
 -10  -8  18    0.11    1.67
  10   7 -18    1.98    4.39
  10   7 -18    1.28    2.00
 -10  -7  18    0.11    1.57
 -10  -7  18   -3.15    5.21
  10   6 -18    1.72    1.78
  10   6 -18    3.83    4.26
 -10  -6  18    1.33    5.63
 -10  -6  18    0.10    1.61
  10   5 -18   -0.15    4.21
  10   5 -18   -1.09    1.62
 -10  -5  18    4.23    5.41
 -10  -5  18    0.40    1.59
  10   4 -18    4.16    4.40
  10   4 -18    0.42    1.60
 -10  -4  18    1.86    1.61
 -10  -4  18    5.87    5.65
  -3  10 -18    1.69    3.35
  10   3 -18   29.72    4.63
  10   3 -18    3.91    2.18
  -2  10 -18    0.48    2.92
  10   2 -18    0.09    1.50
  10   1  18   32.92    8.69
  10   0  18    3.64    6.17
   1  10 -18    1.00    2.01
 -10   1 -18   -0.37    3.68
  10  -1  18   -9.05    3.10
  -1 -10  18   -0.09    1.25
  10  -1  18   -4.75    6.55
 -10   2 -18   -2.15    3.54
   2  10 -18   -0.29    2.21
   2  10 -18   10.34    2.91
  10  -2  18   -8.08    2.94
  -2 -10  18    0.10    1.32
   3  10 -18    6.00    2.44
   3  10 -18    0.64    3.28
  -3 -10  18    1.37    1.50
   4  10 -18    0.11    3.17
   4  10 -18    3.45    2.14
  -4 -10  18    0.10    1.48
   5  10 -18   -4.32    2.37
   5  10 -18    0.91    3.19
  -5 -10  18   -1.46    3.60
  -5 -10  18    0.11    1.38
   6  10 -18    3.81    3.34
  -6 -10  18   -2.27    3.74
   7  10 -18   -0.17    2.61
   7  10 -18    2.86    3.63
  -7 -10  18    1.73    1.72
  -7 -10  18    8.77    4.02
   8  10 -18    0.17    2.71
   8  10 -18    0.13    3.80
  -8 -10  18    3.19    4.24
  -8 -10  18   -0.12    1.65
   9  10 -18    1.79    3.06
   9  10 -18    1.14    4.47
  -9 -10  18    6.77    4.98
  -9 -10  18    1.91    2.03
  10  10 -18  -10.95    4.44
  10  10 -18   -0.19    2.94
 -10 -10  18   -0.13    1.95
 -10 -10  18   -4.82    5.19
  11  10 -18   -0.65    4.74
  11  10 -18    1.77    3.04
 -11 -10  18    4.57    5.46
 -11 -10  18    0.14    2.00
  11   9 -18   -0.16    4.53
  11   9 -18    0.52    2.83
 -11  -9  18   -0.12    5.50
 -11  -9  18    0.13    1.83
  11   8 -18   -3.04    2.59
  11   8 -18   11.24    4.99
 -11  -8  18   -5.53    1.98
 -11  -8  18   -5.15    5.83
  11   7 -18    2.74    4.84
  11   7 -18    3.76    2.51
 -11  -7  18   10.60    6.16
 -11  -7  18    4.91    2.09
  11   6 -18    1.41    4.41
  11   6 -18   -1.68    1.91
 -11  -6  18   -8.82    5.95
 -11  -6  18    0.11    1.73
  11   5 -18    1.56    4.35
  11   5 -18    0.10    1.64
 -11  -5  18   11.88    6.08
 -11  -5  18   -0.10    1.66
  11   4 -18    0.09    1.61
  11   4 -18   -7.78    4.59
 -11  -4  18   -4.31    6.22
 -11  -4  18   -3.41    1.69
  11   3 -18    3.45    4.35
  11   3 -18    1.36    1.45
  -3  11 -18    0.49    2.95
 -11  -3  18   -8.74    6.65
  11   2 -18   -3.60    4.68
  11   2 -18    5.01    1.76
 -11  -2  18   -0.16    6.37
  11   1 -18    3.53    2.16
  11   1 -18    4.87    5.10
  11   1  18    3.51    6.42
  11   0 -18    1.47    2.17
   0  11 -18    8.82    3.23
   1  11 -18    5.14    3.68
 -11   2 -18    0.59    3.88
   2  11 -18    0.33    3.05
  11  -2  18    1.43    3.09
  -2 -11  18   -2.45    1.45
   3  11 -18   -0.34    3.13
  11  -3  18   -2.20    3.02
  -3 -11  18    0.11    1.39
   4  11 -18    0.33    2.41
   4  11 -18    1.28    3.33
  -4 -11  18    2.50    1.52
   5  11 -18    0.51    2.57
   5  11 -18   -0.12    3.31
  -5 -11  18   -0.12    1.55
   6  11 -18    0.12    3.34
   7  11 -18    0.39    3.72
   7  11 -18    5.96    2.79
  -7 -11  18    1.12    1.71
  -7 -11  18    3.02    4.18
   8  11 -18    0.41    4.08
   8  11 -18    0.19    2.80
  -8 -11  18    4.56    1.80
  -8 -11  18    1.72    4.28
   9  11 -18    0.20    3.02
   9  11 -18   -1.72    4.05
  -9 -11  18    0.14    1.93
  -9 -11  18   -0.92    4.66
  10  11 -18   -8.64    3.17
  10  11 -18   -0.15    4.44
 -10 -11  18   -3.72    5.03
 -10 -11  18   -0.15    1.96
  11  11 -18    0.64    3.22
  11  11 -18    0.50    4.79
 -11 -11  18   -5.65    2.18
 -11 -11  18    0.12    5.42
  12  11 -18    1.79    3.56
  12  11 -18   -8.54    5.12
 -12 -11  18   -6.84    2.29
 -12 -11  18   -1.14    6.22
  12  10 -18    0.21    3.21
  12  10 -18    0.17    5.06
 -12 -10  18    0.30    1.97
 -12 -10  18   -3.04    5.89
  12   9 -18   -8.73    5.26
  12   9 -18   -8.96    3.24
 -12  -9  18    4.52    6.20
 -12  -9  18    5.47    2.07
  12   8 -18    0.16    2.77
  12   8 -18   -5.22    5.20
 -12  -8  18   -0.13    1.86
 -12  -8  18   -5.65    6.02
  12   7 -18   -0.14    2.33
  12   7 -18   -0.85    5.07
 -12  -7  18    7.51    6.59
 -12  -7  18   -0.12    1.80
  12   6 -18   -6.63    5.12
  12   6 -18   -2.91    1.99
 -12  -6  18    1.71    1.74
  12   5 -18    0.10    1.86
  12   5 -18    6.13    4.78
 -12  -5  18    3.65    1.76
 -12  -5  18    0.15    6.54
  12   4 -18    2.02    4.70
  12   4 -18    0.09    1.72
 -12  -4  18   -0.11    1.56
 -12  -4  18   -8.17    6.96
  12   3 -18   -3.25    1.99
  12   3 -18   -2.59    5.05
 -12  -3  18    3.76    7.48
  12   2 -18    5.70    1.92
  12   2 -18   -7.68    4.95
 -12  -2  18   -2.01    6.66
  12   1 -18    0.10    1.71
  12   1  18   -6.31    7.00
 -12  -1  18    1.74    6.20
  12   0 -18    6.35    2.38
 -12   0 -18   -0.78    4.64
  12   0  18    9.91    7.55
 -12   1 -18   -0.14    4.25
  12  -1  18   -9.46    8.03
  12  -1  18    2.24    3.58
 -12   2 -18    5.08    4.36
  12  -2  18    4.65    7.89
 -12   3 -18   24.71    7.27
 -12   3 -18    3.48    9.77
  12  -3  18   37.65    6.86
   8  12 -18   -4.26    3.99
   9  12 -18   -1.18    4.32
  -9 -12  18   10.87    4.83
  10  12 -18    0.63    4.45
 -10 -12  18    2.23    5.12
  11  12 -18    2.36    4.93
 -11 -12  18   -7.02    5.53
  12  12 -18   -0.18    5.27
 -12 -12  18   -1.13    6.02
  13  12 -18    2.08    5.47
 -13 -12  18   -2.59    6.42
  13  11 -18    3.52    5.41
 -13 -11  18    0.18    2.35
 -13 -11  18    1.22    6.32
  13  10 -18    3.27    3.49
  13  10 -18    0.19    5.43
 -13 -10  18    5.38    6.53
 -13 -10  18   -6.25    2.19
  13   9 -18   -9.74    3.52
  13   9 -18  -12.59    5.85
 -13  -9  18    0.15    2.40
  13   8 -18   -3.47    5.39
  13   8 -18    8.90    2.83
 -13  -8  18    0.14    2.00
 -13  -8  18  -17.83    6.97
  13   7 -18    0.18    4.86
  13   7 -18   -2.10    2.59
 -13  -7  18    1.03    1.93
 -13  -7  18    5.29    7.10
  13   6 -18    1.52    2.21
  13   6 -18   -2.27    4.99
 -13  -6  18   -0.61    6.77
 -13  -6  18    1.20    1.71
  13   5 -18    5.40    5.07
  13   5 -18    0.11    1.84
 -13  -5  18    0.12    1.77
 -13  -5  18   -5.84    6.90
  13   4 -18   -7.44    5.36
  13   4 -18    0.40    1.94
 -13  -4  18   -5.01    1.86
  13   3 -18   -6.50    5.17
  13   3 -18    0.10    1.73
 -13  -3  18   -3.51    1.99
 -13  -3  18   -6.57    7.48
  13   2 -18    9.22    4.96
  13   2 -18    0.74    1.69
 -13  -2  18   -4.03    6.89
  13   1 -18    1.18    2.08
  13   1  18    7.24    7.79
 -13   0 -18    6.10    4.97
  13   0 -18    5.32    2.28
  13   0  18    0.32    4.07
  13   0  18   -4.11    8.01
 -13   1 -18   14.38    5.76
  13  -1  18   16.61    8.80
  13  -1  18    8.83    4.81
 -13   2 -18   -5.72    4.57
 -13   2 -18   10.25    8.41
  13  -2  18   -7.93    8.32
  13  -2  18  -10.90    3.96
 -13   3 -18   -5.19    9.08
 -13   3 -18   -0.40    4.87
  14  11 -18    2.37    5.91
 -14 -11  18    1.47    7.19
 -14 -11  18    1.74    2.42
  14  10 -18    0.79    5.74
  14  10 -18    5.67    3.57
 -14 -10  18    0.17    2.40
 -14 -10  18    4.77    7.12
  14   9 -18   -7.78    5.71
  14   9 -18    1.42    3.23
 -14  -9  18    0.15    7.12
 -14  -9  18    0.16    2.19
 -14  -8  18  -12.20    2.92
  14   7 -18   -7.02    5.51
  14   7 -18   -1.25    2.71
 -14  -7  18    1.48    2.12
 -14  -7  18   -3.58    7.71
  14   6 -18    4.19    5.24
  14   6 -18   -9.20    2.39
 -14  -6  18    9.37    7.79
 -14  -6  18    0.88    1.86
  14   5 -18   -0.11    2.08
  14   5 -18  -11.55    5.25
 -14  -5  18   -3.15    7.71
 -14  -5  18    0.12    1.82
  14   4 -18    0.18    5.13
  14   4 -18   -3.46    1.95
 -14  -4  18  -15.43    7.79
 -14  -4  18   -3.93    1.96
  14   3 -18   -1.51    1.81
  14   3 -18   -2.61    5.13
 -14  -3  18    2.01    1.94
 -14  -3  18   -5.77    7.34
  14   2 -18   -0.78    1.73
  14   2 -18    2.09    4.89
 -14  -2  18    6.88    7.11
  14   1  18   -6.72    7.75
 -14   0 -18    1.50    5.47
  14   0  18   -6.79    8.42
  14   0  18   -3.40    4.46
 -14   1 -18    6.96    5.77
  14  -1  18   -4.28    8.53
  14  -1  18    2.76    4.36
 -14   2 -18    5.50    5.29
 -14   2 -18    8.83    9.01
  14  -2  18    0.79    8.09
  14  -2  18   -1.50    4.42
 -14   3 -18   -1.36    9.68
 -14   3 -18    6.01    5.23
  14  -3  18   -4.12    7.33
  14  -3  18    2.06    4.17
  14  -4  18   -1.58    4.53
  14  -4  18    2.71    7.87
  15  11 -18   -8.34    6.13
 -15 -11  18    1.10    7.55
  15  10 -18   -0.21    5.99
 -15 -10  18    0.37    2.29
 -15 -10  18    2.90    7.55
 -15  -9  18   -1.65    2.11
 -15  -8  18    1.38    2.28
 -15  -1 -18    5.82    6.18
  15   1  18    9.30    8.80
 -15   0 -18    8.35    6.12
  15   0  18   -2.21    4.96
  15   0  18   -8.65    8.75
 -15   1 -18   -8.66    6.37
 -15   1 -18    3.49    9.06
  15  -1  18    3.96    4.90
  15  -1  18   -7.09    9.04
 -15   2 -18   13.63    5.95
 -15   2 -18   -4.88    9.88
  15  -2  18   -8.51    8.29
  15  -2  18    2.17    4.95
 -15   3 -18  -10.23   10.98
 -15   3 -18   -0.36    6.09
  15  -3  18    3.14    4.68
  15  -3  18   -3.15    7.37
 -15   4 -18    8.16    6.32
  15  -4  18  -11.96    5.21
  15  -4  18    1.85    9.65
 -16  -1 -18   42.20   24.13
 -16   0 -18   78.16   33.86
  16   0  18  141.14   35.02
  16   0  18   79.67   29.90
 -16   1 -18   64.43   25.31
 -16   1 -18   30.70   22.66
  16  -1  18   49.48   21.25
 -16   2 -18  -10.04   11.45
 -16   3 -18   -5.38    7.45
 -16   3 -18  -25.50   12.55
  16  -3  18   -7.33    5.89
 -16   4 -18   -3.91   11.91
 -16   4 -18   13.60    7.28
  16  -4  18    2.39    5.83
  16  -4  18   -4.63   10.54
 -17  -1 -18    6.45    7.29
  17   1  18   -2.81    9.68
 -17   0 -18   19.65    7.88
 -17   0 -18    1.13   10.81
  17   0  18   -8.55    9.39
  17   0  18   -8.93    6.22
 -17   1 -18   -3.33   11.09
 -17   1 -18   -4.69    8.33
  17  -1  18   -0.16    6.00
  17  -1  18  -11.55    9.12
 -17   2 -18  -15.65   12.31
 -17   2 -18    1.69    8.30
  17  -2  18   15.87    6.51
  17  -2  18    9.71    9.16
 -17   3 -18    4.08   12.79
 -17   3 -18    0.24    8.28
  17  -3  18   -2.19    9.43
  17  -3  18   18.60    6.63
 -17   4 -18   -8.94   12.99
 -17   4 -18   14.61    8.23
  17  -4  18    6.88   11.50
  17  -4  18   -0.59    6.29
 -18  -1 -18   13.68    8.99
 -18   0 -18   -1.81    9.51
  18   0  18  -12.76    9.58
  18   0  18  -10.76    7.24
 -18   1 -18  -15.68   12.50
 -18   1 -18   -6.55    9.22
  18  -1  18   -2.64    6.91
 -18   2 -18   12.43    9.04
 -18   2 -18   11.73   13.34
  18  -2  18    1.37    6.90
  18  -2  18   -3.12    8.52
 -18   3 -18  -14.72   13.61
 -18   3 -18    2.71    8.91
  18  -3  18    4.95    6.78
  18  -3  18   -5.17   11.02
 -18   4 -18   -4.83    9.26
 -18   4 -18   -6.41   14.37
  18  -4  18   10.55    7.10
   0   1 -19   16.41    4.72
   0  -1  19   18.63    6.42
  -1   1 -19   -0.56    1.24
   1   1 -19    0.17    1.35
   1   1 -19   -0.13    3.16
  -1  -1  19    1.56    3.66
   2   1 -19   -0.34    1.44
  -1   2 -19    0.85    3.04
   2   1 -19    0.95    3.25
  -1   2 -19   -0.35    1.17
   1  -2  19    5.48    3.86
  -2  -1  19    0.80    3.96
   0   2 -19    0.98    3.13
   0   2 -19   -0.64    1.25
   0  -2  19   -4.97    3.82
   1   2 -19    1.32    1.28
   1   2 -19    1.48    3.14
  -2   1 -19   -0.31    1.34
  -1  -2  19    4.04    3.82
  -2   2 -19    0.33    1.16
   2   2 -19    0.45    1.22
  -2   2 -19    0.12    3.07
   2   2 -19   -2.13    3.29
   2  -2  19    0.69    3.66
  -2  -2  19   -3.19    3.91
  -2   3 -19   23.09    9.79
   3   2 -19   31.32    9.59
  -2   3 -19   28.27    8.15
   3   2 -19   34.33    7.63
  -3  -2  19   31.03   10.24
   2  -3  19   33.33   10.09
  -1   3 -19    1.73    1.14
   3   1 -19    1.03    1.34
  -1   3 -19    1.35    3.00
   3   1 -19   -0.14    3.37
   1  -3  19    0.55    3.71
  -3  -1  19    1.41    4.18
   0   3 -19    7.01    4.94
   0   3 -19   15.71    3.50
   0  -3  19   11.88    5.42
   1   3 -19   -0.91    3.05
  -3   1 -19    0.52    1.34
   1   3 -19    1.43    1.24
  -1  -3  19    0.94    3.64
   2   3 -19   37.46    9.48
  -3   2 -19   28.03    8.28
   2   3 -19   37.17    7.74
   3  -2  19   31.18    9.88
  -2  -3  19   17.98    9.90
   3   3 -19   -0.14    1.21
  -3   3 -19    0.16    0.97
   3   3 -19   -1.89    3.40
  -3   3 -19    1.24    3.11
  -3  -3  19   -5.39    4.17
   3  -3  19   -4.27    3.61
  -3   4 -19   27.55   10.72
   4   3 -19   58.18   10.51
   4   3 -19   27.98    8.68
  -3   4 -19   28.41    9.10
  -4  -3  19   55.20   11.12
   3  -4  19   34.39   10.75
   4   2 -19    1.58    4.30
   4   2 -19    8.71    2.19
  -2   4 -19   11.94    3.78
  -2   4 -19    6.94    2.09
   2  -4  19    6.32    4.08
  -4  -2  19   -0.68    5.01
   4   1 -19   27.02    8.64
  -1   4 -19   25.63    7.04
  -1   4 -19   33.34    8.56
   4   1 -19   24.29    6.75
  -4  -1  19   20.72    9.25
   1  -4  19   33.02    8.76
   0   4 -19    0.06    1.03
   0   4 -19    1.15    2.90
   0  -4  19   -3.85    3.51
   1   4 -19   29.28    6.68
  -4   1 -19   24.02    7.35
   1   4 -19   20.51    8.15
  -1  -4  19   28.12    8.46
   2   4 -19    9.78    2.14
  -4   2 -19   10.13    2.23
   2   4 -19    4.85    3.78
  -2  -4  19   -8.44    4.68
   3   4 -19   30.78    7.08
  -4   3 -19   19.71    9.29
  -4   3 -19   24.96    7.54
   4  -3  19   31.46    9.39
   4   4 -19    1.18    1.24
  -4   4 -19    0.33    0.84
  -4   4 -19    1.36    3.21
   4   4 -19    1.03    3.25
  -4  -4  19   -2.68    3.81
   4  -4  19   -0.35    0.78
   4  -4  19    3.97    3.64
   5   4 -19    5.70    4.15
  -4   5 -19    7.15    3.90
  -4   5 -19    7.01    2.22
  -5  -4  19    5.61    4.81
   5   3 -19   20.03    7.04
  -3   5 -19   24.62    7.26
   3  -5  19   19.91    5.07
  -5  -3  19    6.00    7.80
   3  -5  19   24.32    7.20
  -2   5 -19   18.34    6.82
   5   2 -19   24.18    6.95
  -2   5 -19   21.18    5.40
  -5  -2  19    3.45    7.72
   2  -5  19   29.81    6.96
   2  -5  19   20.24    5.04
  -1   5 -19    3.31    3.79
  -1   5 -19    7.15    2.14
   5   1 -19    3.94    4.35
  -5  -1  19   10.66    5.28
   1  -5  19    2.80    4.00
   1  -5  19    8.91    2.01
   0   5 -19   19.06    6.30
   0   5 -19   22.72    7.68
   0  -5  19   39.13    7.98
   0  -5  19   20.06    6.02
   1   5 -19    7.84    3.96
   1   5 -19    9.65    2.33
  -1  -5  19    7.45    2.27
  -1  -5  19    5.35    4.39
   2   5 -19   21.75    4.58
   2   5 -19   19.10    6.22
  -2  -5  19    2.76    6.84
  -2  -5  19   17.09    4.36
   3   5 -19   24.41    5.49
   3   5 -19   21.69    7.07
  -3  -5  19   22.87    5.27
  -3  -5  19   13.40    7.41
   4   5 -19    9.84    2.93
   4   5 -19   13.08    4.50
  -4  -5  19   11.20    4.99
  -4  -5  19   11.35    2.81
   5   5 -19   -2.33    3.35
   5   5 -19   -0.08    1.03
  -5  -5  19   -0.08    1.09
  -5  -5  19   -1.67    4.10
   6   4 -19    2.99    3.48
  -6  -4  19   -1.25    4.33
   6   3 -19    0.66    4.20
   6   3 -19    6.68    2.10
  -3   6 -19    7.75    2.16
  -3   6 -19    6.90    3.83
  -6  -3  19    4.60    5.22
   3  -6  19    6.10    1.86
   3  -6  19    9.17    3.83
   6   2 -19   17.69    4.86
  -2   6 -19   19.33    6.98
   6   2 -19   18.82    7.14
  -2   6 -19   24.50    5.32
  -6  -2  19   12.23    7.97
   2  -6  19   18.88    6.83
   2  -6  19   16.43    4.84
  -1   6 -19    4.29    3.21
   6   1 -19    4.85    3.95
  -1   6 -19    3.27    1.37
   6   1 -19    2.08    1.80
  -6  -1  19    1.46    4.79
   1  -6  19    4.25    1.23
   1  -6  19   -0.71    3.29
   0   6 -19    2.59    2.97
   0   6 -19    0.35    1.25
   0  -6  19    1.09    1.03
   0  -6  19   -2.54    3.30
   6   0  19   -0.10    3.53
   1   6 -19    3.00    1.44
   1   6 -19    3.14    3.17
  -1  -6  19    1.87    1.30
  -1  -6  19    0.60    3.43
   2   6 -19   20.73    7.10
   2   6 -19   22.52    5.67
  -2  -6  19   24.75    5.43
  -2  -6  19   19.09    7.28
   3   6 -19    6.22    2.23
   3   6 -19    6.63    3.90
  -3  -6  19   11.19    2.07
  -3  -6  19   -2.56    4.18
   4   6 -19    8.48    3.37
   4   6 -19   -0.08    1.02
  -4  -6  19   -0.08    1.21
  -4  -6  19   -0.67    3.57
   7   6 -19    1.72    1.64
   7   6 -19    0.13    4.10
  -7  -6  19    9.77    4.52
  -7  -6  19    0.09    1.65
   7   5 -19    1.74    1.46
  -7  -5  19    0.09    1.41
  -3   7 -19   12.68    5.34
   7   3 -19   10.86    5.56
  -3   7 -19   13.94    3.92
   3  -7  19   13.63    3.40
  -7  -3  19   10.76    6.74
   3  -7  19   15.31    5.27
  -2   7 -19    2.80    1.58
   7   2 -19    0.15    4.03
  -2   7 -19    3.39    3.11
   2  -7  19    3.58    3.25
   2  -7  19    3.44    1.17
  -7  -2  19   -1.05    5.29
  -1   7 -19    6.19    2.53
   7   1 -19   11.42    2.47
  -1   7 -19    8.83    3.88
   7   1 -19    2.53    4.65
   1  -7  19    8.30    4.06
  -7  -1  19    0.42    5.61
   1  -7  19    8.37    2.20
   0   7 -19    2.52    2.90
   0   7 -19    0.67    1.43
   7   0  19    0.52    4.19
   0  -7  19   -1.98    3.17
   0  -7  19    1.62    1.01
   1   7 -19   10.13    3.88
   1   7 -19    8.57    2.57
  -1  -7  19    5.42    2.20
  -1  -7  19   10.40    4.14
   2   7 -19    3.54    1.72
   2   7 -19    0.32    3.17
  -2  -7  19    4.73    1.37
  -2  -7  19   -0.22    3.47
   3   7 -19   22.81    5.28
  -3  -7  19    6.99    5.38
   5   7 -19    0.58    1.63
  -5  -7  19    0.09    1.29
   6   7 -19    0.13    3.84
  -6  -7  19    0.09    4.07
   7   7 -19    3.41    2.45
  -7  -7  19   12.85    5.17
   8   7 -19    1.42    5.05
   8   7 -19    4.29    2.35
  -8  -7  19    0.21    5.16
  -8  -7  19    7.25    2.24
   8   6 -19   -0.09    1.65
   8   6 -19    0.14    4.36
  -8  -6  19    0.10    1.64
  -8  -6  19  -11.62    5.39
   8   5 -19    1.38    1.53
   8   5 -19    0.14    3.97
  -8  -5  19   -1.71    4.93
  -8  -5  19   -0.10    1.46
   8   4 -19    1.06    1.58
  -3   8 -19    2.36    2.99
  -3   8 -19    1.91    1.67
   3  -8  19    1.28    1.01
   3  -8  19   -1.07    3.34
  -2   8 -19    3.63    1.93
  -2   8 -19    2.88    3.20
   2  -8  19    4.11    1.41
   2  -8  19    4.78    3.48
  -1   8 -19   -0.52    1.69
  -1   8 -19   -2.91    3.01
   1  -8  19   -4.55    3.22
   1  -8  19    0.44    0.99
   0   8 -19    1.83    2.97
   0   8 -19    0.22    1.75
   8   0  19    2.78    4.67
   0  -8  19   -0.85    3.28
   0  -8  19   -0.39    1.09
   1   8 -19    1.86    3.06
   1   8 -19    5.57    1.81
  -1  -8  19    1.98    1.22
  -1  -8  19    0.07    3.31
   8  -1  19   -1.84    6.25
   2   8 -19   -0.11    3.08
   4   8 -19   14.53    5.71
  -4  -8  19   29.66    5.94
   5   8 -19   -2.36    2.03
   5   8 -19    1.18    3.40
  -5  -8  19    0.59    3.85
  -5  -8  19   -1.85    1.53
   6   8 -19    1.24    3.48
  -6  -8  19   -4.25    4.34
   7   8 -19   10.51    3.09
   7   8 -19    7.02    4.97
  -7  -8  19   13.07    2.81
  -7  -8  19    5.34    5.04
   8   8 -19   -5.41    2.05
   8   8 -19    3.09    4.27
  -8  -8  19    0.42    1.52
  -8  -8  19    0.10    4.56
   9   8 -19    0.45    4.48
   9   8 -19    3.54    2.56
  -9  -8  19    8.50    2.05
  -9  -8  19    0.88    5.21
   9   7 -19    0.22    1.93
   9   7 -19   -0.15    4.35
  -9  -7  19   -0.11    1.59
  -9  -7  19   -2.87    4.93
   9   6 -19    2.48    4.25
   9   6 -19    0.29    1.74
  -9  -6  19   -2.85    5.22
  -9  -6  19    0.10    1.53
   9   5 -19    2.04    4.22
   9   5 -19    0.09    1.57
  -9  -5  19   -0.10    1.63
  -9  -5  19    2.93    5.29
   9   4 -19    6.08    5.17
   9   4 -19    9.22    2.57
  -9  -4  19    8.81    6.37
  -3   9 -19   -1.10    1.92
   9   3 -19    9.96    4.33
  -3   9 -19    0.39    2.91
   9   3 -19    2.01    1.37
   3  -9  19    0.23    1.14
   3  -9  19   -0.07    3.41
  -9  -3  19   15.44    5.66
   9   2 -19    1.41    1.45
  -2   9 -19   -1.00    1.89
  -2   9 -19   -0.98    2.87
   2  -9  19   -3.14    3.32
   2  -9  19    0.70    0.98
  -1   9 -19    1.54    1.96
  -1   9 -19    3.00    3.08
   9   1 -19    0.10    1.61
   1  -9  19    0.49    1.09
   1  -9  19   -0.28    3.38
   0   9 -19    6.89    3.03
   0  -9  19   -3.27    3.39
   9   0  19   -1.55    5.37
   9  -1  19   -0.57    6.06
   2   9 -19    0.13    2.00
  -2  -9  19    0.09    1.32
   3   9 -19    0.55    3.11
   3   9 -19   -0.13    2.06
  -3  -9  19   -0.28    1.43
  -3  -9  19   -3.35    3.55
   4   9 -19   11.03    3.94
   4   9 -19    2.60    2.71
  -4  -9  19    2.59    2.05
  -4  -9  19    9.96    4.23
   5   9 -19    3.09    2.39
   5   9 -19   -0.72    3.50
  -5  -9  19   -1.30    1.44
  -5  -9  19    2.13    3.87
   6   9 -19    2.39    3.58
  -6  -9  19    1.60    4.11
   7   9 -19    0.93    3.82
   7   9 -19    3.32    2.31
  -7  -9  19    2.07    1.60
  -7  -9  19    0.57    4.34
   8   9 -19    5.48    4.40
   8   9 -19    1.80    2.70
  -8  -9  19    1.21    4.70
  -8  -9  19    6.95    2.01
   9   9 -19    9.27    4.28
   9   9 -19   -5.94    2.36
  -9  -9  19    2.94    4.90
  -9  -9  19   -0.36    1.74
  10   9 -19    2.08    2.88
  10   9 -19    0.16    4.65
 -10  -9  19    1.30    1.96
 -10  -9  19    6.06    5.52
  10   8 -19   -0.16    4.73
  10   8 -19   -3.64    2.53
 -10  -8  19    0.12    1.87
 -10  -8  19   -2.29    5.60
  10   7 -19    2.20    2.29
  10   7 -19    4.14    4.69
 -10  -7  19    1.45    1.83
 -10  -7  19    5.07    5.72
  10   6 -19   -1.07    1.87
  10   6 -19    8.06    4.53
 -10  -6  19   -3.73    5.75
 -10  -6  19    0.11    1.64
  10   5 -19    0.16    4.30
  10   5 -19    0.38    1.65
 -10  -5  19    3.55    1.65
 -10  -5  19   -3.74    5.84
  10   4 -19   -3.66    4.51
  10   4 -19   -3.60    1.59
 -10  -4  19    2.97    6.10
 -10  -4  19    0.10    1.68
  10   3 -19    7.60    4.50
  -3  10 -19    2.10    2.93
  10   3 -19   -2.08    1.61
 -10  -3  19    4.09    6.36
  10   2 -19   -3.46    4.58
  -2  10 -19   -0.61    2.97
  10   2 -19    1.19    1.71
 -10  -2  19   10.58    6.27
  10   1 -19   -1.40    1.89
  10   1 -19    0.91    4.88
 -10  -1  19   -2.63    6.32
   0  10 -19    1.02    2.33
  10   0  19   16.55    6.14
   0 -10  19    0.28    1.34
   1  10 -19   19.18    3.62
 -10   1 -19   -0.64    4.40
   1  10 -19    2.98    2.89
  10  -1  19    7.12    7.54
  -1 -10  19    5.90    2.04
   2  10 -19    1.65    2.39
   2  10 -19   -3.61    3.23
  -2 -10  19    1.28    1.39
   3  10 -19    2.02    3.38
   3  10 -19    2.60    2.39
  -3 -10  19    0.31    1.46
  -3 -10  19    1.85    3.69
   4  10 -19    0.23    3.47
   4  10 -19    0.61    2.44
  -4 -10  19   -0.91    3.53
  -4 -10  19    0.11    1.46
   5  10 -19    0.24    3.59
   5  10 -19    2.98    2.65
  -5 -10  19   -0.11    1.49
  -5 -10  19    0.52    3.83
   6  10 -19   -0.13    3.66
  -6 -10  19   -0.09    4.06
  -6 -10  19    0.57    1.68
   7  10 -19    8.06    2.82
   7  10 -19    7.82    3.92
  -7 -10  19    0.96    4.55
  -7 -10  19    0.83    1.85
   8  10 -19   -0.17    2.80
   8  10 -19    0.14    3.92
  -8 -10  19   -0.81    4.70
  -8 -10  19   -6.11    1.84
   9  10 -19   -0.18    2.89
   9  10 -19  -12.11    4.57
  -9 -10  19    4.90    5.00
  -9 -10  19    6.29    2.05
  10  10 -19   -8.37    2.94
  10  10 -19   -0.16    4.63
 -10 -10  19    1.04    5.13
 -10 -10  19    1.93    1.91
  11  10 -19    0.17    4.91
  11  10 -19   -1.43    3.17
 -11 -10  19    2.75    5.68
 -11 -10  19   -0.15    2.09
  11   9 -19    1.09    3.00
  11   9 -19   -7.97    4.97
 -11  -9  19   10.41    6.14
 -11  -9  19    0.14    1.96
  11   8 -19   -5.69    5.21
  11   8 -19    0.46    2.69
 -11  -8  19    9.09    5.97
 -11  -8  19    0.12    1.83
  11   7 -19   26.52    7.33
  11   7 -19   16.64    5.34
 -11  -7  19   33.62    8.43
  11   6 -19    1.11    1.90
  11   6 -19   -0.17    4.57
 -11  -6  19    0.68    1.73
 -11  -6  19    0.56    6.13
  11   5 -19    1.70    1.80
  11   5 -19   -0.50    4.66
 -11  -5  19   -2.48    6.25
 -11  -5  19   -0.11    1.76
  11   4 -19    0.09    1.63
  11   4 -19    1.36    4.56
 -11  -4  19    0.11    1.75
 -11  -4  19   11.01    6.73
  11   3 -19    0.54    1.57
  11   3 -19    0.17    4.56
 -11  -3  19    6.17    6.75
  11   2 -19    0.18    4.59
  11   2 -19    0.09    1.72
 -11  -2  19   -0.34    6.57
  -1  11 -19    7.62    3.15
  11   1 -19   -0.81    1.73
  11   1  19    0.78    6.20
 -11  -1  19    2.78    6.31
  11   0 -19   13.45    3.83
   0  11 -19   11.85    5.08
   1  11 -19   -6.47    3.22
  -1 -11  19   -0.78    1.40
   2  11 -19   12.37    3.71
  -2 -11  19    3.67    2.05
   3  11 -19   -2.84    3.32
   3  11 -19    2.54    2.56
  -3 -11  19   -1.95    1.53
   4  11 -19   -0.34    2.57
   4  11 -19   -0.12    3.42
  -4 -11  19    0.12    1.46
   5  11 -19   -0.25    3.41
   5  11 -19   -4.25    2.68
  -5 -11  19   -0.12    1.51
   6  11 -19    0.13    3.81
   6  11 -19   -0.91    2.72
  -6 -11  19   -0.12    1.64
  -6 -11  19    1.20    4.05
   7  11 -19   -3.40    3.26
   7  11 -19    0.14    4.39
  -7 -11  19    9.31    4.85
   8  11 -19    7.45    3.20
   8  11 -19   -4.39    4.19
  -8 -11  19    0.14    1.80
  -8 -11  19   -2.96    4.56
   9  11 -19   -0.82    3.10
   9  11 -19    0.46    4.34
  -9 -11  19   -1.64    4.95
  -9 -11  19    1.28    1.93
  10  11 -19    4.44    4.69
  10  11 -19   -0.21    3.16
 -10 -11  19   -1.50    2.12
 -10 -11  19   -0.23    5.28
  11  11 -19    4.34    5.84
  11  11 -19   11.13    4.27
 -11 -11  19   23.78    6.87
 -11 -11  19    1.74    3.05
  12  11 -19   -5.62    3.89
  12  11 -19   -0.19    5.24
 -12 -11  19   -6.53    2.40
 -12 -11  19    0.54    6.32
  12  10 -19   43.47    8.14
  12  10 -19   22.34    9.62
 -12 -10  19   30.95   10.43
  12   9 -19   -0.19    2.95
  12   9 -19    3.88    5.28
 -12  -9  19   -4.01    6.26
 -12  -9  19    0.14    2.20
  12   8 -19   -3.18    2.72
  12   8 -19    0.18    5.13
 -12  -8  19    0.14    1.85
 -12  -8  19   11.11    6.50
  12   7 -19   -0.43    2.47
  12   7 -19   -9.18    5.35
 -12  -7  19    8.61    6.83
 -12  -7  19    0.25    1.98
  12   6 -19   -3.44    2.19
  12   6 -19  -15.43    5.28
 -12  -6  19   -1.91    1.88
 -12  -6  19   -3.02    6.84
  12   5 -19    0.53    5.50
 -12  -5  19    6.47    2.35
  12   4 -19   -0.90    1.83
  12   4 -19    2.34    5.07
 -12  -4  19    0.51    7.21
 -12  -4  19    0.91    1.74
  12   3 -19   -1.10    5.22
  12   3 -19   -3.16    1.75
 -12  -3  19   -4.15    7.05
  12   2 -19    0.10    1.69
  12   2 -19   -1.32    4.80
 -12  -2  19   -5.12    7.01
  12   1 -19    6.22    3.03
  12   1  19   22.78    7.51
 -12  -1  19    2.55    7.47
  12   0 -19    0.11    2.08
  12   0  19   -0.90    7.31
 -12   1 -19    9.25    5.28
  12  -1  19   -2.39    8.29
  12  -1  19   16.27    4.60
 -12   2 -19    6.71    4.31
  12  -2  19   -1.67    3.48
  12  -2  19    4.97    7.84
   3  12 -19    0.13    3.49
   4  12 -19    1.04    3.69
   5  12 -19    0.13    3.92
  -5 -12  19    0.14    1.92
   6  12 -19    0.14    3.90
  -6 -12  19    0.14    1.88
   7  12 -19    0.29    3.93
  -7 -12  19    0.71    4.51
   8  12 -19    2.10    4.15
  -8 -12  19    0.31    2.01
  -8 -12  19    1.37    4.72
   9  12 -19   -0.16    4.49
  -9 -12  19    5.53    2.21
  -9 -12  19    0.45    5.12
  10  12 -19    0.51    5.88
 -10 -12  19    0.17    2.99
  11  12 -19   -0.18    5.14
 -11 -12  19    1.63    2.50
 -11 -12  19   -0.88    5.89
  12  12 -19    3.41    5.59
 -12 -12  19    2.57    6.42
  13  12 -19    1.40    5.88
 -13 -12  19    3.20    6.87
  13  11 -19  -13.18    3.91
  13  11 -19    0.20    5.72
 -13 -11  19   -0.36    2.49
 -13 -11  19    0.58    7.04
  13  10 -19   -3.13    3.38
  13  10 -19    0.59    5.62
 -13 -10  19    0.16    2.15
 -13 -10  19   -1.33    6.91
 -13  -9  19    0.15    2.12
  13   8 -19    6.35    2.95
  13   8 -19   -2.28    5.43
 -13  -8  19   -3.97    2.09
 -13  -8  19    2.97    7.51
  13   7 -19   -5.03    5.46
  13   7 -19    2.97    2.65
 -13  -7  19    1.05    1.86
 -13  -7  19    9.18    7.22
  13   6 -19   -4.46    2.29
  13   6 -19    0.18    5.32
 -13  -6  19    0.99    7.38
 -13  -6  19    3.63    2.01
  13   5 -19   -2.37    1.93
  13   5 -19    6.91    5.48
 -13  -5  19   -0.37    1.77
 -13  -5  19    0.35    7.44
  13   4 -19    1.70    5.12
  13   4 -19    0.21    1.92
 -13  -4  19    3.60    7.57
 -13  -4  19    0.36    1.91
  13   3 -19    0.10    1.73
  13   3 -19   -6.53    5.31
 -13  -3  19    2.01    7.38
  13   2 -19   12.99    5.60
  13   2 -19    2.98    2.08
 -13  -2  19   -2.03    7.52
  13   1 -19    3.47    3.98
  13   1  19   34.13    8.99
 -13   0 -19   11.25    6.10
  13   0 -19    6.85    3.61
  13  -1  19   31.05    8.88
  13  -1  19   43.98   11.92
 -13   2 -19   -1.80    4.85
 -13   2 -19    1.79    8.37
  13  -2  19  -18.21    8.57
  14  11 -19   -0.21    6.05
 -14 -11  19    0.15    7.27
 -14 -11  19    0.19    2.53
  14  10 -19    6.68    6.12
  14  10 -19   -4.73    3.68
 -14 -10  19    0.53    2.39
 -14 -10  19    7.11    7.37
  14   9 -19   -0.20    5.88
  14   9 -19   -6.35    3.47
 -14  -9  19    6.90    7.70
 -14  -9  19    0.16    2.20
  14   8 -19    7.32    5.91
  14   8 -19    0.55    3.01
 -14  -8  19   -6.41    7.99
 -14  -8  19    0.15    2.17
  14   7 -19   47.88   10.23
 -14  -7  19   28.13   15.64
  14   6 -19   -3.74    2.50
  14   6 -19    2.92    5.53
 -14  -6  19   -3.62    8.32
 -14  -6  19    0.53    1.87
  14   5 -19    0.12    2.06
  14   5 -19   -8.25    5.45
 -14  -5  19   -5.39    8.31
 -14  -5  19    0.13    1.84
  14   4 -19   -2.95    5.35
  14   4 -19    0.99    2.06
 -14  -4  19    3.62    1.98
 -14  -4  19    1.14    8.10
  14   3 -19   -2.51    1.98
  14   3 -19    3.18    5.23
 -14  -3  19   -8.38    7.59
 -14  -3  19    1.99    2.02
  14   2 -19    2.76    1.85
  14   2 -19   -9.71    5.41
 -14  -2  19   -1.53    7.13
  14   1 -19   -1.39    1.95
  14   1  19   -6.99    8.18
 -14   0 -19   -2.67    5.43
  14   0  19   -7.82    8.68
 -14   1 -19    4.14    5.64
  14  -1  19   12.74    4.55
  14  -1  19   -8.55    8.71
 -14   2 -19   11.56    8.90
 -14   2 -19    3.05    5.28
  14  -2  19   -7.31    8.30
  14  -2  19    1.99    4.09
  14  -3  19   11.71    7.77
  15  10 -19    0.22    6.16
  15  10 -19    7.59    3.83
 -15 -10  19   -6.31    8.04
 -15 -10  19    0.18    2.40
  15   9 -19   -2.26    3.61
  15   9 -19    3.34    6.00
 -15  -9  19  -10.91    8.23
 -15  -9  19   -0.17    2.28
  15   8 -19    2.26    6.10
 -15  -8  19    0.36    8.36
 -15  -8  19   -2.24    2.34
 -15  -7  19    0.58    2.16
 -15  -6  19    0.14    2.03
  15   1  19   -1.36    8.64
 -15   0 -19    0.21    5.83
  15   0  19   -0.24    8.73
 -15   1 -19    3.49    9.42
 -15   1 -19    0.20    6.23
  15  -1  19    7.08    8.92
  15  -1  19    7.31    5.03
 -15   2 -19  -13.29   10.31
 -15   2 -19   -7.11    6.71
  15  -2  19   -7.31    5.13
  15  -2  19  -11.69    8.66
  16   1  19   -3.15    9.46
 -16   0 -19    7.83    7.25
  16   0  19    9.85    9.76
 -16   1 -19  -10.94   10.30
 -16   1 -19    4.12    6.98
  16  -1  19   -2.45    8.70
  16  -1  19    2.73    5.48
 -16   2 -19   -6.57    7.02
 -16   2 -19   -3.04   11.09
  16  -2  19  -10.45    8.20
  16  -2  19   -3.32    5.40
 -16   3 -19   -2.32    6.93
  16  -3  19    5.03    5.45
  16  -3  19   -1.77    7.94
  17   1  19    1.39    9.90
 -17   0 -19   23.21   10.84
 -17   0 -19   -7.50    7.97
  17   0  19   -7.60    9.60
 -17   1 -19   -3.38    8.00
 -17   1 -19   -0.30   10.88
  17  -1  19   -8.31    9.34
  17  -1  19    2.75    5.98
 -17   2 -19  -21.58   12.04
 -17   2 -19   -1.25    7.84
  17  -2  19    1.58    6.19
  17  -2  19   -6.49    8.72
 -17   3 -19  -25.18   13.10
 -17   3 -19   -5.56    7.89
  17  -3  19   17.41    6.17
  17  -3  19    0.64    8.98
 -18   1 -19    0.33    9.20
 -18   1 -19    2.67    8.94
  18  -1  19    2.92    6.81
 -18   2 -19   -1.15    9.10
  18  -2  19    8.36    7.04
 -18   3 -19   -5.26    9.01
  18  -3  19    4.17    6.69
   0   1 -20   -0.26    1.50
  -1   1 -20    1.71    1.48
   1   1 -20    2.04    1.54
  -1  -1  20    2.63    4.09
   2   1 -20    1.61    3.50
   2   1 -20   -0.90    1.38
  -1   2 -20   -0.13    3.37
  -1   2 -20    1.04    1.29
  -2  -1  20    1.95    4.22
   1  -2  20   -1.39    3.90
   0   2 -20    0.69    1.38
   0   2 -20   -0.13    3.46
   0  -2  20    2.19    3.82
   1   2 -20    0.27    3.42
  -2   1 -20    0.99    1.48
   1   2 -20   -1.49    1.34
  -1  -2  20   -4.01    4.30
   2   2 -20    5.82    2.42
  -2   2 -20    8.64    4.08
   2   2 -20    3.67    4.42
  -2   2 -20    8.85    2.43
   2  -2  20   15.39    4.67
  -2  -2  20    4.00    5.05
   3   2 -20    1.30    1.53
  -2   3 -20    1.48    3.46
   3   2 -20   -4.28    4.09
  -2   3 -20    3.74    1.29
   2  -3  20    6.89    3.98
  -3  -2  20    0.82    4.52
  -1   3 -20   14.35    5.79
   3   1 -20   30.03    6.32
   3   1 -20   18.48    4.15
  -1   3 -20    9.44    4.17
  -3  -1  20   15.66    6.34
   1  -3  20   17.32    6.07
   0   3 -20   -0.37    3.27
   0   3 -20   -1.70    1.29
   0  -3  20   -1.63    4.11
   1   3 -20   19.27    5.57
   1   3 -20   13.73    3.87
  -3   1 -20    9.19    4.10
  -1  -3  20   19.91    6.12
  -3   2 -20    2.26    1.29
   2   3 -20   -2.01    3.70
   2   3 -20    0.82    1.46
  -2  -3  20    0.42    4.52
   3  -2  20    1.05    3.85
  -3   3 -20   37.09    9.17
   3   3 -20   30.93   10.61
  -3   3 -20   31.19   11.18
   3   3 -20   39.95    8.48
  -3  -3  20   27.53   11.26
   3  -3  20   30.49   11.19
  -3   4 -20   -0.06    0.98
   4   3 -20    1.16    1.34
  -3   4 -20   -0.81    3.19
   4   3 -20    3.43    3.72
   3  -4  20   -5.49    3.95
  -4  -3  20   -0.11    4.56
  -2   4 -20   20.75    5.41
   4   2 -20   21.23    7.03
   4   2 -20   22.16    5.11
  -2   4 -20   20.72    7.06
   2  -4  20   25.22    7.28
  -4  -2  20    9.98    7.74
   4   1 -20    0.09    1.44
  -1   4 -20   -0.46    3.20
   4   1 -20   -0.15    3.78
  -1   4 -20    0.37    1.13
   1  -4  20   -0.36    3.77
  -4  -1  20    1.81    4.53
   0   4 -20   17.78    6.77
   0   4 -20   21.67    5.21
   0  -4  20   17.11    7.10
   1   4 -20    1.62    3.21
  -4   1 -20   -0.59    1.29
   1   4 -20    0.07    1.17
  -1  -4  20    0.18    3.86
   2   4 -20   23.12    6.62
  -4   2 -20   17.69    5.36
   2   4 -20   19.10    5.01
  -2  -4  20   16.28    7.07
   3   4 -20    1.30    1.26
   3   4 -20   -0.72    3.55
  -4   3 -20   -0.21    0.99
  -4   3 -20   -2.09    3.38
  -3  -4  20    4.98    4.10
   4   4 -20    6.70    1.98
  -4   4 -20    5.30    3.85
  -4   4 -20    6.17    1.85
   4   4 -20    7.04    3.94
  -4  -4  20    0.71    4.68
   5   4 -20    2.69    3.77
  -5  -4  20    8.12    4.73
  -3   5 -20   22.84    7.25
   5   3 -20   30.67    7.20
  -3   5 -20   21.27    5.53
   3  -5  20   25.19    7.30
  -5  -3  20    1.29    7.91
   3  -5  20   18.68    5.11
  -2   5 -20   18.94    6.85
   5   2 -20   21.44    7.03
  -2   5 -20   20.31    5.29
   2  -5  20   23.87    7.07
  -5  -2  20    6.34    7.85
   2  -5  20   18.77    4.89
  -1   5 -20   28.15    6.06
   5   1 -20   15.51    7.88
  -1   5 -20   23.50    7.61
   1  -5  20   23.26    5.66
  -5  -1  20   10.35    8.58
   1  -5  20   26.70    7.90
   0   5 -20    0.11    3.04
   0   5 -20   -0.07    1.16
   0  -5  20   -0.58    3.58
   0  -5  20    0.36    1.14
   1   5 -20   21.06    7.36
   1   5 -20   26.03    5.73
  -1  -5  20   14.40    7.69
  -1  -5  20   20.16    5.44
   2   5 -20   20.78    5.72
   2   5 -20   30.96    7.20
  -2  -5  20   17.13    7.62
  -2  -5  20   22.49    5.50
   3   5 -20   23.94    5.18
   3   5 -20   23.93    6.81
  -3  -5  20   19.88    5.02
  -3  -5  20    8.96    7.28
   4   5 -20    3.72    3.54
  -4  -5  20    3.52    4.25
  -3   6 -20   13.01    4.07
  -3   6 -20   14.10    5.56
   3  -6  20   16.96    5.70
   3  -6  20   15.94    3.73
  -2   6 -20    8.69    3.89
   6   2 -20   -5.15    4.49
  -2   6 -20    8.06    2.08
   2  -6  20    6.67    1.83
  -6  -2  20    0.13    5.40
   2  -6  20    9.55    4.12
  -1   6 -20    5.29    3.70
  -1   6 -20    6.10    1.73
   6   1 -20   -0.10    1.69
   6   1 -20    4.38    4.26
   1  -6  20    9.23    3.80
   1  -6  20    4.80    1.50
  -6  -1  20    0.14    5.27
   0   6 -20    1.42    1.36
   0   6 -20    0.89    3.39
   0  -6  20    2.88    3.69
   0  -6  20    2.25    1.15
   1   6 -20    4.54    1.80
   1   6 -20    2.14    3.49
  -1  -6  20    5.68    1.63
  -1  -6  20    2.14    3.96
   2   6 -20    2.76    3.75
   2   6 -20    7.89    2.06
  -2  -6  20    6.02    1.85
  -2  -6  20    0.08    4.36
   3   6 -20   18.06    4.94
  -3  -6  20    0.18    5.14
   5   6 -20    3.62    1.56
  -5  -6  20    0.18    1.49
   6   6 -20    0.13    3.91
  -6  -6  20    0.10    4.47
   7   6 -20   -0.10    1.72
   7   6 -20    5.35    4.66
  -7  -6  20    9.41    5.16
  -7  -6  20    0.10    1.70
   7   5 -20    0.41    3.90
   7   5 -20    0.43    1.46
  -7  -5  20   -0.10    1.47
  -7  -5  20   -0.79    4.85
   7   4 -20   26.07    6.22
  -7  -4  20   19.51    6.70
   7   3 -20   -0.67    1.36
  -3   7 -20    2.01    1.51
  -3   7 -20    1.85    3.55
   3  -7  20   -1.25    3.53
   3  -7  20    0.56    0.90
  -2   7 -20    6.75    2.54
  -2   7 -20   10.32    4.01
   2  -7  20    8.60    4.27
   2  -7  20    7.76    2.15
  -1   7 -20    4.87    1.61
  -1   7 -20    4.20    3.35
   1  -7  20    2.31    1.24
   1  -7  20   -2.74    3.68
   0   7 -20   -1.34    1.54
   0   7 -20    0.33    3.26
   0  -7  20   -0.30    1.03
   0  -7  20    0.86    3.54
   1   7 -20    3.19    1.66
   1   7 -20    1.02    3.31
  -1  -7  20   -2.87    3.71
  -1  -7  20    3.45    1.32
   2   7 -20    8.32    3.88
  -2  -7  20    0.49    4.15
   4   7 -20    1.28    1.90
  -4  -7  20    0.09    1.54
   5   7 -20   -2.94    3.90
   5   7 -20    0.96    1.80
  -5  -7  20    0.09    1.43
  -5  -7  20   -1.87    4.33
   6   7 -20    1.34    4.49
  -6  -7  20    9.45    4.94
   7   7 -20   21.23    6.05
   8   7 -20    0.79    1.96
  -8  -7  20   -3.86    5.07
  -8  -7  20   -0.11    1.90
   8   6 -20    8.53    4.40
   8   6 -20    2.89    1.82
  -8  -6  20    0.59    5.21
  -8  -6  20   -0.10    1.62
   8   5 -20    0.46    1.67
   8   5 -20   -0.15    4.33
  -8  -5  20    0.97    5.38
  -8  -5  20    0.10    1.66
   8   4 -20    0.60    4.33
   8   4 -20   -0.25    1.59
  -8  -4  20   -0.65    5.47
   8   3 -20    1.55    1.59
  -3   8 -20    2.36    3.44
  -3   8 -20    0.11    1.88
   8   3 -20   -1.42    4.24
  -8  -3  20    0.84    5.82
   3  -8  20    2.21    1.19
   3  -8  20    4.66    3.64
   8   2 -20   -0.17    3.42
  -2   8 -20   -1.15    1.67
  -2   8 -20   -3.45    3.29
   8   2 -20   -2.84    1.67
   2  -8  20    1.58    1.03
   2  -8  20    1.50    3.70
  -1   8 -20    1.97    1.90
   8   1 -20    1.39    1.77
  -1   8 -20    3.15    3.32
   1  -8  20    7.26    3.59
   1  -8  20    1.07    1.24
   0   8 -20    5.68    1.97
   0   8 -20   -0.11    3.59
   0  -8  20    4.44    1.42
   8   0  20    4.22    4.84
   0  -8  20    1.01    3.68
   3   8 -20   16.51    5.52
  -3  -8  20   26.80    5.83
   4   8 -20   -9.70    3.61
   4   8 -20   -0.92    2.16
  -4  -8  20   -6.58    4.20
  -4  -8  20   -1.70    1.52
   5   8 -20    3.09    1.99
   5   8 -20   -3.95    3.89
  -5  -8  20   -3.93    4.35
  -5  -8  20   -0.69    1.55
   6   8 -20   -0.13    3.96
  -6  -8  20    2.35    4.50
   7   8 -20    1.40    2.26
   7   8 -20    0.14    4.22
  -7  -8  20    1.86    4.66
  -7  -8  20    0.11    1.71
   8   8 -20    0.75    4.51
   8   8 -20    4.24    2.55
  -8  -8  20    4.44    2.01
  -8  -8  20    1.22    4.98
   9   8 -20   -6.62    2.30
   9   8 -20    0.32    4.70
  -9  -8  20    0.35    1.81
  -9  -8  20    4.04    5.36
   9   7 -20    2.05    5.28
   9   7 -20   12.98    3.15
  -9  -7  20    0.12    6.25
  -9  -7  20   12.39    2.80
   9   6 -20    4.46    1.86
   9   6 -20    0.77    4.58
  -9  -6  20    1.50    1.79
  -9  -6  20   -1.14    5.54
   9   5 -20   -1.23    1.70
   9   5 -20    0.15    4.41
  -9  -5  20    0.92    5.80
  -9  -5  20   -0.10    1.67
   9   4 -20    4.30    1.87
   9   4 -20    0.48    4.37
  -9  -4  20    5.82    6.04
  -3   9 -20    3.58    3.49
   9   3 -20    0.17    4.72
  -3   9 -20    1.01    2.14
   9   3 -20    1.51    1.53
  -9  -3  20   -1.50    6.00
   9   2 -20    4.02    4.98
  -2   9 -20    1.74    3.51
   9   2 -20    0.37    1.72
  -2   9 -20    1.42    2.12
   2  -9  20   -0.40    1.19
  -9  -2  20    3.29    5.95
   9   1 -20    0.18    4.62
   9   1 -20    6.14    2.03
  -1   9 -20    3.63    3.51
   1  -9  20    0.08    3.94
  -9  -1  20   -0.49    5.90
   9   0  20  -13.54    7.00
   1   9 -20    1.46    2.40
  -1  -9  20    2.29    1.42
   2   9 -20    0.12    3.37
   2   9 -20    0.39    2.27
  -2  -9  20    0.74    1.44
  -2  -9  20   11.91    4.11
   3   9 -20    0.93    2.17
   3   9 -20   -4.91    3.70
  -3  -9  20    0.29    1.40
  -3  -9  20   -3.96    4.05
   4   9 -20   -0.74    3.65
   4   9 -20    2.61    2.38
  -4  -9  20    2.00    4.08
  -4  -9  20    0.71    1.58
   5   9 -20   -2.84    2.53
   5   9 -20    0.64    3.78
  -5  -9  20   -0.32    1.58
  -5  -9  20   -1.66    4.31
   6   9 -20    7.12    3.97
  -6  -9  20    2.80    4.39
  -6  -9  20    0.11    1.52
   7   9 -20   10.64    3.17
   7   9 -20    3.11    4.71
  -7  -9  20    3.39    5.28
  -7  -9  20    8.95    2.57
   8   9 -20    0.95    2.42
   8   9 -20    0.15    4.43
  -8  -9  20   -1.30    4.69
  -8  -9  20    0.12    1.72
   9   9 -20  -14.59    5.16
   9   9 -20   -0.16    2.81
  -9  -9  20   -6.35    5.59
  -9  -9  20    7.91    1.92
  10   9 -20   -0.17    4.92
  10   9 -20    2.23    2.98
 -10  -9  20    0.25    5.80
 -10  -9  20   -0.13    1.89
  10   8 -20   -3.45    2.40
  10   8 -20  -16.21    5.24
 -10  -8  20    3.15    1.85
 -10  -8  20    0.91    5.59
  10   7 -20    0.17    4.86
  10   7 -20   -4.54    2.11
 -10  -7  20    0.12    1.72
 -10  -7  20  -10.82    6.26
  10   6 -20   -0.11    1.99
  10   6 -20    0.16    4.41
 -10  -6  20    0.11    1.72
 -10  -6  20   -1.92    6.02
  10   5 -20    0.50    4.67
  10   5 -20    0.69    1.81
 -10  -5  20    0.11    1.72
 -10  -5  20   -3.29    6.18
  10   4 -20    0.56    1.64
  10   4 -20    0.17    4.56
 -10  -4  20   -3.97    6.42
  10   3 -20    0.35    4.81
  10   3 -20    2.03    1.62
 -10  -3  20    1.45    6.25
  10   2 -20   -6.79    4.71
  10   2 -20    3.21    1.71
 -10  -2  20    3.33    6.30
  -1  10 -20   -2.66    2.13
  10   1 -20   -0.11    1.79
   1 -10  20    0.19    1.29
 -10  -1  20    0.17    6.18
   0  10 -20   11.16    4.66
   0  10 -20   15.61    3.82
   0 -10  20    8.79    2.84
   0 -10  20    7.92    4.92
   1  10 -20    1.38    2.36
   1  10 -20   -1.60    3.48
  -1 -10  20    3.59    3.85
  -1 -10  20    1.09    1.34
   2  10 -20    0.63    2.49
   2  10 -20    4.68    3.49
  -2 -10  20    4.24    1.53
  -2 -10  20   -0.85    3.89
   3  10 -20    4.69    3.36
   3  10 -20    0.47    2.49
  -3 -10  20    0.32    1.53
  -3 -10  20   -2.77    3.91
   4  10 -20   -4.16    3.74
   4  10 -20    0.16    2.50
  -4 -10  20   -1.24    4.01
  -4 -10  20   -0.11    1.58
   5  10 -20    1.18    3.73
   5  10 -20    3.13    2.64
  -5 -10  20    1.72    1.64
  -5 -10  20   -2.89    4.17
   6  10 -20    0.27    3.86
   6  10 -20    1.02    2.80
  -6 -10  20    0.12    1.54
  -6 -10  20   -0.29    4.50
   7  10 -20   -0.18    2.65
   7  10 -20    3.03    4.17
  -7 -10  20    1.24    4.68
   8  10 -20    0.76    4.29
   8  10 -20    5.49    2.96
  -8 -10  20   -4.36    5.08
  -8 -10  20    6.37    2.07
   9  10 -20   -0.16    4.70
   9  10 -20    0.19    3.13
  -9 -10  20   -0.12    5.29
  -9 -10  20    2.19    1.97
  10  10 -20    0.17    5.24
  10  10 -20   -0.20    3.21
 -10 -10  20    0.74    5.58
 -10 -10  20    0.14    2.06
  11  10 -20   -3.95    3.42
  11  10 -20   -6.62    5.35
 -11 -10  20   -2.42    6.33
 -11 -10  20    0.15    2.29
  11   9 -20   -4.77    5.34
  11   9 -20    2.14    2.84
 -11  -9  20   -7.73    2.02
 -11  -9  20   -4.49    6.19
  11   8 -20    0.16    2.65
  11   8 -20    0.18    5.24
 -11  -8  20    1.12    6.36
 -11  -8  20    0.13    1.68
  11   7 -20    0.13    2.35
  11   7 -20   -0.18    5.05
 -11  -7  20   -0.24    1.92
 -11  -7  20   11.19    6.51
  11   6 -20   31.94   10.88
 -11  -6  20   62.53   11.97
  11   5 -20    6.50    5.10
  11   5 -20   -3.38    1.85
 -11  -5  20   -7.35    1.81
 -11  -5  20   -2.04    6.73
  11   4 -20    0.36    4.86
  11   4 -20    3.28    1.85
 -11  -4  20    0.17    7.04
 -11  -4  20    0.11    1.80
  11   3 -20   -1.30    5.11
  11   3 -20   -4.79    1.75
 -11  -3  20    0.17    6.95
  -2  11 -20    0.11    3.51
  11   2 -20   -2.30    5.03
  11   2 -20    0.80    1.84
 -11  -2  20    1.59    6.60
  11   1 -20    7.46    3.58
  -1  11 -20   17.44    5.24
 -11  -1  20   14.06    8.14
   0  11 -20    0.94    3.37
   0 -11  20    0.22    1.39
  11   0  20   -3.14    6.97
   1  11 -20   11.69    4.55
   1  11 -20   15.31    5.46
  -1 -11  20   15.18    3.76
   2  11 -20    1.38    2.64
   2  11 -20   -0.98    3.52
  -2 -11  20    2.07    1.60
   3  11 -20    3.88    2.60
   3  11 -20   -2.49    3.65
  -3 -11  20   -1.85    1.58
  -3 -11  20    2.06    4.08
   4  11 -20    0.13    3.71
   4  11 -20    0.72    2.59
  -4 -11  20    0.12    1.61
  -4 -11  20   -1.56    4.08
   5  11 -20    1.48    2.80
   5  11 -20    0.13    3.85
  -5 -11  20   -5.76    4.43
  -5 -11  20    0.12    1.64
   6  11 -20   -0.56    3.10
   6  11 -20    0.14    4.36
  -6 -11  20   -1.29    2.06
  -6 -11  20   10.42    5.02
   7  11 -20    0.15    4.01
  -7 -11  20    1.13    4.53
   8  11 -20    0.15    4.40
   8  11 -20    0.61    3.23
  -8 -11  20    2.50    2.03
  -8 -11  20   -0.77    4.87
   9  11 -20    1.65    4.80
   9  11 -20    5.67    3.41
  -9 -11  20    0.15    2.02
  -9 -11  20    0.94    5.43
  10  11 -20   -5.41    4.96
  10  11 -20   -8.46    3.59
 -10 -11  20   -1.37    5.58
 -10 -11  20    0.78    2.28
  11  11 -20    0.37    5.20
  11  11 -20    0.23    3.63
 -11 -11  20   -0.80    5.93
 -11 -11  20    0.16    2.23
  12  11 -20  -19.04    5.98
  12  11 -20   -5.10    3.85
 -12 -11  20   -5.72    2.47
 -12 -11  20   -9.71    6.97
  12  10 -20    0.39    5.95
  12  10 -20   -0.22    3.35
 -12 -10  20    0.32    2.24
 -12 -10  20    5.97    6.82
 -12  -9  20   -2.40    2.39
  12   8 -20    1.00    2.80
  12   8 -20    1.90    5.53
 -12  -8  20    4.90    7.00
 -12  -8  20    0.14    2.16
  12   7 -20    3.17    5.47
  12   7 -20   -0.14    2.48
 -12  -7  20    4.82    6.91
 -12  -7  20    2.44    1.93
  12   6 -20    2.69    2.21
  12   6 -20    2.22    5.31
 -12  -6  20    0.12    1.92
 -12  -6  20  -12.84    7.54
  12   5 -20    0.11    1.91
  12   5 -20   -6.02    5.27
 -12  -5  20   -3.22    7.26
 -12  -5  20   -1.81    1.87
  12   4 -20    1.70    1.96
  12   4 -20   -6.70    5.44
 -12  -4  20    0.12    1.94
 -12  -4  20  -20.90    7.96
  12   3 -20   -3.97    1.89
  12   3 -20   -8.61    5.48
 -12  -3  20  -12.03    7.75
  12   2 -20    4.42    2.30
  -2  12 -20    5.14    4.04
  12   2 -20    4.83    5.59
 -12  -2  20   14.64    7.62
  12   1 -20    0.11    1.97
  -1  12 -20    6.96    3.80
  12   1  20   -4.36    7.44
   0  12 -20   24.65    5.88
  12   0  20   -7.15    8.63
   1  12 -20   -4.56    3.72
  12  -1  20   -1.46    7.99
   2  12 -20    3.23    3.90
   3  12 -20   -0.13    3.65
  -3 -12  20   -0.13    1.71
   4  12 -20    0.14    3.90
  -4 -12  20   -0.14    1.76
   5  12 -20   -2.93    3.87
  -5 -12  20    0.14    1.81
   6  12 -20    0.14    4.07
  -6 -12  20   -0.21    4.42
  -6 -12  20   -0.14    1.88
   7  12 -20    0.15    4.23
  -7 -12  20    0.86    4.86
   8  12 -20    0.16    4.26
  -8 -12  20    6.51    5.08
  -8 -12  20    1.09    2.10
   9  12 -20  -15.58    5.30
  -9 -12  20    0.16    2.27
  -9 -12  20  -13.24    6.07
  10  12 -20   -0.18    5.20
 -10 -12  20    0.17    2.27
 -10 -12  20   -0.25    5.89
  11  12 -20   -0.19    5.40
 -11 -12  20    8.36    6.28
 -11 -12  20    0.19    2.69
  12  12 -20   -3.61    5.71
 -12 -12  20   -2.89    6.66
  13  11 -20    2.75    6.14
  13  11 -20   -2.53    3.79
 -13 -11  20   -4.00    7.36
 -13 -11  20    0.19    2.51
  13  10 -20    5.87    5.91
  13  10 -20   -4.20    3.87
 -13 -10  20    1.70    2.49
 -13 -10  20    6.40    7.29
  13   9 -20    6.56    5.96
  13   9 -20   -0.21    3.40
 -13  -9  20    0.32    2.31
 -13  -9  20   11.02    7.48
  13   8 -20   -2.78    3.80
 -13  -8  20   -4.59    2.56
  13   7 -20    1.40    2.66
  13   7 -20   -2.96    5.59
 -13  -7  20  -12.69    7.87
 -13  -7  20    0.14    2.08
  13   6 -20   -5.90    5.51
  13   6 -20    0.13    2.29
 -13  -6  20    0.13    2.04
 -13  -6  20   10.75    8.11
  13   5 -20   -2.80    5.64
  13   5 -20   -4.42    2.07
 -13  -5  20   -8.88    8.38
 -13  -5  20    0.13    1.85
  13   4 -20   -9.27    5.58
  13   4 -20    2.54    2.01
 -13  -4  20    1.90    8.01
 -13  -4  20    0.13    2.05
  13   3 -20   -0.95    1.90
  13   3 -20    0.41    5.47
 -13  -3  20    7.50    7.96
  13   2 -20   -0.96    1.92
  13   2 -20    4.81    5.47
 -13  -2  20    2.91    7.37
  13   1 -20    1.68    2.15
  13   1  20    2.76    7.70
  13   0  20    3.04    7.98
 -13   1 -20    3.65    4.68
  13  -1  20   11.67    8.31
  13  -1  20   -4.47    4.01
  14  10 -20  -10.30    6.31
  14  10 -20    3.89    3.98
 -14 -10  20    4.92    8.05
 -14 -10  20    0.18    2.44
  14   9 -20  -11.46    6.24
  14   9 -20   -5.76    3.74
 -14  -9  20   -3.32    8.22
 -14  -9  20    0.17    2.45
  14   8 -20   -7.52    6.32
  14   8 -20    2.50    3.34
 -14  -8  20  -18.36    8.27
 -14  -8  20    0.15    2.16
  14   7 -20   -8.59    2.86
  14   7 -20    0.21    5.89
 -14  -7  20    3.13    8.30
 -14  -7  20   -2.57    2.25
  14   6 -20   11.42    4.13
 -14  -6  20    0.14    3.65
 -14  -6  20   18.75   11.72
  14   5 -20    0.39    2.30
  14   5 -20    3.34    5.77
 -14  -5  20  -16.75    9.02
 -14  -5  20    0.13    2.08
  14   4 -20   14.89    5.92
  14   4 -20   -1.52    2.23
 -14  -4  20    3.01    2.24
 -14  -4  20    5.62    8.57
  14   3 -20    1.56    1.99
  14   3 -20   -5.26    5.60
 -14  -3  20    0.80    7.59
 -14  -3  20    0.79    2.08
  14   2 -20   -2.51    1.97
 -14  -2  20    6.87    7.64
  14   1 -20   -7.59    2.20
  14   1  20  -11.75    8.50
  14   0  20   14.41   10.13
 -14   1 -20   -2.03    5.60
  14  -1  20    5.32    8.69
  14  -1  20    2.07    4.36
  15   9 -20  -10.14    6.51
  15   9 -20    1.38    3.68
 -15  -9  20    0.18    2.48
 -15  -9  20   14.19    8.98
  15   8 -20    1.47    3.54
  15   8 -20    5.44    6.06
 -15  -8  20   -0.76    8.75
 -15  -8  20    0.17    2.38
  15   7 -20   -0.22    6.34
  15   7 -20    6.42    3.10
 -15  -7  20    0.46    2.23
 -15  -7  20   -8.43    9.17
  15   6 -20   -4.11    5.97
 -15  -6  20    0.14    2.10
 -15  -6  20    8.03    9.46
 -15  -5  20   -1.40    2.15
 -15   0 -20  -19.71    8.17
 -15   1 -20   -7.48    9.67
  15  -2  20  527.78  187.14
  16   1  20   10.02    9.80
 -16   0 -20   -0.47    6.51
  16   0  20   -7.42    9.43
 -16   1 -20   -4.19    6.88
 -16   1 -20    2.19   10.16
  16  -1  20    7.88    5.59
  16  -1  20   -4.41    8.92
  16  -2  20   -3.17    5.36
  16  -2  20    2.19    8.64
  17   1  20   -9.07    9.99
 -17   0 -20  -21.78   11.02
 -17   0 -20   -2.67    7.39
  17   0  20    0.53    9.83
 -17   1 -20    9.64   11.10
 -17   1 -20   -6.07    7.86
  17  -1  20    9.33    6.19
  17  -1  20    2.24    9.90
 -17   2 -20    7.79    8.70
  17  -2  20    8.37    9.20
  17  -2  20   12.44    6.66
   0   1 -21    8.68    2.72
   1   1 -21   -1.13    1.64
  -1   1 -21   -1.27    1.56
   2   1 -21    0.76    1.56
  -1   2 -21    1.27    1.33
  -1   2 -21    3.32    3.65
   1  -2  21   -4.71    4.21
  -2  -1  21   -2.21    4.52
   0   2 -21    0.86    3.61
   0   2 -21   -1.88    1.50
   0  -2  21   -7.61    4.48
   1   2 -21   -1.73    3.62
  -2   1 -21    1.75    1.57
   1   2 -21    2.42    1.50
  -1  -2  21    1.08    4.34
   2   2 -21    0.09    1.50
   2   2 -21    0.59    3.63
  -2   2 -21    0.84    1.31
   2  -2  21   -3.52    4.03
  -2  -2  21   -1.59    4.42
   3   2 -21   17.26    6.23
   3   2 -21   20.53    4.26
  -2   3 -21   15.32    4.44
  -2   3 -21   13.25    6.15
  -3  -2  21    9.55    6.79
   2  -3  21   20.54    6.61
  -1   3 -21   -1.75    3.66
  -1   3 -21    0.58    1.26
   3   1 -21    0.10    1.52
  -3  -1  21    4.67    4.61
   1  -3  21   -6.49    4.42
   0   3 -21    8.37    2.82
   0   3 -21   15.14    4.68
   0  -3  21    6.94    5.21
  -3   1 -21   -0.34    1.48
   1   3 -21    2.58    3.57
   1   3 -21    1.49    1.34
  -1  -3  21    5.62    4.66
   2   3 -21   19.16    5.76
   2   3 -21   13.63    3.95
  -3   2 -21   11.89    4.17
  -2  -3  21   13.77    6.46
   3   3 -21   -1.53    3.87
  -3   3 -21   -0.19    1.12
   3   3 -21   -0.08    1.49
  -3   3 -21   -1.07    3.59
  -3  -3  21  -11.69    4.81
   3  -3  21    0.42    3.94
  -3   4 -21   14.87    3.81
   4   3 -21   15.67    5.56
  -3   4 -21   10.01    5.64
  -4  -3  21    6.72    6.47
   3  -4  21   15.68    6.01
   4   2 -21    4.59    1.73
   4   2 -21    5.32    3.89
  -2   4 -21    3.42    3.55
  -2   4 -21    0.44    1.33
  -4  -2  21    4.93    5.11
   2  -4  21    1.96    4.28
   4   1 -21   18.06    6.31
   4   1 -21   20.39    4.35
  -1   4 -21    7.43    6.04
  -1   4 -21   22.09    4.49
   1  -4  21   19.09    6.55
  -4  -1  21    4.54    7.00
   0   4 -21   -0.63    3.58
   0   4 -21    0.78    1.22
   0  -4  21    2.34    4.36
   1   4 -21   25.48    6.12
  -4   1 -21    9.18    4.76
   1   4 -21   19.51    4.41
  -1  -4  21   11.73    6.54
   2   4 -21    6.54    3.67
   2   4 -21    0.53    1.37
  -4   2 -21    1.05    1.30
  -2  -4  21   -0.10    4.31
   3   4 -21   11.15    5.67
   3   4 -21   19.61    3.90
  -3  -4  21    8.09    6.21
   4   4 -21   -0.13    3.68
  -3   5 -21    5.16    2.04
  -3   5 -21    5.24    4.21
   3  -5  21    7.84    1.87
   3  -5  21    6.83    4.49
  -2   5 -21    9.55    5.44
  -2   5 -21   18.28    3.79
   5   2 -21    1.72    5.58
   2  -5  21   15.17    3.53
  -5  -2  21    6.34    6.65
   2  -5  21   19.26    5.82
  -1   5 -21    4.89    1.45
  -1   5 -21    3.81    3.55
   5   1 -21   -3.68    4.08
   1  -5  21    2.05    1.35
   1  -5  21    3.18    4.06
  -5  -1  21    2.42    5.01
   0   5 -21   14.95    4.05
   0   5 -21   19.49    5.67
   0  -5  21   16.84    3.84
   0  -5  21    5.30    5.97
   1   5 -21    3.03    1.57
   1   5 -21    8.81    3.73
  -1  -5  21    3.28    1.55
  -1  -5  21    0.94    4.21
   2   5 -21   13.94    3.50
   2   5 -21   12.24    5.17
  -2  -5  21    6.54    5.78
   3   5 -21    5.63    3.99
  -3  -5  21    6.95    4.82
   5   5 -21   -0.09    1.45
   5   5 -21   -0.13    3.17
  -5  -5  21    0.09    1.47
  -5  -5  21   -0.11    3.83
   6   5 -21    0.14    3.87
  -6  -5  21   -4.08    4.83
   6   4 -21   16.93    6.21
  -6  -4  21   23.46    6.86
  -3   6 -21    4.16    4.11
  -3   6 -21    7.12    2.30
   3  -6  21    7.80    2.02
   3  -6  21    8.44    4.40
  -2   6 -21    8.49    5.52
  -2   6 -21   17.90    3.88
   2  -6  21   14.69    5.73
   2  -6  21   12.18    3.51
  -1   6 -21    3.04    3.55
  -1   6 -21    2.59    1.47
   1  -6  21    1.82    1.29
   1  -6  21    5.46    4.03
   0   6 -21    0.47    3.51
   0   6 -21    0.32    1.40
   0  -6  21   -1.86    3.91
   0  -6  21   -0.46    1.23
   1   6 -21    2.65    1.54
   1   6 -21    5.40    3.55
  -1  -6  21    0.27    4.16
  -1  -6  21    4.32    1.49
   2   6 -21   19.66    5.13
  -2  -6  21    2.97    5.51
   4   6 -21    5.95    2.68
  -4  -6  21    7.11    2.43
   5   6 -21    0.13    3.87
   5   6 -21    2.47    1.79
  -5  -6  21    0.10    1.50
  -5  -6  21    3.35    4.78
   6   6 -21    1.52    4.08
  -6  -6  21    0.78    5.12
   7   6 -21    0.15    4.39
   7   6 -21    0.39    1.73
  -7  -6  21   -9.14    5.24
  -7  -6  21    3.39    1.66
   7   5 -21   -0.15    4.43
   7   5 -21    2.90    1.51
  -7  -5  21  -16.01    5.64
  -7  -5  21   -0.10    1.61
   7   4 -21   -8.35    4.46
   7   4 -21   -1.98    1.71
  -7  -4  21    2.34    5.42
  -3   7 -21    1.77    3.65
   7   3 -21    0.53    1.61
  -3   7 -21   -0.77    1.52
   7   3 -21    0.48    4.48
   3  -7  21   -2.90    4.00
   3  -7  21    1.66    1.01
  -7  -3  21   -3.80    5.57
   7   2 -21    0.57    1.60
  -2   7 -21    0.94    1.67
  -2   7 -21   -2.38    3.81
   7   2 -21   17.04    4.21
   2  -7  21    2.33    1.18
   2  -7  21   -2.23    3.96
  -1   7 -21    1.32    3.60
   7   1 -21   -1.13    1.86
  -1   7 -21    0.45    1.66
   1  -7  21    1.93    1.14
   1  -7  21    5.66    3.92
   0   7 -21   -1.21    3.57
   0   7 -21    2.35    1.53
   0  -7  21    0.79    1.26
   0  -7  21   -1.10    4.01
   1   7 -21    7.25    3.79
  -1  -7  21   -0.09    3.96
   3   7 -21   17.79    5.95
  -3  -7  21   28.95    6.24
   4   7 -21   -0.13    4.07
   4   7 -21   -6.26    2.53
  -4  -7  21   -1.52    1.61
  -4  -7  21   -4.61    5.33
   5   7 -21  -11.73    4.41
   5   7 -21    1.64    2.17
  -5  -7  21    0.10    1.53
  -5  -7  21   -7.62    5.15
   6   7 -21    0.14    4.26
  -6  -7  21    0.10    1.47
  -6  -7  21   -3.74    4.93
   7   7 -21    8.79    4.53
   7   7 -21    0.11    1.96
  -7  -7  21    2.76    1.82
  -7  -7  21   -0.90    5.16
   8   7 -21    6.09    4.87
   8   7 -21   10.21    2.28
  -8  -7  21   -6.00    5.42
  -8  -7  21    0.78    2.10
   8   6 -21   -0.15    4.35
   8   6 -21   -1.58    1.83
  -8  -6  21    5.59    5.23
  -8  -6  21   -0.11    1.70
   8   5 -21    0.15    4.29
   8   5 -21   -3.19    1.66
  -8  -5  21   -2.88    5.65
  -8  -5  21    0.11    1.74
   8   4 -21   -0.63    1.55
   8   4 -21   -0.80    4.62
  -8  -4  21   -6.20    5.97
   8   3 -21   -6.88    4.68
  -3   8 -21   -1.19    3.91
  -3   8 -21    1.88    1.88
   8   3 -21    0.55    1.68
  -8  -3  21   -7.62    6.05
  -2   8 -21    3.07    2.18
   8   2 -21    0.18    4.57
  -2   8 -21    5.69    4.24
   8   2 -21    1.85    1.97
  -8  -2  21   -0.16    6.17
   2  -8  21    5.82    4.45
   2  -8  21    5.48    1.56
   8   1 -21   -1.78    1.83
  -1   8 -21   -3.23    3.82
   1  -8  21   -7.30    4.08
  -8  -1  21    1.31    5.82
   1  -8  21    3.30    1.13
   1   8 -21   -1.87    1.92
  -1  -8  21   -0.09    1.24
   2   8 -21    2.17    2.75
   2   8 -21   14.55    4.39
  -2  -8  21   15.28    4.67
   3   8 -21   -0.71    2.15
   3   8 -21  -12.11    3.97
  -3  -8  21    0.96    1.46
  -3  -8  21   -3.97    4.51
   4   8 -21   -0.57    2.05
   4   8 -21    0.13    3.86
  -4  -8  21    0.29    1.41
  -4  -8  21   -0.96    4.62
   5   8 -21    1.77    2.09
   5   8 -21   -0.14    4.10
  -5  -8  21    1.29    4.64
  -5  -8  21    0.10    1.59
   6   8 -21    3.17    4.32
   6   8 -21   -0.12    2.08
  -6  -8  21   -0.31    4.71
  -6  -8  21    0.11    1.64
   7   8 -21    3.78    4.55
   7   8 -21    4.42    2.30
  -7  -8  21   -6.00    4.90
   8   8 -21    0.16    4.59
   8   8 -21   -0.70    2.41
  -8  -8  21   -0.12    1.82
  -8  -8  21    3.19    5.33
   9   8 -21   20.79    6.17
   9   8 -21   16.54    3.76
  -9  -8  21    3.67    3.24
  -9  -8  21   10.12    6.86
   9   7 -21   -0.16    4.48
   9   7 -21    0.50    2.22
  -9  -7  21    1.97    5.81
  -9  -7  21    0.35    1.90
   9   6 -21   -2.12    4.69
   9   6 -21    0.99    1.93
  -9  -6  21    0.67    1.76
  -9  -6  21    2.97    5.75
   9   5 -21    0.16    4.61
   9   5 -21    1.30    1.89
  -9  -5  21    6.07    5.89
  -9  -5  21    0.11    1.76
   9   4 -21    1.61    1.67
   9   4 -21    0.17    4.52
  -9  -4  21   -0.75    6.27
   9   3 -21    1.32    1.76
   9   3 -21    0.18    4.86
  -9  -3  21    7.15    6.46
   9   2 -21    0.10    1.65
   9   2 -21   -4.61    4.81
  -2   9 -21    4.03    3.65
  -9  -2  21    1.49    6.13
   2  -9  21   -0.08    3.82
   9   1 -21   -2.71    1.98
  -9  -1  21    5.34    6.02
   0   9 -21    1.76    2.28
   0  -9  21    0.91    1.34
   1   9 -21   -0.40    2.13
   1   9 -21    1.34    3.71
  -1  -9  21    0.87    4.07
  -1  -9  21    1.02    1.40
   2   9 -21    0.25    3.61
   2   9 -21    2.05    2.30
  -2  -9  21   -5.90    4.31
  -2  -9  21   -0.20    1.39
   3   9 -21   -2.82    3.79
   3   9 -21    1.41    2.38
  -3  -9  21    1.01    4.10
  -3  -9  21    0.62    1.51
   4   9 -21    4.23    4.01
   4   9 -21    1.91    2.32
  -4  -9  21    0.11    1.63
  -4  -9  21    1.99    4.30
   5   9 -21    1.10    3.84
   5   9 -21    3.10    2.38
  -5  -9  21   -0.50    4.43
  -5  -9  21    2.37    1.74
   6   9 -21    2.31    4.44
   6   9 -21    5.38    2.52
  -6  -9  21    0.11    1.65
  -6  -9  21   -5.90    4.65
   7   9 -21   -0.15    4.25
  -7  -9  21   -3.11    4.95
   8   9 -21    1.62    5.39
   8   9 -21    8.28    3.34
  -8  -9  21    8.66    6.14
  -8  -9  21    5.55    2.68
   9   9 -21   -0.17    2.96
   9   9 -21   -9.08    5.12
  -9  -9  21    0.38    5.89
  -9  -9  21   -9.35    2.07
  10   9 -21    0.18    5.23
  10   9 -21    0.18    3.02
 -10  -9  21    5.38    2.03
 -10  -9  21    2.42    6.10
  10   8 -21   -1.36    2.55
  10   8 -21    6.80    5.07
 -10  -8  21    0.13    1.90
 -10  -8  21    2.47    5.97
  10   7 -21    0.91    2.43
 -10  -7  21    4.25    2.02
 -10  -7  21   -0.85    6.53
  10   6 -21   -0.11    1.87
  10   6 -21    1.91    5.03
 -10  -6  21   -7.25    6.52
 -10  -6  21   -9.05    1.87
  10   5 -21    0.18    4.84
  10   5 -21    1.46    1.93
 -10  -5  21   -1.39    6.43
 -10  -5  21    0.11    1.79
  10   4 -21    0.18    4.88
  10   4 -21    1.88    1.85
 -10  -4  21   -0.16    6.93
  10   3 -21    0.10    1.65
  10   3 -21  -11.04    5.06
 -10  -3  21   -5.25    6.80
  10   2 -21   -2.89    1.90
  -2  10 -21   -1.18    2.15
  10   2 -21    0.19    4.87
   2 -10  21   -1.00    1.20
 -10  -2  21   -4.55    6.80
  10   1 -21    6.85    2.21
  -1  10 -21    4.43    2.78
  -1  10 -21    5.84    3.90
 -10  -1  21   -0.36    6.95
   1 -10  21    4.72    4.35
   1 -10  21    2.10    1.66
   0  10 -21   -2.02    2.46
   0  10 -21    0.74    3.62
   0 -10  21   -1.58    1.38
   0 -10  21    1.03    4.06
   1  10 -21   16.67    4.24
   1  10 -21    2.17    2.88
  -1 -10  21   -0.63    4.64
  -1 -10  21    7.16    2.10
   2  10 -21   -1.66    3.67
   2  10 -21    1.43    2.59
  -2 -10  21    1.50    1.47
  -2 -10  21   -3.01    4.17
   3  10 -21   -3.60    2.49
   3  10 -21    5.49    3.77
  -3 -10  21    0.47    4.27
  -3 -10  21   -0.11    1.60
   4  10 -21    3.59    2.69
   4  10 -21    3.94    3.96
  -4 -10  21    0.12    1.65
  -4 -10  21    1.53    4.33
   5  10 -21    3.79    4.26
   5  10 -21    0.50    2.73
  -5 -10  21   -0.59    1.73
  -5 -10  21    0.91    4.54
   6  10 -21    3.20    4.12
   6  10 -21    2.08    2.76
  -6 -10  21   -2.73    4.80
  -6 -10  21   -1.48    1.83
   7  10 -21    6.43    4.53
  -7 -10  21    4.50    5.19
   8  10 -21    0.16    4.53
   8  10 -21    0.19    2.85
  -8 -10  21    0.13    1.97
  -8 -10  21    1.05    5.11
   9  10 -21    0.17    4.91
   9  10 -21    0.58    3.09
  -9 -10  21    0.14    1.92
  -9 -10  21   -1.85    5.54
  10  10 -21    3.54    3.23
  10  10 -21    0.18    5.26
 -10 -10  21   -4.14    6.07
 -10 -10  21    0.15    2.14
  11  10 -21   -5.10    6.53
  11  10 -21   -7.82    3.75
 -11 -10  21   -8.51    2.47
  11   9 -21   -3.57    3.11
  11   9 -21    2.32    5.52
 -11  -9  21   -3.90    2.09
 -11  -9  21   -0.29    6.46
  11   8 -21    1.26    2.63
  11   8 -21   -0.19    5.45
 -11  -8  21    0.13    1.98
 -11  -8  21    4.51    6.90
  11   7 -21    5.95    2.54
  11   7 -21    1.85    5.30
 -11  -7  21  -10.80    7.08
 -11  -7  21    0.13    2.02
  11   6 -21   -0.12    2.16
  11   6 -21   -4.24    5.22
 -11  -6  21   -3.84    1.89
 -11  -6  21    0.64    6.92
  11   5 -21   -5.64    5.67
  11   5 -21   -3.80    2.08
 -11  -5  21    0.96    1.92
 -11  -5  21  -17.80    7.64
  11   4 -21   -0.77    5.33
  11   4 -21    2.94    2.04
 -11  -4  21   -4.89    1.90
 -11  -4  21  -16.03    7.73
  11   3 -21   -5.28    1.89
  11   3 -21    0.20    5.05
 -11  -3  21    4.15    7.43
  11   2 -21    6.72    5.59
  11   2 -21    2.11    2.33
  -2  11 -21    2.42    3.91
 -11  -2  21    9.61    7.49
   2 -11  21    9.56    4.41
  -1  11 -21    1.23    3.68
  11   1 -21    2.64    2.19
   1 -11  21   -2.02    4.28
   1 -11  21    0.55    1.50
   0  11 -21   24.58    7.42
   0 -11  21   21.05    7.73
   0 -11  21   18.33    5.36
   1  11 -21   -4.56    2.71
   1  11 -21   -5.10    3.90
  -1 -11  21   -1.23    1.53
  -1 -11  21    3.01    4.23
   2  11 -21   -0.18    2.79
   2  11 -21    3.51    4.03
  -2 -11  21    9.62    4.66
  -2 -11  21    7.45    2.08
   3  11 -21   -5.16    2.91
   3  11 -21   -0.13    3.69
  -3 -11  21    0.12    1.56
  -3 -11  21    1.25    4.29
   4  11 -21    2.09    4.13
   4  11 -21   -5.58    2.96
  -4 -11  21   -6.89    4.51
  -4 -11  21   -0.74    1.79
   5  11 -21    4.02    3.14
   5  11 -21    0.14    4.09
  -5 -11  21    0.13    1.76
  -5 -11  21    0.50    4.71
   6  11 -21    0.20    3.02
   6  11 -21    0.15    4.34
  -6 -11  21    0.21    4.73
  -6 -11  21    0.13    1.74
   7  11 -21    0.16    4.50
  -7 -11  21   -0.88    4.95
   8  11 -21    0.16    4.60
   8  11 -21    2.54    3.31
  -8 -11  21    1.16    2.08
  -8 -11  21    0.59    5.40
   9  11 -21    0.17    4.90
   9  11 -21   -2.20    3.62
  -9 -11  21   -0.15    2.22
  -9 -11  21    5.85    5.58
  10  11 -21   -9.97    5.89
  10  11 -21   -0.23    3.79
  11  11 -21    0.24    3.69
  11  11 -21    0.40    5.55
 -11 -11  21    3.89    6.68
 -11 -11  21    0.17    2.26
  12  11 -21    1.01    3.93
  12  11 -21    1.06    6.15
 -12 -11  21   -1.68    7.13
 -12 -11  21   -8.62    2.57
  12  10 -21   -0.21    6.03
  12  10 -21    1.36    3.54
 -12 -10  21    0.17    2.47
 -12 -10  21  -11.87    7.04
  12   9 -21  -13.89    3.73
 -12  -9  21    0.16    2.25
 -12  -9  21   -9.28    7.62
  12   8 -21  -14.54    3.55
  12   8 -21  -17.23    6.16
 -12  -8  21  -12.33    2.70
  12   7 -21   -0.39    5.76
  12   7 -21   -1.03    2.66
 -12  -7  21    5.48    7.28
 -12  -7  21    0.13    2.04
  12   6 -21   -0.99    5.50
  12   6 -21    0.13    2.14
 -12  -6  21    3.11    7.55
 -12  -6  21    0.65    1.93
  12   5 -21    0.23    2.05
  12   5 -21   -5.99    5.53
 -12  -5  21    0.13    1.97
 -12  -5  21    7.29    8.13
  12   4 -21   -7.73    5.69
  12   4 -21    2.85    2.04
 -12  -4  21    9.82    7.81
 -12  -4  21    1.25    2.08
  12   3 -21   -1.27    2.05
  12   3 -21   -5.20    5.48
 -12  -3  21    8.24    7.94
  12   2 -21    1.09    2.05
  -2  12 -21   -2.01    3.78
  12   2 -21   -5.98    5.89
 -12  -2  21  -10.90    7.78
  -1  12 -21    7.45    5.00
  12   1 -21    7.63    3.19
   0  12 -21   -2.88    4.21
  12   0  21   10.24    7.61
   1  12 -21   20.27    6.27
   2  12 -21   -0.68    3.93
  -2 -12  21   -1.48    1.68
   3  12 -21    0.14    3.83
  -3 -12  21    1.52    1.83
  -3 -12  21    0.50    4.54
   4  12 -21    0.14    3.95
  -4 -12  21   -3.27    4.62
  -4 -12  21    0.14    1.81
   5  12 -21    3.26    4.25
   5  12 -21   -2.73    3.14
  -5 -12  21    2.56    4.81
  -5 -12  21    0.14    1.79
   6  12 -21   -7.66    4.36
   6  12 -21   -1.08    3.07
  -6 -12  21    1.65    4.99
  -6 -12  21    0.15    2.03
   7  12 -21    0.16    4.71
  -7 -12  21    3.85    5.30
   8  12 -21    1.62    3.71
   8  12 -21   -2.72    5.30
  -8 -12  21   -1.44    5.95
  -8 -12  21   -7.10    2.53
   9  12 -21    0.24    3.79
   9  12 -21    0.36    5.08
  -9 -12  21    0.17    2.35
  -9 -12  21    4.89    5.90
  10  12 -21    0.19    5.41
  10  12 -21    0.25    4.01
 -10 -12  21    1.95    2.50
 -10 -12  21    5.54    6.45
  11  12 -21    2.80    5.75
 -11 -12  21   -3.32    6.79
  13  10 -21    0.22    6.39
  13  10 -21   -0.24    3.74
 -13 -10  21   -3.35    7.63
 -13 -10  21    0.18    2.39
  13   9 -21    0.86    3.49
  13   9 -21    2.98    6.39
 -13  -9  21   -3.78    2.53
 -13  -9  21   -5.17    8.18
  13   8 -21   -8.39    6.36
  13   8 -21    4.20    3.24
 -13  -8  21    0.75    2.34
 -13  -8  21    0.35    7.95
  13   6 -21  -11.77    5.95
  13   6 -21    0.57    2.51
 -13  -6  21   -0.82    2.12
 -13  -6  21   -7.58    8.15
  13   5 -21    0.13    2.17
  13   5 -21    1.91    5.68
 -13  -5  21    0.13    2.05
 -13  -5  21   10.10    8.58
  13   4 -21  -15.20    6.17
  13   4 -21    0.12    2.15
 -13  -4  21   -8.03    8.59
 -13  -4  21    0.13    2.05
  13   3 -21   -5.42    5.77
  13   3 -21    1.91    2.14
 -13  -3  21   15.79    8.15
  13   2 -21    0.22    5.67
  13   2 -21    0.11    1.97
 -13  -2  21    0.20    8.03
  13   1 -21   -0.12    2.24
  13   0  21   10.91    9.03
  14  10 -21   -4.12    6.68
 -14 -10  21   -0.36    8.58
  14   9 -21    9.15    6.55
  14   9 -21   -6.53    3.69
 -14  -9  21   -8.72    8.89
 -14  -9  21   -0.17    2.43
  14   8 -21    0.44    6.37
  14   8 -21   -4.65    3.61
 -14  -8  21  -14.16    8.97
 -14  -8  21    0.16    2.30
  14   7 -21   -3.75    3.06
  14   7 -21    4.62    6.45
 -14  -7  21    2.39    2.21
 -14  -7  21    2.75    8.62
  14   6 -21  -10.40    6.44
  14   6 -21   -0.59    2.59
 -14  -6  21    1.00    2.21
 -14  -6  21   15.63    9.11
  14   5 -21   -1.37    2.82
 -14  -5  21   -9.97    2.42
  14   4 -21  -10.59    2.77
  14   4 -21  -18.51    6.86
 -14  -4  21   -0.14    2.51
 -14  -4  21  -18.63    9.86
  14   3 -21   -0.83    2.15
  14   3 -21   -1.34    5.88
 -14  -3  21    0.28    2.14
 -14  -3  21   -8.88    8.27
  14   2 -21    6.87    2.61
 -14  -2  21    0.21    8.14
  14   1 -21    0.12    2.18
  14   0  21   -8.44    8.84
  15   9 -21    1.16    6.92
 -15  -9  21  -12.15    9.57
  15   8 -21    3.96    3.56
  15   8 -21    9.68    6.65
 -15  -8  21    0.34    2.50
 -15  -8  21   -6.97    9.53
  15   7 -21   11.33    6.47
  15   7 -21    0.38    3.16
 -15  -7  21   -5.59    2.30
 -15  -7  21   -0.21    9.19
  15   6 -21  -11.09    6.49
  15   6 -21    7.19    2.91
 -15  -6  21   -0.15    2.29
 -15  -6  21    2.65    9.74
  15   5 -21   -6.91    6.29
  15   5 -21   -7.76    2.48
 -15  -5  21   -0.15    2.29
 -15  -5  21   21.06    9.76
 -15  -4  21    0.14    2.13
 -15  -3  21   -4.46    2.34
  15   0  21  -20.14   11.08
  16   0  21    7.44    9.96
  16  -1  21   13.95   10.30
 -17   0 -21   -5.66   10.76
  17   0  21   -3.60    9.89
  17  -1  21  -15.65   11.08
   0   1 -22    0.29    1.73
  -1   1 -22   -0.10    1.71
   1   1 -22    2.00    1.73
  -1   2 -22    0.59    1.48
   2   1 -22    0.81    1.65
   1  -2  22   -1.36    4.36
   0   2 -22    0.47    4.06
   0   2 -22    0.09    1.54
   0  -2  22    3.13    4.48
  -2   1 -22    0.46    1.53
   1   2 -22   -0.80    1.58
   1   2 -22   -4.99    3.87
  -1  -2  22   -4.47    4.86
  -2   2 -22    4.72    1.82
   2   2 -22    5.65    4.31
   2   2 -22    5.07    1.92
   2  -2  22    5.49    4.54
  -2  -2  22   -3.40    4.89
   3   2 -22   -0.09    1.33
   3   2 -22    0.48    4.05
  -2   3 -22   -1.76    3.86
  -2   3 -22    0.51    1.28
   2  -3  22   -3.55    4.56
  -3  -2  22    6.70    4.97
   3   1 -22   11.73    3.04
  -1   3 -22   11.14    3.00
  -1   3 -22   12.48    4.93
   1  -3  22    9.79    5.48
  -3  -1  22    3.69    5.71
   0   3 -22   -2.20    3.85
   0   3 -22    1.06    1.36
   0  -3  22   -2.49    4.68
   1   3 -22   10.22    2.75
   1   3 -22   12.81    4.87
  -3   1 -22    6.59    2.92
  -1  -3  22    4.47    5.54
   2   3 -22   -5.93    3.77
  -3   2 -22    0.15    1.35
   2   3 -22   -0.68    1.44
  -2  -3  22    2.59    4.76
  -3   3 -22    5.75    1.87
  -3   3 -22    3.95    4.13
   3   3 -22    1.95    4.18
   3  -3  22    8.96    4.75
  -3  -3  22    5.07    5.28
  -3   4 -22    2.51    1.31
  -3   4 -22    2.91    3.92
   3  -4  22    2.02    4.62
  -2   4 -22   17.98    5.43
  -2   4 -22   13.94    3.64
   2  -4  22   13.42    5.85
  -1   4 -22    1.67    1.31
  -1   4 -22    2.48    3.88
   1  -4  22   -6.61    4.53
  -4  -1  22   -0.15    4.99
   0   4 -22   13.94    5.10
   0   4 -22   13.13    3.22
   0  -4  22    2.32    5.82
  -4   1 -22   -0.58    1.42
   1   4 -22    0.86    1.37
   1   4 -22    2.08    3.74
  -1  -4  22    1.35    4.70
   2   4 -22   19.62    4.58
   2   4 -22   -0.08    2.13
  -2  -4  22    2.30    5.36
   4   4 -22    3.30    1.69
   5   4 -22   -0.09    1.81
   5   4 -22    6.42    4.45
  -5  -4  22   10.19    5.66
  -3   5 -22    3.01    1.50
   5   3 -22    4.85    1.89
  -3   5 -22    2.75    4.09
   3  -5  22    5.45    4.55
   3  -5  22    3.29    1.36
   5   2 -22    3.73    1.84
  -2   5 -22    2.49    3.91
  -2   5 -22    4.40    1.46
   2  -5  22    1.60    4.34
   2  -5  22    1.45    1.32
  -1   5 -22    5.17    1.72
  -1   5 -22    3.51    3.96
   1  -5  22    7.39    4.53
   1  -5  22    1.49    1.58
   0   5 -22    1.32    1.38
   0   5 -22   -1.30    3.76
   0  -5  22   -2.73    4.46
   0  -5  22    1.00    1.27
   1   5 -22    0.13    3.93
   1   5 -22    7.62    1.97
  -1  -5  22    6.80    4.74
   2   5 -22   -0.13    3.80
   4   5 -22   20.15    6.08
  -4  -5  22   26.00    6.83
   5   5 -22    1.27    1.76
   5   5 -22    1.71    4.06
  -5  -5  22   -3.65    5.06
  -6  -5  22   -1.98    5.35
   6   4 -22   -0.47    4.58
  -6  -4  22    0.13    5.49
  -3   6 -22    4.42    1.83
   6   3 -22   -7.03    4.70
  -3   6 -22    2.51    4.02
  -6  -3  22   -0.14    5.66
   6   2 -22    2.07    4.28
  -2   6 -22    4.04    4.05
  -2   6 -22    2.21    1.64
   2  -6  22    4.15    1.28
  -6  -2  22   -8.50    5.53
   2  -6  22    4.55    4.36
  -1   6 -22    5.31    4.04
  -1   6 -22    2.84    1.86
   1  -6  22    4.87    1.72
  -6  -1  22   23.85    5.24
   1  -6  22    0.19    4.60
   0   6 -22    6.99    1.86
   0   6 -22    3.44    4.20
   0  -6  22    2.88    1.58
   0  -6  22    1.25    4.60
   1   6 -22   -0.13    3.69
   3   6 -22   26.26    6.68
   4   6 -22    0.27    4.13
   4   6 -22   -0.85    1.85
  -4  -6  22   -0.69    1.59
  -4  -6  22  -11.95    5.61
   5   6 -22   -2.92    2.00
   5   6 -22   -1.55    4.20
  -5  -6  22  -15.25    5.65
  -5  -6  22    0.10    1.67
   6   6 -22   -0.15    4.37
  -6  -6  22    0.10    1.62
  -6  -6  22  -14.19    5.41
   7   6 -22   -3.31    1.89
   7   6 -22    0.15    4.47
  -7  -6  22    0.13    5.46
  -7  -6  22   -0.11    1.62
   7   5 -22    0.19    1.60
   7   5 -22    0.16    4.51
  -7  -5  22    2.67    1.70
  -7  -5  22    4.07    5.51
   7   4 -22    0.33    4.25
   7   4 -22   -0.91    1.73
  -7  -4  22   -3.67    5.93
   7   3 -22   -0.17    4.64
  -3   7 -22   -0.27    1.56
   7   3 -22    1.31    1.75
  -7  -3  22   -0.15    5.96
  -2   7 -22    1.99    1.65
   7   2 -22    2.33    1.82
  -2   7 -22    4.71    4.09
   7   2 -22  -10.01    4.75
   2  -7  22   -9.43    4.67
   2  -7  22    1.60    1.18
  -7  -2  22    1.25    5.65
  -1   7 -22   -0.64    3.86
  -1   7 -22    5.38    1.70
   7   1 -22    1.20    2.08
   1  -7  22    2.34    1.36
  -7  -1  22    5.25    5.64
   1   7 -22   -0.10    1.72
   2   7 -22   11.20    4.30
   2   7 -22    1.78    2.27
  -2  -7  22   20.46    4.88
  -2  -7  22    4.35    2.01
   3   7 -22   -0.14    4.03
   3   7 -22    0.20    1.88
  -3  -7  22   -6.14    5.15
  -3  -7  22   -1.55    1.54
   4   7 -22   -9.18    3.87
  -4  -7  22   -3.72    2.11
   5   7 -22    0.14    4.52
  -5  -7  22    0.10    1.64
  -5  -7  22  -12.35    6.50
   6   7 -22   -0.56    2.01
   6   7 -22    0.15    4.46
  -6  -7  22    3.01    5.31
  -6  -7  22   -0.11    1.59
   7   7 -22   -0.12    1.85
   7   7 -22   -0.16    4.56
  -7  -7  22    0.12    5.32
   8   7 -22   -6.51    4.82
   8   7 -22    1.56    2.16
  -8  -7  22    2.33    1.87
  -8  -7  22   -5.54    5.65
   8   6 -22    4.07    4.64
   8   6 -22    0.32    1.93
  -8  -6  22   -2.67    5.74
  -8  -6  22   -0.11    1.93
   8   5 -22   -5.78    4.73
   8   5 -22    2.78    1.81
  -8  -5  22    0.11    1.74
  -8  -5  22    4.41    5.95
   8   4 -22    1.72    4.67
   8   4 -22    3.31    1.82
  -8  -4  22    7.63    6.35
   8   3 -22   -3.77    1.75
   8   3 -22   -1.25    4.68
  -8  -3  22    1.11    6.22
   8   2 -22    0.10    1.80
   8   2 -22    0.19    5.08
  -2   8 -22    2.20    4.03
  -8  -2  22   -1.32    5.86
   2  -8  22    0.71    4.34
   8   1 -22    4.00    2.20
  -8  -1  22    4.13    6.14
   0   8 -22   -1.90    1.88
   0  -8  22   -1.47    1.25
   1   8 -22   -0.12    1.90
   1   8 -22    1.06    4.02
  -1  -8  22   -0.09    1.33
  -1  -8  22    2.90    4.39
   2   8 -22   -2.62    1.95
   2   8 -22   -6.21    3.97
  -2  -8  22    0.95    1.43
  -2  -8  22    2.10    4.58
   3   8 -22   -5.38    4.08
   3   8 -22    0.47    2.00
  -3  -8  22    3.30    4.66
  -3  -8  22    0.30    1.46
   4   8 -22    1.33    2.11
   4   8 -22   -3.55    4.16
  -4  -8  22    0.10    1.57
  -4  -8  22    0.31    4.71
   5   8 -22    2.50    2.29
   5   8 -22   -0.15    4.31
  -5  -8  22    6.75    5.05
  -5  -8  22   -0.11    1.73
   6   8 -22    3.07    4.49
   6   8 -22    7.35    2.36
  -6  -8  22   -1.56    1.86
  -6  -8  22    3.59    5.11
   7   8 -22    0.64    4.54
  -7  -8  22   -1.56    5.25
   8   8 -22   37.84    7.72
   8   8 -22   31.33    9.83
  -8  -8  22   23.18   10.39
   9   8 -22    0.14    2.44
   9   8 -22    0.18    5.00
  -9  -8  22   -3.72    6.15
  -9  -8  22   -0.13    1.96
   9   7 -22   13.69    3.98
   9   7 -22   26.41    6.98
  -9  -7  22    2.07    3.64
  -9  -7  22   22.41    7.93
   9   6 -22    3.62    5.05
   9   6 -22    2.55    2.17
  -9  -6  22    5.36    6.35
  -9  -6  22    1.06    2.02
   9   5 -22   -3.49    1.91
   9   5 -22    0.18    4.95
  -9  -5  22   -5.79    6.47
  -9  -5  22   -0.12    1.85
   9   4 -22    1.61    1.89
   9   4 -22    1.82    5.05
  -9  -4  22    0.16    6.72
   9   3 -22   -3.19    1.75
   9   3 -22    0.57    4.95
  -9  -3  22    3.36    6.65
   9   2 -22    2.21    1.89
   9   2 -22    0.20    4.95
  -9  -2  22   -4.86    6.35
  -1   9 -22   -1.77    2.30
   9   1 -22    0.11    2.20
   1  -9  22   -1.17    1.51
  -9  -1  22    6.70    6.48
   0   9 -22    0.94    2.23
   0   9 -22   -1.17    3.78
   0  -9  22   -6.75    4.34
   0  -9  22   -2.50    1.44
   1   9 -22   -1.95    2.55
   1   9 -22    0.93    4.04
  -1  -9  22    0.39    1.55
  -1  -9  22   -7.54    4.56
   2   9 -22  -11.54    4.05
   2   9 -22    0.58    2.41
  -2  -9  22   -1.66    1.60
  -2  -9  22   -6.94    4.51
   3   9 -22    1.11    3.85
   3   9 -22    0.14    2.36
  -3  -9  22   -4.55    4.43
  -3  -9  22   -0.11    1.53
   4   9 -22    2.88    2.60
   4   9 -22    4.14    4.24
  -4  -9  22    9.38    4.87
  -4  -9  22    4.06    2.04
   5   9 -22   -0.15    4.30
   5   9 -22   -1.19    2.49
  -5  -9  22   -0.22    4.96
  -5  -9  22   -0.11    1.60
   6   9 -22    2.96    4.44
   6   9 -22    3.53    2.78
  -6  -9  22    0.90    5.25
  -6  -9  22    4.52    1.95
   7   9 -22   21.18    6.87
  -7  -9  22   11.50    7.12
   8   9 -22    3.95    2.85
   8   9 -22    0.17    4.94
  -8  -9  22    0.13    1.94
  -8  -9  22   -4.40    5.47
   9   9 -22    0.68    2.87
   9   9 -22    0.18    5.19
  -9  -9  22   -4.00    6.15
  -9  -9  22    0.27    1.93
  10   9 -22   -7.11    3.11
  10   9 -22    0.38    5.66
 -10  -9  22    0.14    2.02
 -10  -9  22   -3.33    6.51
  10   8 -22    0.16    2.88
  10   8 -22    0.19    5.35
 -10  -8  22   10.83    7.09
 -10  -8  22    4.55    2.13
  10   7 -22   -0.18    5.14
  10   7 -22   -0.14    2.29
 -10  -7  22    0.13    1.89
 -10  -7  22    0.61    6.53
  10   6 -22    0.18    5.12
  10   6 -22   -4.34    2.02
 -10  -6  22    0.49    1.88
 -10  -6  22   -7.98    6.67
  10   5 -22   -0.19    5.60
  10   5 -22    0.11    2.02
 -10  -5  22   -4.49    7.24
 -10  -5  22    0.12    2.09
  10   4 -22   -0.19    5.12
  10   4 -22    0.31    1.83
 -10  -4  22   -5.73    7.00
  10   3 -22   -0.20    5.35
  10   3 -22    0.31    1.88
 -10  -3  22    4.64    7.06
  -2  10 -22    3.50    3.92
  10   2 -22   -3.50    2.00
  10   2 -22    0.21    5.08
  -2  10 -22    1.98    2.19
   2 -10  22   -1.30    1.24
   2 -10  22    1.82    4.40
 -10  -2  22   -1.10    7.06
  10   1 -22   -0.12    2.08
  -1  10 -22    0.79    3.95
  -1  10 -22    6.71    2.54
   1 -10  22   -0.09    4.36
   1 -10  22   -1.07    1.36
   0  10 -22    7.76    2.99
   0  10 -22    2.40    4.24
   0 -10  22    5.46    1.86
   0 -10  22    1.14    4.81
   1  10 -22    1.46    2.68
   1  10 -22    5.00    3.98
  -1 -10  22    3.00    4.56
  -1 -10  22    0.21    1.58
   2  10 -22    1.00    2.73
   2  10 -22    7.14    4.05
  -2 -10  22   -0.79    4.65
  -2 -10  22    1.90    1.66
   3  10 -22    3.84    2.67
   3  10 -22   -1.40    4.14
  -3 -10  22    0.40    4.61
  -3 -10  22    0.12    1.59
   4  10 -22   -0.15    4.42
   4  10 -22    0.69    2.75
  -4 -10  22    0.12    1.67
  -4 -10  22    3.33    4.87
   5  10 -22    3.54    3.02
   5  10 -22    1.35    4.29
  -5 -10  22    7.86    2.09
  -5 -10  22   -2.68    5.09
   6  10 -22   -0.62    4.43
   6  10 -22    4.93    2.98
  -6 -10  22    1.91    5.07
  -6 -10  22    0.13    1.87
   7  10 -22    0.16    4.87
  -7 -10  22   -0.12    5.25
   8  10 -22    4.16    5.26
   8  10 -22    6.27    3.17
  -8 -10  22    5.55    5.80
  -8 -10  22    0.42    2.16
   9  10 -22    0.18    5.24
   9  10 -22   -6.51    3.12
  -9 -10  22    1.46    5.83
  -9 -10  22   -1.47    2.05
  10  10 -22    9.32    5.35
  10  10 -22    0.20    7.48
 -10 -10  22   34.00    8.95
 -10 -10  22   19.47    4.67
  11  10 -22   -9.77    5.94
  11  10 -22    8.61    3.69
 -11 -10  22    1.53    7.02
 -11 -10  22    5.57    2.47
  11   9 -22  171.39   37.78
 -11  -9  22  197.74   39.27
  11   8 -22    0.20    5.59
  11   8 -22    4.80    2.80
 -11  -8  22    0.28    2.03
 -11  -8  22   -7.22    7.36
  11   7 -22   -4.26    2.42
  11   7 -22   -1.37    5.57
 -11  -7  22    0.13    1.86
 -11  -7  22   -1.63    7.31
  11   6 -22    2.76    2.29
  11   6 -22    1.18    5.47
 -11  -6  22   -7.25    7.52
 -11  -6  22    0.91    2.03
  11   5 -22    6.43    5.29
  11   5 -22    0.12    1.90
 -11  -5  22  -11.28    7.47
 -11  -5  22   -7.33    2.05
  11   4 -22  -12.06    5.44
  11   4 -22   -4.90    1.92
 -11  -4  22    1.12    7.49
 -11  -4  22   -0.13    2.05
  11   3 -22    1.83    2.14
  11   3 -22   18.46    6.21
 -11  -3  22    3.42    7.89
  11   2 -22    0.67    2.18
  11   2 -22    7.35    5.65
  -2  11 -22   -1.46    4.02
 -11  -2  22   -0.77    7.60
  11   1 -22   11.20    3.54
  -1  11 -22   13.84    5.49
   1 -11  22    7.79    3.03
   1 -11  22    8.94    5.82
   0  11 -22   -0.68    4.05
   0  11 -22    2.86    2.72
   0 -11  22    0.48    4.60
   0 -11  22   -1.71    1.52
   1  11 -22   22.61    6.02
   1  11 -22   21.22    4.84
  -1 -11  22    8.68    6.33
  -1 -11  22   12.80    3.93
   2  11 -22   -3.95    2.99
   2  11 -22    0.57    4.08
  -2 -11  22   -7.81    4.84
  -2 -11  22   -0.36    1.74
   3  11 -22   -4.94    2.99
   3  11 -22    2.60    4.06
  -3 -11  22   -0.62    1.66
  -3 -11  22   -3.21    4.74
   4  11 -22    1.80    4.44
   4  11 -22    1.76    3.14
  -4 -11  22    6.67    4.77
  -4 -11  22    0.13    1.78
   5  11 -22   -7.27    4.63
   5  11 -22   -1.81    3.18
  -5 -11  22    0.94    1.97
  -5 -11  22    0.11    4.96
   6  11 -22    0.16    4.59
   6  11 -22    4.97    3.33
  -6 -11  22   -2.30    5.16
  -6 -11  22    0.14    1.92
   7  11 -22    0.17    4.84
  -7 -11  22    1.08    5.36
   8  11 -22    1.99    3.58
   8  11 -22   -5.08    5.07
  -8 -11  22    3.17    5.66
  -8 -11  22   -2.74    2.07
   9  11 -22   23.24    7.42
   9  11 -22   14.95   10.22
  -9 -11  22    1.27    5.67
  10  11 -22    0.40    5.82
  10  11 -22   -2.40    3.92
 -10 -11  22   -0.17    2.40
 -10 -11  22    2.01    6.56
  11  11 -22    7.75    4.10
  11  11 -22    0.21    5.99
 -11 -11  22    3.63    7.15
 -11 -11  22    0.17    2.43
  12  11 -22   -8.27    6.74
 -12 -11  22   -8.82    7.88
  12  10 -22   -0.22    6.03
  12  10 -22    1.90    3.85
 -12 -10  22   -0.17    2.58
 -12 -10  22   -6.46    7.77
  12   9 -22    0.21    5.95
  12   9 -22   -8.84    3.54
 -12  -9  22   -2.69    2.29
 -12  -9  22    2.37    7.74
 -12  -8  22  -10.19    3.07
  12   7 -22   -3.11    2.84
  12   7 -22   -2.70    6.01
 -12  -7  22   -8.83    2.31
 -12  -7  22  -22.79    9.02
  12   6 -22   -5.05    5.92
  12   6 -22    0.55    2.41
 -12  -6  22    3.91    8.01
 -12  -6  22   -0.14    2.11
  12   5 -22   -3.69    2.14
  12   5 -22    1.28    5.85
 -12  -5  22   -0.13    2.12
 -12  -5  22    0.20    7.99
  12   4 -22   -3.13    2.05
  12   4 -22   -4.11    5.66
 -12  -4  22   -0.13    2.04
 -12  -4  22   10.34    8.33
  12   3 -22   -1.01    2.05
  12   3 -22   13.86    5.96
 -12  -3  22   -2.82    8.02
  12   2 -22   -0.23    6.02
 -12  -2  22  -33.81   10.81
  12   1 -22   -0.12    2.44
  -1  12 -22   -7.24    4.07
   1 -12  22   -2.26    4.61
   0  12 -22    5.43    5.29
   0 -12  22   15.73    5.86
   1  12 -22   -0.14    4.26
  -1 -12  22   -0.61    4.77
  -1 -12  22    1.87    1.64
   2  12 -22    2.60    4.41
  -2 -12  22    0.74    4.85
  -2 -12  22    8.77    2.16
   3  12 -22   -4.74    4.24
  -3 -12  22   -1.53    1.86
  -3 -12  22    3.65    5.00
   4  12 -22    0.62    4.39
   4  12 -22   -2.79    3.18
  -4 -12  22   -1.01    1.82
  -4 -12  22    0.99    4.97
   5  12 -22    3.04    4.80
   5  12 -22   10.59    3.51
  -5 -12  22    0.45    1.96
  -5 -12  22   -3.36    4.96
   6  12 -22    0.17    4.63
   6  12 -22   -3.83    3.38
  -6 -12  22   -1.66    2.05
  -6 -12  22   -7.53    5.38
   7  12 -22    0.17    5.13
  -7 -12  22    0.16    2.31
  -7 -12  22   -4.86    6.04
   8  12 -22   -9.79    6.12
   8  12 -22  -19.06    4.64
   9  12 -22   -1.00    3.75
   9  12 -22    0.76    5.34
  -9 -12  22   -0.17    2.24
  -9 -12  22   -7.60    6.24
  10  12 -22   -3.91    3.80
  10  12 -22   -1.81    5.62
 -10 -12  22   10.08    6.66
 -10 -12  22    0.18    2.47
  13  10 -22    0.25    3.21
  13  10 -22   -2.53    6.71
 -13 -10  22   -5.93    8.68
  13   9 -22    1.71    3.66
  13   9 -22    3.13    6.59
 -13  -9  22    0.17    2.39
 -13  -9  22    7.51    8.42
  13   8 -22   12.66    3.64
  13   8 -22    0.22    6.21
 -13  -8  22   -0.19    8.24
 -13  -8  22    1.41    2.63
  13   7 -22   -3.76    6.37
  13   7 -22   -3.89    2.94
 -13  -7  22    0.15    2.27
 -13  -7  22    2.13    8.46
  13   6 -22   -0.22    8.12
  13   6 -22   -6.53    2.86
 -13  -6  22    0.14    2.54
  13   5 -22  -17.36    6.42
 -13  -5  22    0.14    2.33
  13   4 -22   -7.96    6.01
  13   4 -22    0.12    2.08
 -13  -4  22    1.06    8.72
 -13  -4  22    1.10    2.15
  13   3 -22   -0.12    2.13
  13   3 -22    4.81    6.05
 -13  -3  22   -5.74    8.69
  13   2 -22    0.72    2.19
 -13  -2  22   -2.80    8.30
  13   1 -22    2.06    2.53
   6  13 -22   -0.17    5.22
  -6 -13  22  -12.71    6.40
   7  13 -22    0.54    5.51
  -7 -13  22    8.54    6.01
   8  13 -22   -0.19    5.62
  -8 -13  22    6.77    6.37
   9  13 -22   -0.20    5.68
  -9 -13  22   -4.28    6.35
  14   9 -22    6.37    3.96
  14   9 -22    0.94    6.99
 -14  -9  22    3.56    9.57
  14   8 -22   -3.39    3.44
  14   8 -22    0.23    6.64
 -14  -8  22   -8.91    9.42
 -14  -8  22    1.80    2.40
  14   7 -22    2.34    3.08
  14   7 -22  -10.51    6.85
 -14  -7  22    0.21    9.29
 -14  -7  22    1.57    2.42
  14   6 -22    0.16    2.79
  14   6 -22    1.18    6.49
 -14  -6  22    0.45    2.29
 -14  -6  22  -15.43    9.70
  14   5 -22    6.62    6.53
  14   5 -22   -1.67    2.52
 -14  -5  22   10.24    9.44
 -14  -5  22    0.44    2.25
  14   4 -22    0.24    6.20
  14   4 -22    0.53    2.34
 -14  -4  22    5.35    9.36
 -14  -4  22   -0.14    2.22
  14   3 -22   15.23    6.82
  14   3 -22   -1.27    2.32
 -14  -3  22  -22.43    9.76
 -14  -3  22   -6.23    2.39
  14   2 -22    2.61    2.44
  14   1 -22   -2.23    2.43
  15   8 -22    0.22    3.39
  15   8 -22   -1.96    7.12
 -15  -8  22  -26.17   10.33
  15   7 -22   -0.19    3.22
  15   7 -22    0.25    6.94
 -15  -7  22    0.23    9.98
 -15  -7  22    1.79    2.52
  15   6 -22    8.60    6.68
  15   6 -22   -3.72    2.94
 -15  -6  22   -5.61   10.17
 -15  -6  22   -3.14    2.47
  15   5 -22    0.25    6.44
  15   5 -22    0.15    2.61
 -15  -5  22    0.47    9.87
 -15  -5  22    0.15    2.32
  15   4 -22   -6.34    6.36
  15   4 -22    2.73    2.49
 -15  -4  22   -6.63    2.47
 -15  -4  22  -11.85    9.19
  15   3 -22    0.24    6.08
 -15  -3  22   11.75    8.77
 -15  -3  22    1.36    2.47
  17   0  22    3.61    9.80
   0   1 -23    3.74    1.98
   1   1 -23   -1.16    1.74
  -1   1 -23    0.91    1.68
  -1   2 -23   -0.27    1.68
   1  -2  23    1.58    4.75
   0   2 -23   -1.39    1.60
   0  -2  23    2.41    4.63
   1   2 -23    0.66    1.57
  -2   1 -23   -0.98    1.71
   1   2 -23    2.36    4.28
  -1  -2  23  -11.00    5.11
   2   2 -23   -0.85    4.33
  -2   2 -23    0.61    1.56
  -2  -2  23   -2.22    5.16
  -2   3 -23    5.39    4.52
  -2   3 -23    5.67    2.05
   2  -3  23    7.35    4.99
  -1   3 -23   -2.06    4.35
  -1   3 -23    0.83    1.58
   1  -3  23    2.25    4.90
   0   3 -23    4.18    2.19
   0   3 -23    9.54    4.68
   0  -3  23    9.16    5.25
  -3   1 -23    2.26    1.87
   1   3 -23    4.38    1.67
   1   3 -23   -1.43    4.30
  -1  -3  23    4.93    5.08
  -3   2 -23    4.43    1.88
   2   3 -23   -0.16    4.67
  -3   3 -23   -0.73    1.33
  -3   3 -23    4.45    4.18
   3  -3  23   -1.56    4.54
   4   3 -23    2.15    1.97
  -3   4 -23    4.38    1.85
  -3   4 -23    6.02    4.62
   4   3 -23   21.95    4.84
   3  -4  23    2.17    5.14
  -2   4 -23    2.87    4.29
  -2   4 -23    1.17    1.47
   4   2 -23    2.29    1.86
   2  -4  23    7.36    4.87
  -1   4 -23    7.07    4.28
   4   1 -23    1.20    1.97
  -1   4 -23    3.81    1.60
   1  -4  23    0.60    5.01
   0   4 -23   -1.06    1.54
   0   4 -23    0.30    4.01
   0  -4  23   -5.69    5.29
   1   4 -23    9.01    4.30
  -1  -4  23    0.86    5.34
   3   4 -23    1.15    1.73
   4   4 -23   -4.54    4.23
   4   4 -23   -1.08    1.66
  -4  -4  23   -1.44    5.36
   5   4 -23    0.16    4.76
   5   4 -23    0.28    1.73
  -5  -4  23    5.99    5.77
  -3   5 -23    4.13    1.66
  -3   5 -23    3.44    4.60
   5   3 -23    8.47    4.80
   5   3 -23    3.15    1.95
  -5  -3  23    1.74    5.69
  -2   5 -23   -0.14    4.06
  -2   5 -23    3.04    1.49
   5   2 -23    2.53    1.88
   5   2 -23    0.18    4.57
  -5  -2  23    0.91    5.53
   2  -5  23   -1.43    4.86
   2  -5  23    1.86    1.27
  -1   5 -23    0.16    1.31
  -1   5 -23   -1.28    4.18
   5   1 -23    0.78    1.77
   1  -5  23    0.77    4.82
   1  -5  23    2.09    1.36
  -5  -1  23   -5.58    5.27
   0   5 -23   -2.99    4.21
   0  -5  23    3.56    1.37
   0  -5  23   -4.37    4.87
   2   5 -23    1.14    1.58
   3   5 -23    1.02    4.18
   3   5 -23    1.53    1.72
  -3  -5  23    1.20    5.40
   4   5 -23    1.66    1.99
   4   5 -23    3.43    4.47
  -4  -5  23   12.53    5.73
   5   5 -23    0.47    1.79
   5   5 -23    0.15    4.41
  -5  -5  23    7.36    5.47
   6   5 -23    0.16    4.74
   6   5 -23   -1.19    1.73
  -6  -5  23    0.68    5.71
   6   4 -23    0.83    4.57
  -6  -4  23   -0.58    5.77
   6   3 -23   -0.17    4.91
  -6  -3  23    3.63    5.91
  -2   6 -23   16.27    5.30
  -2   6 -23    4.21    2.42
   6   2 -23    6.05    5.47
   2  -6  23    4.85    2.11
  -6  -2  23   -0.63    6.20
  -1   6 -23   -0.82    4.44
  -1   6 -23   -0.09    1.13
   1  -6  23  -14.55    5.14
  -6  -1  23    3.15    5.64
   1  -6  23    6.00    1.28
   1   6 -23   -0.92    1.65
  -1  -6  23   -0.09    1.32
   2   6 -23    2.18    3.03
   2   6 -23   26.30    5.08
  -2  -6  23   29.76    6.10
  -2  -6  23    4.55    2.77
   3   6 -23    3.56    4.36
   3   6 -23    0.10    1.94
  -3  -6  23    3.15    5.29
  -3  -6  23   -0.30    1.67
   4   6 -23    0.15    4.16
   4   6 -23   -0.68    1.93
  -4  -6  23    0.10    1.60
  -4  -6  23    2.91    5.38
   5   6 -23   -1.34    1.89
   5   6 -23   -1.66    4.49
  -5  -6  23    0.48    5.54
  -5  -6  23    1.07    1.67
   6   6 -23    0.16    4.69
   6   6 -23   -1.49    1.83
  -6  -6  23    2.87    1.73
  -6  -6  23   -5.07    5.70
   7   6 -23    0.16    4.51
  -7  -6  23    0.27    5.56
   7   5 -23   -0.17    4.72
   7   5 -23   -0.10    1.83
  -7  -5  23    0.86    5.88
   7   4 -23    5.05    4.79
   7   4 -23    0.10    1.73
  -7  -4  23   -3.81    6.10
   7   3 -23    5.46    4.93
   7   3 -23    0.10    1.79
  -7  -3  23    2.54    6.05
   7   2 -23   -0.19    4.74
   7   2 -23    2.43    1.88
  -2   7 -23    2.71    4.19
   2  -7  23   -0.50    4.57
  -7  -2  23   -0.82    5.95
   2  -7  23   -0.08    1.09
   7   1 -23    0.69    1.94
  -7  -1  23   -0.69    5.76
   0   7 -23    1.33    1.75
   0  -7  23    0.71    1.42
   1   7 -23    2.13    1.87
   1   7 -23   -2.08    4.12
  -1  -7  23    0.37    1.41
  -1  -7  23   -0.94    4.92
   2   7 -23    0.32    1.80
   2   7 -23   -3.23    4.27
  -2  -7  23   -2.56    1.54
  -2  -7  23   -0.11    4.85
   3   7 -23   -6.15    4.38
   3   7 -23    3.81    2.04
  -3  -7  23    0.77    5.29
  -3  -7  23    1.75    1.60
   4   7 -23   -3.47    2.28
   4   7 -23    0.15    4.52
  -4  -7  23   -0.11    1.68
   5   7 -23    0.15    4.40
   5   7 -23   -0.23    2.17
  -5  -7  23    6.52    5.62
  -5  -7  23    0.44    1.74
   6   7 -23   -6.89    4.73
   6   7 -23    1.31    2.24
  -6  -7  23   -5.26    5.61
  -6  -7  23    1.59    1.72
   7   7 -23   -3.77    4.58
  -7  -7  23    0.13    5.62
   8   7 -23   28.79    8.47
   8   7 -23   20.37    6.14
  -8  -7  23   31.04    9.33
   8   6 -23    3.28    4.85
   8   6 -23    1.36    2.04
  -8  -6  23    0.87    6.18
  -8  -6  23    0.12    1.98
   8   5 -23    0.11    1.88
   8   5 -23   -1.24    5.01
  -8  -5  23    0.12    1.82
  -8  -5  23    0.15    6.23
   8   4 -23    0.10    1.70
   8   4 -23    1.10    5.02
  -8  -4  23   -2.91    6.65
   8   3 -23    0.76    5.00
   8   3 -23    4.61    2.08
  -8  -3  23   -1.84    6.42
   8   2 -23   -2.18    1.86
   8   2 -23    1.59    5.04
  -8  -2  23   -3.80    6.43
   8   1 -23    2.11    2.10
  -1   8 -23    1.69    1.88
   1  -8  23    0.25    1.27
   0   8 -23    0.71    4.18
   0   8 -23    0.71    1.99
   0  -8  23   -5.49    4.68
   0  -8  23    0.37    1.26
   1   8 -23   -1.15    4.19
   1   8 -23    1.16    1.96
  -1  -8  23   -0.86    1.43
  -1  -8  23    2.24    4.72
   2   8 -23    3.19    4.22
   2   8 -23   -0.72    2.05
  -2  -8  23   -3.23    4.60
  -2  -8  23    3.22    1.57
   3   8 -23   -2.74    2.11
   3   8 -23    3.70    4.33
  -3  -8  23   -3.48    4.97
  -3  -8  23   -0.11    1.65
   4   8 -23    2.12    4.37
   4   8 -23    0.13    2.22
  -4  -8  23    1.91    5.10
  -4  -8  23    1.20    1.67
   5   8 -23   -8.89    4.70
   5   8 -23   -1.19    2.29
  -5  -8  23   -6.06    5.32
  -5  -8  23    0.11    1.61
   6   8 -23    0.95    2.35
   6   8 -23    0.16    4.43
  -6  -8  23    2.68    5.42
  -6  -8  23    3.76    1.83
   7   8 -23   10.62    7.59
  -7  -8  23   25.80    8.34
   8   8 -23   -6.86    5.15
   8   8 -23   -5.67    2.62
  -8  -8  23    2.40    2.02
  -8  -8  23    5.09    6.02
   9   8 -23    3.02    2.82
   9   8 -23    2.94    5.40
  -9  -8  23    6.61    6.62
  -9  -8  23    4.34    2.23
   9   7 -23   -4.56    5.23
   9   7 -23    0.13    2.26
  -9  -7  23   -2.69    6.57
  -9  -7  23    0.13    1.96
   9   6 -23   -2.93    2.07
   9   6 -23   -7.71    5.63
  -9  -6  23  -13.48    7.24
  -9  -6  23    0.12    2.05
   9   5 -23   -2.62    2.02
   9   5 -23   -0.19    5.25
  -9  -5  23   -2.14    7.22
  -9  -5  23   -0.12    2.02
   9   4 -23   -5.03    5.23
   9   4 -23    1.80    1.90
  -9  -4  23    1.89    6.77
   9   3 -23    0.20    5.17
   9   3 -23    1.48    1.80
  -9  -3  23   -0.18    6.74
   9   2 -23    0.42    5.05
   9   2 -23   -5.01    1.99
  -2   9 -23   -0.68    2.24
   2  -9  23   -0.35    1.25
  -9  -2  23   -8.92    6.61
  -1   9 -23   -1.57    2.40
   9   1 -23   -3.99    2.18
  -1   9 -23   -7.96    4.22
   1  -9  23    0.99    4.73
   1  -9  23   -1.13    1.37
   0   9 -23    0.29    4.32
   0   9 -23   -2.11    2.34
   0  -9  23    0.81    4.77
   0  -9  23   -0.88    1.34
   1   9 -23    0.59    2.39
   1   9 -23   -1.72    4.29
  -1  -9  23    0.41    4.82
  -1  -9  23    0.10    1.55
   2   9 -23   -3.68    4.29
   2   9 -23    0.43    2.46
  -2  -9  23    3.36    4.82
  -2  -9  23   -1.27    1.58
   3   9 -23   -1.35    4.38
   3   9 -23   -1.18    2.48
  -3  -9  23    0.67    1.50
  -3  -9  23    1.08    4.92
   4   9 -23   -0.61    2.53
   4   9 -23    4.93    4.35
  -4  -9  23    0.12    1.80
  -4  -9  23   -7.96    5.12
   5   9 -23    0.16    4.63
   5   9 -23   -1.26    2.46
  -5  -9  23   -1.69    1.90
  -5  -9  23  -13.23    5.38
   6   9 -23   -4.80    5.03
   6   9 -23    4.22    2.90
  -6  -9  23  -10.99    5.85
  -6  -9  23    0.63    2.03
   7   9 -23    1.22    4.92
  -7  -9  23    0.13    5.58
   8   9 -23    0.87    2.88
   8   9 -23    2.91    5.45
  -8  -9  23    9.63    6.07
  -8  -9  23    1.08    2.23
   9   9 -23   -7.26    5.45
   9   9 -23   11.32    3.19
  -9  -9  23   -9.07    6.43
  -9  -9  23    0.99    2.08
 -10  -9  23    0.15    2.48
  10   8 -23   -0.20    5.60
  10   8 -23    0.16    2.56
 -10  -8  23    0.47    6.98
 -10  -8  23   -0.14    2.23
  10   7 -23    2.52    5.52
  10   7 -23    5.91    2.53
 -10  -7  23    0.13    2.11
 -10  -7  23   -4.16    7.05
  10   6 -23  -13.07    5.52
  10   6 -23    0.51    2.22
 -10  -6  23   -2.37    7.17
 -10  -6  23    0.26    1.92
  10   5 -23   -0.12    2.06
  10   5 -23   -0.80    5.35
 -10  -5  23    2.64    7.45
 -10  -5  23    2.15    2.02
  10   4 -23    0.20    5.16
  10   4 -23   -1.22    1.98
 -10  -4  23   -0.55    7.48
  10   3 -23    0.33    2.04
  10   3 -23   -6.96    5.48
 -10  -3  23   -6.02    7.60
  -2  10 -23   -0.70    4.31
  10   2 -23   -0.81    2.07
  -2  10 -23   -1.24    2.41
  10   2 -23    0.44    5.40
 -10  -2  23    1.35    7.21
  -1  10 -23   -8.20    4.03
  -1  10 -23    0.32    2.47
   1 -10  23    7.74    4.86
   1 -10  23   -0.91    1.33
   0  10 -23   -7.86    4.33
   0  10 -23   -1.15    2.63
   0 -10  23   -0.42    1.44
   0 -10  23   -5.64    4.84
   1  10 -23    3.06    2.71
   1  10 -23    0.14    4.17
  -1 -10  23   -7.00    4.93
  -1 -10  23    2.45    1.54
   2  10 -23   -7.81    4.31
   2  10 -23    1.36    2.67
  -2 -10  23    1.27    1.75
  -2 -10  23    0.75    4.83
   3  10 -23   -4.92    2.98
   3  10 -23   -0.15    4.33
  -3 -10  23   -5.22    5.10
  -3 -10  23    0.73    1.82
   4  10 -23    2.72    2.95
   4  10 -23   -0.16    4.71
  -4 -10  23    0.25    1.81
  -4 -10  23   -2.23    5.08
   5  10 -23    3.87    5.05
   5  10 -23    0.19    3.13
  -5 -10  23   21.08    5.63
  -5 -10  23    0.79    2.26
   6  10 -23   12.52    3.34
   6  10 -23    0.34    5.03
  -6 -10  23    2.20    5.59
  -6 -10  23    4.38    2.15
   7  10 -23    0.18    4.97
  -7 -10  23    0.14    2.00
  -7 -10  23    2.03    5.86
   8  10 -23    0.19    5.48
   8  10 -23   -5.56    3.21
  -8 -10  23    0.30    2.12
  -8 -10  23    0.54    6.00
   9  10 -23  -11.11    3.70
   9  10 -23   -4.49    6.02
  -9 -10  23    0.15    2.47
  10  10 -23    1.86    6.20
  10  10 -23   -0.22    3.68
 -10 -10  23   -7.54    6.79
 -10 -10  23   -1.45    2.28
  11  10 -23    0.23    3.56
  11  10 -23    0.22    5.97
 -11 -10  23    0.17    2.42
 -11 -10  23    0.33    7.35
  11   9 -23    0.21    5.87
  11   9 -23    2.53    3.11
 -11  -9  23    3.01    2.37
 -11  -9  23    2.18    7.58
  11   8 -23   32.41    7.86
  11   8 -23    1.04   11.26
 -11  -8  23   35.71    7.16
  11   7 -23    1.44    5.88
  11   7 -23   -6.45    2.58
 -11  -7  23    0.14    2.07
 -11  -7  23  -16.98    7.58
  11   6 -23   -0.21    5.77
  11   6 -23    3.04    2.32
 -11  -6  23    0.13    1.98
 -11  -6  23    6.02    7.71
  11   5 -23    2.34    5.75
  11   5 -23   -4.00    2.25
 -11  -5  23   -0.13    2.10
 -11  -5  23    7.29    8.04
  11   4 -23    2.82    5.72
  11   4 -23   -3.89    1.94
 -11  -4  23   -0.39    7.91
  11   3 -23    3.77    5.55
  11   3 -23    0.23    1.94
 -11  -3  23    0.60    7.84
  11   2 -23   -1.60    5.68
  11   2 -23   -4.64    2.32
 -11  -2  23   11.01    7.58
  -1  11 -23   -5.50    4.32
  -1  11 -23    0.71    2.72
   1 -11  23    1.35    1.47
   1 -11  23   -8.00    5.14
   0  11 -23    6.31    4.81
   0  11 -23    4.24    3.17
   0 -11  23    5.76    2.22
   0 -11  23    9.40    5.42
   1  11 -23    4.00    3.11
   1  11 -23   10.30    4.47
  -1 -11  23   10.83    5.14
  -1 -11  23   -2.54    1.80
   2  11 -23    0.58    3.07
   2  11 -23    6.68    4.49
  -2 -11  23    0.37    1.81
  -2 -11  23    6.90    5.25
   3  11 -23   -3.78    3.12
   3  11 -23   -3.87    4.43
  -3 -11  23    3.36    5.27
  -3 -11  23    0.78    1.75
   4  11 -23    1.59    4.53
   4  11 -23   -4.31    3.15
  -4 -11  23    9.40    5.12
  -4 -11  23   -0.14    1.91
   5  11 -23    3.28    3.30
   5  11 -23   -2.96    4.85
  -5 -11  23    5.30    2.01
  -5 -11  23   -0.94    5.32
   6  11 -23   -2.32    3.44
   6  11 -23    4.09    4.90
  -6 -11  23   -8.28    5.58
  -6 -11  23    0.43    2.00
   7  11 -23    0.22    3.48
   7  11 -23   -2.70    5.15
  -7 -11  23    4.86    5.83
  -7 -11  23   -2.71    2.06
   8  11 -23    3.77    8.22
   8  11 -23    2.49    5.80
   9  11 -23  -13.69    6.01
   9  11 -23    0.23    3.70
  -9 -11  23   -1.48    2.25
  -9 -11  23    0.86    6.32
  10  11 -23   -1.51    4.07
  10  11 -23   -0.21    6.10
 -10 -11  23    0.46    7.14
 -10 -11  23   -0.17    2.51
  11  11 -23    6.50    6.61
 -11 -11  23   -0.16    7.43
  12  10 -23    0.23    6.68
  12  10 -23   10.87    4.44
 -12 -10  23    6.59    8.59
  12   9 -23    0.22    3.55
  12   9 -23    1.11    6.36
 -12  -9  23   -0.83    2.44
 -12  -9  23   -3.97    8.44
  12   8 -23    0.66    6.26
  12   8 -23    0.18    3.04
 -12  -8  23    4.20    8.36
 -12  -8  23    0.15    2.23
 -12  -7  23  -11.43    2.79
  12   6 -23  -10.36    2.82
  12   5 -23   -7.69    6.15
  12   5 -23    0.13    2.32
 -12  -5  23   -2.68    8.92
 -12  -5  23    0.14    2.11
  12   4 -23    0.12    2.11
  12   4 -23  -12.16    6.06
 -12  -4  23    0.41    2.21
 -12  -4  23   -2.09    8.49
  12   3 -23    4.99    2.26
  12   3 -23    3.71    6.08
 -12  -3  23  -14.82    8.51
  12   2 -23   -4.45    2.45
  -1  12 -23   12.61    6.27
   1 -12  23   15.41    6.73
   0  12 -23    0.15    4.47
   0 -12  23    1.39    5.10
   0 -12  23    1.32    1.68
   1  12 -23   22.31    6.15
  -1 -12  23    8.59    3.65
  -1 -12  23   12.08    6.49
   2  12 -23    0.21    3.08
   2  12 -23   10.37    4.73
  -2 -12  23   -1.81    5.23
  -2 -12  23    0.14    1.71
   3  12 -23    0.32    4.68
   3  12 -23   -3.94    3.41
  -3 -12  23   -2.74    1.97
  -3 -12  23   -2.53    5.34
   4  12 -23    4.47    3.30
   4  12 -23    0.17    4.70
  -4 -12  23    0.71    5.26
  -4 -12  23    2.62    2.10
   5  12 -23    3.08    4.94
   5  12 -23    0.92    3.30
  -5 -12  23   -0.91    2.05
  -5 -12  23   -6.86    5.61
   6  12 -23    0.24    3.78
   6  12 -23    0.18    5.16
   7  12 -23  -14.17    4.31
   7  12 -23  -16.80    5.95
  -7 -12  23    0.16    2.42
   8  12 -23    0.38    5.79
  -8 -12  23   13.60    6.55
   9  12 -23    3.27    6.46
   9  12 -23   -0.26    3.83
  -9 -12  23   -7.14    2.45
  -9 -12  23   -3.18    6.71
  13   9 -23   -0.24    6.52
 -13  -9  23    2.69    8.60
  13   8 -23   -0.20    3.38
  13   8 -23    7.72    6.84
 -13  -8  23    1.80    2.30
 -13  -8  23    5.39    9.22
  13   7 -23    2.39    2.96
  13   7 -23    0.23    6.35
 -13  -7  23   -2.08    8.93
 -13  -7  23    0.15    2.12
  13   6 -23    3.45    2.66
  13   6 -23    5.47    6.65
 -13  -6  23   -1.50    9.72
 -13  -6  23    0.15    2.30
  13   5 -23   -3.39    2.55
 -13  -5  23    0.15    2.37
  13   4 -23    6.57    3.31
  13   4 -23    0.24    7.97
 -13  -4  23    0.43    3.24
  13   3 -23    2.16    2.39
  13   3 -23  -14.60    6.62
 -13  -3  23  -15.16    9.06
  13   2 -23    5.37    2.49
 -13  -2  23   -3.62    8.71
   0  13 -23   10.96    5.21
   0 -13  23    4.70    5.72
   1  13 -23   -3.00    4.89
  -1 -13  23   -9.75    5.67
   2  13 -23   -5.32    4.77
  -2 -13  23    8.50    5.63
   3  13 -23    6.11    4.93
  -3 -13  23   -5.41    5.70
  -4 -13  23   48.18   12.19
   5  13 -23   -3.92    5.29
  -5 -13  23    1.56    2.35
  -5 -13  23  -17.97    6.31
   6  13 -23   -0.18    5.41
  -6 -13  23    0.18    2.43
  -6 -13  23   -5.11    6.10
   7  13 -23    0.58    5.47
  -7 -13  23    2.29    6.42
  -7 -13  23    0.94    2.47
   8  13 -23  -13.04    6.11
  -8 -13  23   -3.14    6.90
  14   8 -23  -15.88    7.42
 -14  -8  23    1.08    9.88
  14   7 -23    0.25    7.04
  14   7 -23    2.67    3.10
 -14  -7  23    0.33    2.39
 -14  -7  23   -0.23   10.40
  14   6 -23   -3.79    2.92
  14   6 -23    7.01    7.13
 -14  -6  23   15.37   10.06
 -14  -6  23    0.16    2.32
  14   5 -23    0.50    6.96
  14   5 -23    0.29    2.68
 -14  -5  23    6.89    2.52
 -14  -5  23   -2.34   10.06
  14   4 -23   -8.55    6.91
  14   4 -23    2.19    2.54
 -14  -4  23    0.15    2.38
 -14  -4  23   -6.10    9.30
  14   3 -23   -2.02    2.41
  14   3 -23   -4.81    6.46
 -14  -3  23    2.57    8.97
 -14  -3  23    3.97    2.40
  14   2 -23   -1.45    2.35
  15   7 -23  -20.23    7.75
 -15  -7  23    4.10   11.03
  15   6 -23    2.90    3.06
  15   6 -23    4.45    7.27
 -15  -6  23    0.16    2.52
 -15  -6  23  -14.32   10.89
  15   5 -23   -0.26    6.89
  15   5 -23    1.11    2.78
 -15  -5  23    3.70   10.21
 -15  -5  23   -4.19    2.54
  15   4 -23   -1.16    2.59
  15   4 -23  -23.75    6.84
 -15  -4  23    0.32    2.51
 -15  -4  23   14.44    9.83
  15   3 -23   -2.50    2.55
 -15  -3  23    3.64    8.93
 -15  -3  23    0.80    2.47
  -1   2 -24   -0.67    1.76
   0   2 -24    7.68    2.35
   0  -2  24    1.28    5.42
  -2   2 -24   -0.09    1.67
  -2   3 -24    5.15    4.57
   3   2 -24   24.27    4.54
  -2   3 -24    1.68    1.74
   3   2 -24    0.42    1.86
   2  -3  24   -9.66    5.09
  -1   3 -24    0.68    4.67
  -1   3 -24   -0.71    1.54
   1  -3  24    0.13    5.05
   0   3 -24    3.24    4.31
   0  -3  24   -1.22    5.09
  -3   1 -24   -0.79    1.75
   2   3 -24   -1.07    1.73
  -3   2 -24    0.35    1.61
   3   3 -24    0.17    4.46
   3   3 -24   -0.58    1.70
  -3   3 -24    4.62    1.57
  -3  -3  24    1.45    5.62
   4   3 -24    2.77    2.07
   4   3 -24    3.19    5.04
  -3   4 -24    3.96    1.82
  -4  -3  24   11.45    6.12
   4   2 -24   -1.69    1.95
  -2   4 -24   -7.70    5.21
   4   2 -24   -0.19    4.67
  -2   4 -24    0.31    1.40
  -4  -2  24   -2.79    5.53
   2  -4  24  -14.93    5.58
  -1   4 -24    1.41    1.53
  -1   4 -24    1.63    4.69
   1  -4  24    2.81    5.34
   0   4 -24   -4.07    4.56
   2   4 -24   13.92    6.15
  -2  -4  24   32.17    6.90
   3   4 -24    5.30    4.82
   3   4 -24    2.16    2.10
  -3  -4  24   17.31    6.04
   4   4 -24   -0.29    1.77
   4   4 -24   -0.17    4.85
  -4  -4  24    0.71    5.96
   5   4 -24   -0.17    4.86
   5   4 -24    1.86    1.70
  -5  -4  24   -3.40    6.05
   5   3 -24   -4.54    4.87
   5   3 -24   -0.81    1.69
  -5  -3  24   -6.00    5.82
  -2   5 -24   -0.31    4.81
  -2   5 -24   -0.16    1.44
   5   2 -24    0.11    1.89
   5   2 -24    0.19    4.95
   2  -5  24    0.25    1.32
   2  -5  24  -17.20    5.54
  -5  -2  24   -2.40    5.95
  -1   5 -24    4.52    5.13
   1  -5  24   15.97    6.13
   1   5 -24   -0.27    1.67
   2   5 -24   -2.81    4.58
   2   5 -24    2.52    1.77
  -2  -5  24    7.04    5.77
   3   5 -24   -2.53    4.43
   3   5 -24    2.97    1.85
  -3  -5  24    5.80    5.66
   4   5 -24   -0.20    1.83
   4   5 -24   -8.39    4.59
  -4  -5  24    0.13    5.45
   5   5 -24    6.97    4.72
   5   5 -24   -0.40    1.83
  -5  -5  24    2.90    5.81
   6   5 -24    0.62    1.83
   6   5 -24    0.17    4.73
  -6  -5  24   -3.67    6.00
   6   4 -24   -0.20    1.86
   6   4 -24   -3.40    4.73
  -6  -4  24    2.93    6.27
   6   3 -24    0.19    4.93
  -6  -3  24   -8.17    6.30
  -2   6 -24    0.74    4.54
   6   2 -24    5.29    4.96
  -6  -2  24   -7.14    6.12
   2  -6  24   -6.45    5.19
   0   6 -24    0.09    1.70
   0  -6  24    1.87    1.43
   1   6 -24    0.15    4.29
   1   6 -24    2.15    1.70
  -1  -6  24   -3.62    5.23
  -1  -6  24   -0.30    1.45
   2   6 -24    0.69    1.87
   2   6 -24    4.97    4.54
  -2  -6  24    8.34    5.34
  -2  -6  24    0.21    1.72
   3   6 -24    0.20    1.90
   3   6 -24    4.13    4.49
  -3  -6  24    0.53    1.54
  -3  -6  24    4.04    5.35
   4   6 -24    0.52    1.87
   4   6 -24   -8.12    4.39
  -4  -6  24   -0.11    1.75
  -4  -6  24    5.05    5.63
   5   6 -24   -3.70    4.64
   5   6 -24   -1.17    1.99
  -5  -6  24   -3.68    5.65
  -5  -6  24   -0.11    1.57
   6   6 -24    8.67    5.19
   6   6 -24    5.96    2.63
  -6  -6  24    7.35    2.46
  -6  -6  24    0.14    6.19
   7   6 -24    0.18    4.99
  -7  -6  24    0.29    6.13
   7   5 -24   -0.18    4.91
  -7  -5  24   -3.86    6.45
   7   4 -24  -13.41    4.98
  -7  -4  24    0.16    6.42
   7   3 -24  -14.17    5.05
   7   3 -24    0.84    1.82
  -7  -3  24    0.34    6.34
   7   2 -24   -1.01    2.03
   7   2 -24    0.20    5.11
  -7  -2  24   -2.08    6.24
  -1   7 -24   -1.85    1.78
   1  -7  24   -0.79    1.29
   0   7 -24   -2.50    4.24
   0   7 -24    0.41    1.79
   0  -7  24   -2.22    5.05
   0  -7  24    0.94    1.35
   1   7 -24   -2.05    1.91
   1   7 -24    3.11    4.44
  -1  -7  24    2.19    1.50
  -1  -7  24    6.12    5.23
   2   7 -24    3.81    2.11
   2   7 -24   -0.15    4.45
  -2  -7  24    2.90    5.37
  -2  -7  24    5.33    1.84
   3   7 -24    4.51    2.14
   3   7 -24    1.52    4.34
  -3  -7  24    0.22    1.61
  -3  -7  24   -4.88    5.46
   4   7 -24    3.19    2.04
   4   7 -24    0.47    4.46
  -4  -7  24   -0.61    5.59
  -4  -7  24    0.11    1.77
   5   7 -24    6.58    4.72
   5   7 -24    2.23    2.01
  -5  -7  24   -5.08    5.82
  -5  -7  24    0.12    1.84
   6   7 -24    4.16    4.87
   6   7 -24    4.52    2.29
  -6  -7  24   -0.79    5.87
  -6  -7  24    0.12    1.85
   7   7 -24   37.23   12.01
  -7  -7  24   32.98   12.92
   8   7 -24    0.18    5.28
   8   7 -24    1.60    2.31
  -8  -7  24    0.13    2.06
  -8  -7  24  -10.26    6.42
   8   6 -24    5.13    2.28
   8   6 -24   -0.18    5.49
  -8  -6  24   -5.72    2.05
  -8  -6  24  -17.16    7.09
   8   5 -24   -2.28    5.12
   8   5 -24   -1.11    1.90
  -8  -5  24    0.12    1.81
  -8  -5  24    0.16    6.91
   8   4 -24    3.92    2.07
   8   4 -24    3.13    5.30
  -8  -4  24   -0.86    6.80
   8   3 -24    0.11    2.03
   8   3 -24   -6.28    5.30
  -8  -3  24   -8.29    6.95
  -2   8 -24   -0.15    4.11
  -2   8 -24    0.71    2.26
   8   2 -24   -0.63    5.60
   8   2 -24    0.35    2.21
  -8  -2  24    4.90    6.78
   2  -8  24    2.61    1.44
  -1   8 -24    0.47    2.00
  -1   8 -24    0.15    4.42
   1  -8  24   -7.37    4.97
   1  -8  24   -1.97    1.37
   0   8 -24    4.87    2.68
   0   8 -24    1.51    4.73
   0  -8  24    7.39    2.10
   0  -8  24    9.14    5.56
   1   8 -24   -5.63    4.58
   1   8 -24    0.12    2.09
  -1  -8  24   -3.89    5.14
  -1  -8  24   -0.40    1.54
   2   8 -24    5.08    4.86
   2   8 -24    3.96    2.48
  -2  -8  24    2.98    1.92
  -2  -8  24    4.43    5.51
   3   8 -24   -0.13    2.30
   3   8 -24    0.47    4.37
  -3  -8  24   -0.23    5.29
  -3  -8  24   -1.78    1.64
   4   8 -24   -1.76    4.61
   4   8 -24    2.72    2.28
  -4  -8  24   -3.41    5.59
  -4  -8  24    0.46    1.66
   5   8 -24    1.20    2.22
   5   8 -24    3.12    4.73
  -5  -8  24   -0.12    1.81
  -5  -8  24  -10.49    5.92
   6   8 -24    0.17    5.29
   6   8 -24   -0.55    2.55
  -6  -8  24   -7.13    6.36
  -6  -8  24    0.12    1.93
   7   8 -24    5.10    4.93
  -7  -8  24   -1.67    6.06
   8   8 -24    0.18    5.15
   8   8 -24   -5.21    2.78
  -8  -8  24    0.13    1.97
  -8  -8  24    1.18    6.41
   9   8 -24   -2.14    5.53
   9   8 -24   -4.61    2.78
  -9  -8  24    2.97    6.97
  -9  -8  24   -2.21    2.05
   9   7 -24    0.14    2.14
   9   7 -24    6.95    5.57
  -9  -7  24   -1.90    6.84
  -9  -7  24   -0.93    2.06
   9   6 -24    0.74    2.25
   9   6 -24   -0.19    5.59
  -9  -6  24    0.13    1.87
  -9  -6  24    7.05    7.00
   9   5 -24  -11.82    5.57
   9   5 -24    3.11    2.16
  -9  -5  24   -2.79    7.34
  -9  -5  24    0.13    1.78
   9   4 -24    4.11    6.11
   9   4 -24   -0.11    2.57
  -9  -4  24   22.88    8.12
   9   3 -24    0.85    5.54
   9   3 -24    2.68    2.10
  -9  -3  24    9.14    7.34
   9   2 -24    4.24    2.11
  -2   9 -24    2.89    4.60
   9   2 -24  -11.69    5.43
  -2   9 -24   -1.12    2.31
  -9  -2  24    3.83    7.05
  -1   9 -24    3.53    4.51
  -1   9 -24   -2.11    2.40
   1  -9  24    0.10    1.41
   1  -9  24    6.62    5.06
   0   9 -24   -0.89    2.57
   0   9 -24   -1.55    4.54
   0  -9  24   -1.64    1.52
   0  -9  24    0.55    5.08
   1   9 -24    1.40    4.53
   1   9 -24   -1.16    2.36
  -1  -9  24   -4.56    5.24
  -1  -9  24    1.06    1.56
   2   9 -24   -0.16    4.61
   2   9 -24    3.32    2.57
  -2  -9  24    0.11    5.25
  -2  -9  24    0.67    1.68
   3   9 -24    0.78    2.73
   3   9 -24    0.65    4.94
  -3  -9  24    6.35    1.89
  -3  -9  24   -3.96    5.43
   4   9 -24   37.17    7.98
   4   9 -24   20.61    6.35
  -4  -9  24   26.66    8.37
   5   9 -24    0.17    4.85
   5   9 -24    0.47    2.63
  -5  -9  24    0.12    1.71
  -5  -9  24   -4.34    5.63
   6   9 -24    0.35    5.12
   6   9 -24   -2.57    2.73
  -6  -9  24    3.73    1.87
  -6  -9  24   -7.72    5.95
   7   9 -24   -8.23    5.47
  -7  -9  24    0.13    2.03
  -7  -9  24   -0.14    6.25
   8   9 -24    0.38    5.47
   8   9 -24    0.18    3.10
  -8  -9  24   -0.14    2.20
  -8  -9  24    0.14    6.32
   9   9 -24   -5.30    3.35
   9   9 -24  -18.15    6.12
  -9  -9  24   -9.16    7.46
  -9  -9  24    0.15    2.43
  10   9 -24   -9.04    3.48
  10   9 -24    0.21    5.91
 -10  -9  24   -6.13    7.86
 -10  -9  24    0.15    2.36
  10   7 -24   -0.14    2.42
  10   7 -24    0.20    5.90
 -10  -7  24    0.14    2.14
 -10  -7  24   -3.28    7.73
  10   6 -24    1.07    2.39
  10   6 -24   -8.34    5.85
 -10  -6  24    2.15    7.59
 -10  -6  24    1.21    2.10
  10   5 -24    7.49    2.44
  10   5 -24    2.97    5.98
 -10  -5  24   -2.84    7.82
 -10  -5  24    4.38    2.36
  10   4 -24    3.04    2.30
  10   4 -24    0.22    5.65
 -10  -4  24    7.35    7.83
  10   3 -24   -0.22    5.56
  10   3 -24    0.35    2.12
 -10  -3  24    2.57    7.39
  10   2 -24   -3.92    2.32
 -10  -2  24    0.20    7.06
  -1  10 -24   -3.76    2.80
  -1  10 -24   -5.53    4.99
   1 -10  24  -13.53    5.54
   1 -10  24   -0.83    1.48
   0  10 -24   -3.27    4.56
   0  10 -24   -0.51    2.66
   0 -10  24    5.79    5.46
   0 -10  24    0.88    1.62
   1  10 -24   -5.18    2.81
   1  10 -24   -9.28    4.83
  -1 -10  24    5.90    5.39
  -1 -10  24   -0.46    1.69
   2  10 -24    0.72    3.03
   2  10 -24    0.32    4.70
  -2 -10  24  -13.19    5.64
  -2 -10  24   -3.17    1.80
   3  10 -24    2.61    4.74
   3  10 -24   -1.85    3.02
  -3 -10  24   -3.78    5.36
  -3 -10  24    0.13    1.83
   4  10 -24    5.04    3.10
   4  10 -24    2.86    4.88
  -4 -10  24    0.12    5.49
  -4 -10  24    0.13    1.94
   5  10 -24    3.34    3.14
   5  10 -24   -0.52    5.13
  -5 -10  24    2.82    1.98
  -5 -10  24   -2.99    5.87
   6  10 -24    2.87    3.23
   6  10 -24   -0.18    5.27
  -6 -10  24    1.12    2.02
  -6 -10  24   -1.05    5.80
   7  10 -24    1.31    5.36
   7  10 -24    0.20    3.27
  -7 -10  24   -1.37    6.21
  -7 -10  24    0.14    2.11
   8  10 -24    0.20    3.57
   9  10 -24   -0.21    3.62
   9  10 -24    0.21    6.26
  -9 -10  24   -6.42    2.45
  -9 -10  24  -19.08    7.10
  10  10 -24   -8.87    3.92
  10  10 -24    0.22    6.25
 -10 -10  24    0.17    2.39
 -10 -10  24    5.39    7.69
  11  10 -24    0.24    3.96
  11  10 -24   -0.23    6.22
 -11 -10  24   -1.76    7.90
  11   9 -24   -5.73    3.57
  11   9 -24    0.22    6.20
 -11  -9  24    1.96    8.10
 -11  -9  24   -2.25    2.44
  11   8 -24    0.22    6.56
  11   8 -24    0.37    3.15
 -11  -8  24   -3.96    7.86
 -11  -8  24   -3.38    2.33
 -11  -7  24  434.99   90.10
  11   6 -24   -3.77    2.43
  11   6 -24   -0.22    5.98
 -11  -6  24    0.14    2.23
 -11  -6  24    1.37    8.52
  11   5 -24    1.67    2.35
  11   5 -24    0.23    6.16
 -11  -5  24    0.14    2.15
 -11  -5  24    7.91    8.35
  11   4 -24    0.23    5.99
  11   4 -24    0.12    2.20
 -11  -4  24   -0.83    8.26
  11   3 -24   -2.57    5.89
  11   3 -24   -0.12    2.23
 -11  -3  24    3.98    8.09
  11   2 -24    0.63    2.32
 -11  -2  24   -3.64    8.06
  -1  11 -24   -0.73    2.87
  -1  11 -24    4.49    4.78
   1 -11  24   12.49    5.39
   1 -11  24    0.67    1.60
   0  11 -24   -3.61    4.54
   0  11 -24   -2.30    2.93
   0 -11  24    3.93    1.63
   0 -11  24   -3.59    5.35
   1  11 -24    5.74    4.84
   1  11 -24   -9.02    3.11
  -1 -11  24    2.97    5.30
  -1 -11  24    0.74    1.60
   2  11 -24    0.16    4.64
   2  11 -24    1.82    3.09
  -2 -11  24   -0.83    5.32
  -2 -11  24    1.70    1.79
   3  11 -24   -0.83    4.84
   3  11 -24    1.83    3.23
  -3 -11  24   15.78    5.76
  -3 -11  24    0.14    2.06
   4  11 -24    6.08    3.56
   4  11 -24    0.17    4.95
  -4 -11  24    5.34    2.31
  -4 -11  24    6.65    5.58
   5  11 -24    5.82    3.61
   5  11 -24    3.01    5.09
  -5 -11  24    0.29    2.09
  -5 -11  24    6.71    5.83
   6  11 -24    0.18    5.27
   6  11 -24   -7.56    3.66
  -6 -11  24   17.12    6.19
  -6 -11  24    0.15    2.26
   7  11 -24   16.81   15.67
   7  11 -24   12.15   11.70
  -7 -11  24   23.54    9.40
   8  11 -24    6.45    5.99
  -8 -11  24   -2.45    6.74
   9  11 -24   10.10    4.22
   9  11 -24    0.21    6.32
  -9 -11  24    0.17    2.56
  -9 -11  24    7.69    6.89
  10  11 -24   -4.71    6.40
 -10 -11  24   -0.16    7.61
  12   9 -24  -10.31    6.72
  12   9 -24    4.31    4.01
 -12  -9  24   -6.57    2.75
 -12  -9  24   -6.43    8.66
  12   8 -24    0.19    3.22
  12   8 -24   -0.23    6.54
 -12  -8  24   -2.40    2.28
 -12  -8  24    7.65    8.89
  12   7 -24    9.33    6.77
  12   7 -24    0.16    2.74
 -12  -7  24    0.15    2.37
 -12  -7  24    9.39    8.98
  12   6 -24   -4.51    6.31
  12   6 -24    0.15    2.77
 -12  -6  24    0.15    2.30
 -12  -6  24   -1.05    9.47
  12   5 -24    4.26    3.49
  12   5 -24   -0.24    7.92
 -12  -5  24    2.33    3.29
 -12  -5  24   41.54   11.18
  12   4 -24    0.13    2.27
  12   4 -24   -0.24    6.37
 -12  -4  24    0.14    2.18
 -12  -4  24    1.32    8.89
  12   3 -24  -11.58    6.24
  12   3 -24    0.25    2.15
 -12  -3  24   15.73    8.58
  12   2 -24   -0.13    2.37
 -12  -2  24   10.62    8.68
  -1  12 -24   -3.18    4.85
   1 -12  24    2.47    5.31
   0  12 -24    2.43    5.23
   0 -12  24    9.77    5.99
   0 -12  24    8.15    2.58
   1  12 -24    0.49    4.94
  -1 -12  24   -4.33    5.56
  -1 -12  24    3.46    1.87
   2  12 -24   10.88    3.65
   2  12 -24    5.72    5.00
  -2 -12  24    0.72    2.03
  -2 -12  24   -2.44    5.67
   3  12 -24    9.96    4.99
   3  12 -24   -3.87    3.45
  -3 -12  24    0.99    5.81
  -3 -12  24    0.15    2.02
   4  12 -24   -4.69    3.65
   4  12 -24   10.89    5.21
  -4 -12  24   -5.64    2.10
  -4 -12  24   -4.45    5.92
   5  12 -24   18.83    5.22
   5  12 -24    2.91    6.75
  -5 -12  24    8.71    3.85
   6  12 -24    0.19    5.36
   6  12 -24    1.74    3.80
  -6 -12  24    0.16    2.32
  -6 -12  24   -0.55    5.99
   7  12 -24   -6.93    4.24
   7  12 -24    0.39    5.73
  -7 -12  24    2.05    2.32
  -7 -12  24   -7.46    6.71
   8  12 -24    2.68    6.38
  -8 -12  24   13.03    7.21
  13   8 -24    0.99    7.29
 -13  -8  24   -0.17    2.00
 -13  -8  24   -0.21    9.43
  13   7 -24   -1.00    6.95
  13   7 -24    1.08    3.07
 -13  -7  24   -1.12    9.99
 -13  -7  24    2.25    2.33
  13   6 -24   -3.96    2.80
  13   6 -24   -2.77    6.83
 -13  -6  24   -6.44   10.00
 -13  -6  24    6.24    2.36
  13   5 -24    7.11    7.09
  13   5 -24   -0.43    2.47
 -13  -5  24    1.86    9.67
 -13  -5  24    0.15    2.40
  13   4 -24    4.03    2.55
  13   4 -24    0.51    6.88
 -13  -4  24    0.15    2.47
 -13  -4  24   -9.57    9.45
  13   3 -24   -7.12    2.74
 -13  -3  24   -8.65    9.60
  13   2 -24    0.95    2.74
  -1  13 -24   18.16    9.91
   0  13 -24   11.70    5.79
   0 -13  24    4.77    6.33
   1  13 -24   36.05   12.73
  -1 -13  24   52.73   13.45
  -2 -13  24   43.23   11.13
   3  13 -24  -12.51    5.50
  -3 -13  24  -20.07    6.89
  -3 -13  24   -0.17    2.42
   4  13 -24    0.18    5.23
  -4 -13  24    0.17    2.37
  -4 -13  24    5.91    6.00
   5  13 -24    0.95    5.37
  -5 -13  24   -4.88    2.51
  -5 -13  24   -8.58    6.33
   6  13 -24    0.59    5.58
  -6 -13  24    8.17    6.83
  -6 -13  24   -0.91    2.46
   7  13 -24    3.89    5.99
  -7 -13  24   -3.94    6.73
  14   7 -24   -1.33    7.23
  14   7 -24    1.50    2.84
 -14  -7  24   -2.63   10.72
  14   6 -24   -6.45    3.04
  14   6 -24   -3.19    7.34
 -14  -6  24    1.64    2.42
 -14  -6  24    1.23   10.82
  14   5 -24    5.45    2.86
  14   5 -24   -1.33    6.95
 -14  -5  24    0.99   10.03
 -14  -5  24   -0.16    2.59
  14   4 -24    1.30    2.62
  14   4 -24  -10.88    6.94
 -14  -4  24    1.43    2.53
 -14  -4  24   -4.44    9.86
  14   3 -24    4.29    2.71
 -14  -3  24   -3.44    9.46
  14   2 -24   -2.11    2.63
  15   6 -24    0.28    7.55
  15   5 -24   -6.91    3.13
  15   5 -24   -4.44    7.53
 -15  -5  24    0.51    2.51
 -15  -5  24   -5.19   10.87
  15   4 -24    1.38    6.99
  15   4 -24   -0.93    2.79
 -15  -4  24    0.17    2.57
 -15  -4  24    0.26    9.92
  15   3 -24    0.30    2.64
 -15  -3  24   -6.40    9.75
 -15  -3  24    3.19    2.81
  15   2 -24   -6.10    2.77
   1   2 -25    2.02    1.97
  -2  -2  25   14.28    6.57
   3   2 -25    0.11    2.02
  -2   3 -25    3.13    1.64
  -3  -2  25   -7.05    5.87
   2  -3  25    2.37    5.56
  -1   3 -25   -0.74    5.68
   1  -3  25   12.48    5.76
   1   3 -25   -0.20    1.94
   2   3 -25  -13.10    4.94
   2   3 -25    1.62    1.83
  -3   2 -25   -0.55    1.91
  -2  -3  25   -1.05    5.61
   3   3 -25   -1.65    1.81
   3   3 -25    0.19    4.83
  -3  -3  25   -2.00    5.83
   4   3 -25   -0.38    4.83
   4   3 -25   -0.11    1.92
  -4  -3  25   -0.95    6.13
   4   2 -25   -2.59    4.98
   4   2 -25   -1.22    2.07
  -2   4 -25    0.18    4.73
   2  -4  25    6.30    5.44
  -4  -2  25    2.13    5.76
   0   4 -25   -2.31    1.81
   1   4 -25    1.53    1.97
   1   4 -25   12.88    4.95
  -1  -4  25    4.40    6.02
   2   4 -25    1.59    4.78
   2   4 -25   -0.68    1.80
  -2  -4  25    2.61    5.96
   3   4 -25    1.07    4.82
   3   4 -25   -0.10    1.87
  -3  -4  25  -10.08    6.17
   4   4 -25   -0.61    1.88
   4   4 -25    0.36    4.83
  -4  -4  25  -11.74    6.18
   5   4 -25   -2.04    5.05
   5   4 -25   -0.62    1.79
  -5  -4  25    2.21    6.27
   5   3 -25    0.19    5.07
   5   3 -25    2.90    1.94
  -5  -3  25    2.45    6.28
   5   2 -25    3.19    2.12
  -2   5 -25   -0.17    4.57
   5   2 -25    0.20    4.80
  -5  -2  25   -3.55    5.89
   0   5 -25   44.35   10.89
   0  -5  25   49.49   11.41
   1   5 -25   -2.02    4.81
   1   5 -25   -0.29    1.72
  -1  -5  25  -16.60    6.06
   2   5 -25    4.41    4.60
   2   5 -25   -0.30    1.74
  -2  -5  25    1.10    5.88
   3   5 -25   -0.17    4.53
   3   5 -25    0.61    1.87
  -3  -5  25    1.69    6.10
   4   5 -25    7.16    4.78
   4   5 -25    1.56    1.88
  -4  -5  25   -4.79    6.18
   5   5 -25    0.18    4.88
   5   5 -25    2.44    2.03
  -5  -5  25    4.81    6.38
   6   5 -25    1.11    5.01
   6   5 -25    5.77    2.28
  -6  -5  25    1.88    6.57
   6   4 -25    7.94    2.36
   6   4 -25    0.19    5.19
  -6  -4  25    1.64    6.69
   6   3 -25    1.19    5.29
   6   3 -25    2.08    1.97
  -6  -3  25    4.75    6.55
   6   2 -25    4.78    2.19
   6   2 -25    2.92    5.23
  -6  -2  25   -8.59    6.14
  -1   6 -25   -0.16    3.82
   1  -6  25    1.02    1.43
   0   6 -25   -3.07    4.59
   0   6 -25   -1.00    1.80
   0  -6  25    1.19    1.57
   0  -6  25   -4.19    5.59
   1   6 -25    0.97    4.61
   1   6 -25   -0.10    1.76
  -1  -6  25    1.99    1.50
  -1  -6  25   -9.69    5.77
   2   6 -25    9.23    2.26
   2   6 -25    1.79    4.76
  -2  -6  25    3.71    2.05
  -2  -6  25   -2.85    5.74
   3   6 -25    7.75    4.66
   3   6 -25    0.75    1.93
  -3  -6  25    2.03    1.74
  -3  -6  25   -4.24    5.70
   4   6 -25    9.38    2.35
   4   6 -25    3.03    5.04
  -4  -6  25    1.05    2.25
  -4  -6  25   -0.14    6.17
   5   6 -25    2.94    4.88
   5   6 -25    7.57    2.25
  -5  -6  25   -0.71    6.26
  -5  -6  25    0.12    1.99
   6   6 -25   -4.29    5.01
   6   6 -25   -2.32    2.20
  -6  -6  25    0.75    6.22
  -6  -6  25   -0.12    1.80
   7   6 -25  -13.62    5.74
  -7  -6  25  -13.13    7.03
   7   5 -25    0.96    5.43
  -7  -5  25    0.16    6.91
   7   4 -25    0.20    5.33
  -7  -4  25    4.30    7.02
   7   3 -25   -6.80    5.19
  -7  -3  25    5.49    6.62
  -2   7 -25    0.81    1.90
   7   2 -25    0.35    2.17
   7   2 -25    0.65    5.40
  -7  -2  25    7.31    6.49
  -1   7 -25    8.37    4.75
  -1   7 -25    3.38    1.99
   1  -7  25   -0.19    1.48
   1  -7  25    9.77    5.46
   0   7 -25    2.95    2.06
   0   7 -25    1.27    4.76
   0  -7  25    3.36    5.44
   0  -7  25    3.68    1.72
   1   7 -25    0.80    1.93
   1   7 -25   -6.37    4.65
  -1  -7  25   -2.43    1.58
  -1  -7  25    3.92    5.54
   2   7 -25   -0.11    2.20
   2   7 -25    0.64    4.65
  -2  -7  25    8.14    5.52
  -2  -7  25    1.55    1.58
   3   7 -25    5.19    2.26
   3   7 -25    0.16    4.56
  -3  -7  25    4.13    1.99
  -3  -7  25   -0.13    5.67
   4   7 -25    0.17    4.84
   4   7 -25    0.12    2.21
  -4  -7  25    0.53    5.73
  -4  -7  25    1.54    1.72
   5   7 -25   -2.22    5.10
   5   7 -25   -5.71    2.43
  -5  -7  25   -0.12    1.91
  -5  -7  25  -17.78    6.45
   6   7 -25   -9.93    5.65
   6   7 -25   -1.02    2.35
  -6  -7  25    0.13    2.13
  -6  -7  25   -8.13    6.92
   7   7 -25    0.18    5.21
  -7  -7  25   -1.30    1.94
  -7  -7  25   -0.15    6.39
   8   7 -25   -9.50    5.54
   8   7 -25   -2.68    2.48
  -8  -7  25   -2.57    2.01
  -8  -7  25    6.27    7.01
   8   6 -25   -0.20    5.55
   8   6 -25    4.66    2.33
  -8  -6  25   -2.34    6.81
  -8  -6  25    0.13    2.01
   8   5 -25    1.62    5.53
   8   5 -25    3.06    2.16
  -8  -5  25  -12.86    7.20
  -8  -5  25    0.26    2.06
   8   4 -25    3.69    2.96
   8   4 -25   11.44    6.70
  -8  -4  25    5.25    8.15
   8   3 -25    5.57    5.51
   8   3 -25   -3.67    2.16
  -8  -3  25    2.97    6.71
  -2   8 -25   -0.47    1.92
   8   2 -25   -1.95    2.18
  -8  -2  25   -6.32    6.76
  -1   8 -25    9.72    2.77
  -1   8 -25    4.58    5.07
   1  -8  25    4.65    2.19
   1  -8  25    9.55    5.91
   0   8 -25  -16.34    4.87
   0   8 -25   -0.12    2.13
   0  -8  25    2.71    1.56
   0  -8  25   -8.94    5.64
   1   8 -25    9.63    2.77
   1   8 -25   -0.64    4.96
  -1  -8  25    5.99    2.04
  -1  -8  25   -2.68    5.87
   2   8 -25   -1.62    2.40
   2   8 -25    5.18    4.64
  -2  -8  25    0.11    1.68
  -2  -8  25   -8.20    5.64
   3   8 -25    6.13    2.63
   3   8 -25   -0.33    4.83
  -3  -8  25    8.66    2.02
  -3  -8  25   -6.11    6.04
   4   8 -25   23.49    4.75
   4   8 -25   22.78    7.05
  -4  -8  25    5.71    4.11
   5   8 -25    6.36    2.49
   5   8 -25    5.86    5.11
  -5  -8  25   -0.14    6.08
  -5  -8  25    0.13    1.94
   6   8 -25    2.32    2.54
   6   8 -25   -0.18    5.14
  -6  -8  25   -6.53    6.33
  -6  -8  25    0.13    1.90
   7   8 -25    0.15    2.54
   7   8 -25    0.19    5.14
  -7  -8  25    2.22    6.58
  -7  -8  25    0.94    2.00
   8   8 -25    1.46    2.95
   8   8 -25    1.36    5.60
  -8  -8  25   10.57    6.89
   9   8 -25    0.21    6.06
   9   8 -25   -6.19    3.11
  -9  -8  25   -7.39    2.31
   9   7 -25    0.21    5.80
   9   7 -25    0.58    2.81
  -9  -7  25   -1.03    7.44
  -9  -7  25    0.14    2.02
   9   6 -25   -0.13    2.22
   9   6 -25   -6.68    6.07
  -9  -6  25   -1.81    7.62
  -9  -6  25    0.14    2.10
   9   5 -25    2.43    2.33
   9   5 -25    2.98    5.75
  -9  -5  25    8.81    7.84
  -9  -5  25    0.67    2.22
   9   4 -25    2.79    2.66
   9   4 -25    8.31    6.31
  -9  -4  25   10.74    7.99
   9   3 -25    0.22    5.63
   9   3 -25   -2.12    1.92
  -9  -3  25    3.73    7.08
   9   2 -25    0.12    2.16
  -9  -2  25    9.87    7.28
  -1   9 -25   17.29    7.51
   1  -9  25   34.67    8.14
   0   9 -25   30.10    6.70
   0   9 -25   11.40    4.24
   0  -9  25   31.26    7.20
   0  -9  25    4.09    3.47
   1   9 -25    3.22    3.17
   1   9 -25    8.14    5.51
  -1  -9  25    3.14    2.31
  -1  -9  25   23.26    6.24
   2   9 -25    0.96    2.79
   2   9 -25  -10.42    5.17
  -2  -9  25    3.80    1.74
  -2  -9  25   -5.93    5.96
   3   9 -25   -0.62    2.64
   3   9 -25   -4.10    4.91
  -3  -9  25   -0.13    5.80
  -3  -9  25    0.12    1.68
   4   9 -25   18.92    3.81
   4   9 -25   14.16    5.95
  -4  -9  25    2.77    3.16
  -4  -9  25   11.44    6.62
   5   9 -25    2.97    2.80
   5   9 -25    5.56    5.27
  -5  -9  25    2.28    6.01
  -5  -9  25    0.13    2.02
   6   9 -25    0.51    2.80
   6   9 -25    3.14    5.28
  -6  -9  25    0.27    2.07
  -6  -9  25    3.39    6.18
   7   9 -25   -3.85    3.08
   7   9 -25   -0.19    5.54
  -7  -9  25    4.77    2.13
  -7  -9  25    0.15    6.61
   8   9 -25   -0.20    6.09
   9   9 -25  -17.91    6.83
  -9  -9  25  -23.68    8.38
  -9  -9  25    0.16    2.62
  10   9 -25   -8.27    3.52
  10   9 -25    6.83    6.79
 -10  -9  25    0.16    2.33
 -10  -9  25    5.81    7.81
  10   8 -25  -14.59    6.50
  10   8 -25   -0.17    3.00
 -10  -8  25    0.30    2.37
 -10  -8  25    1.42    7.92
  10   6 -25    0.22    5.92
  10   6 -25   -6.92    2.48
 -10  -6  25    0.14    2.22
 -10  -6  25    1.93    8.33
  10   5 -25    0.23    6.07
  10   5 -25    4.28    2.42
 -10  -5  25    0.14    2.22
 -10  -5  25   11.59    8.54
  10   4 -25    0.23    6.06
  10   4 -25    2.72    2.13
 -10  -4  25    0.20    7.78
  10   3 -25    3.44    2.32
  10   3 -25    0.24    5.96
 -10  -3  25    4.35    7.78
  10   2 -25   -4.54    2.23
 -10  -2  25   -8.29    7.63
  -1  10 -25  -15.14    5.12
  -1  10 -25   -0.51    2.74
   1 -10  25   -0.75    1.54
   1 -10  25   -5.05    5.75
   0  10 -25   -6.76    2.83
   0  10 -25    4.37    5.15
   0 -10  25   -0.11    1.53
   0 -10  25   -2.52    5.65
   1  10 -25    0.17    4.97
   1  10 -25   10.69    3.00
  -1 -10  25   -3.91    5.73
  -1 -10  25    1.21    1.77
   2  10 -25    1.13    3.06
   2  10 -25   -0.17    4.93
  -2 -10  25    2.18    1.89
  -2 -10  25   -2.99    5.81
   3  10 -25   10.53    5.14
   3  10 -25    2.95    3.09
  -3 -10  25   -7.26    5.91
  -3 -10  25    0.13    1.88
   4  10 -25    0.18    5.12
   4  10 -25    2.29    3.21
  -4 -10  25    9.41    5.92
  -4 -10  25    1.91    2.14
   5  10 -25    4.52    3.46
   5  10 -25    1.67    5.24
  -5 -10  25   13.33    6.16
  -5 -10  25    0.14    2.27
   6  10 -25    3.45    5.41
   6  10 -25    0.20    3.37
  -6 -10  25    0.15    2.16
  -6 -10  25    7.69    6.28
   7  10 -25  -19.19    4.47
  -7 -10  25   -7.61    2.83
   8  10 -25   -9.53    6.23
  -8 -10  25   15.65    7.35
   9  10 -25   -0.22    6.40
   9  10 -25    0.89    3.88
  -9 -10  25   -1.82    7.57
  -9 -10  25    0.16    2.34
  10  10 -25    1.36    6.57
 -10 -10  25   -5.29    7.79
 -10 -10  25   -0.17    2.16
  11   9 -25    1.40    6.37
  11   9 -25   -3.01    3.58
 -11  -9  25    0.34    2.58
 -11  -9  25   -3.23    8.78
  11   8 -25    9.97    3.35
  11   8 -25   -0.23    6.35
 -11  -8  25   17.81    8.86
 -11  -8  25   -0.16    2.60
  11   7 -25    5.84    3.04
  11   7 -25    0.23    6.63
 -11  -7  25   -0.15    2.46
 -11  -7  25    9.64    8.69
  11   6 -25   -6.04    2.74
  11   6 -25   30.76    7.91
 -11  -6  25    0.15    2.44
  11   5 -25  -23.96    6.76
  11   5 -25    0.14    2.48
 -11  -5  25  -22.68    9.39
 -11  -5  25    1.16    2.29
  11   4 -25    0.90    2.36
  11   4 -25   -0.24    6.50
 -11  -4  25    7.16    8.74
  11   3 -25  -13.15    6.35
  11   3 -25   -5.99    2.44
 -11  -3  25   -2.41    8.49
  11   2 -25    3.60    2.56
 -11  -2  25   -4.04    8.08
  -1  11 -25   -1.34    5.26
  -1  11 -25    1.90    2.86
   1 -11  25    2.29    5.62
   1 -11  25   -0.69    1.54
   0  11 -25   -0.20    3.06
   0  11 -25    6.30    5.04
   0 -11  25    0.84    5.54
   0 -11  25    1.58    1.81
   1  11 -25    2.66    3.21
   1  11 -25    0.86    5.09
  -1 -11  25   -1.35    5.83
  -1 -11  25    0.78    1.65
   2  11 -25   -4.55    3.19
   2  11 -25    2.28    5.06
  -2 -11  25   -7.51    5.93
  -2 -11  25   -2.29    2.02
   3  11 -25    3.94    5.28
   3  11 -25    4.48    3.52
  -3 -11  25    0.28    2.05
  -3 -11  25    2.48    6.13
   4  11 -25    8.99    5.51
   4  11 -25    5.73    3.57
  -4 -11  25    0.15    2.09
  -4 -11  25   -4.67    5.79
   5  11 -25   -0.19    5.81
   5  11 -25    1.14    3.67
  -5 -11  25    0.15    2.44
  -5 -11  25  -15.35    6.91
   6  11 -25   -0.20    5.90
   6  11 -25    0.23    3.79
  -6 -11  25  -10.03    7.20
  -6 -11  25   -7.64    2.47
   7  11 -25    3.68    5.84
   7  11 -25   -7.73    4.09
  -7 -11  25   -2.08    6.95
  -7 -11  25    0.17    2.38
   8  11 -25    0.21    6.53
  -8 -11  25    2.80    7.29
   9  11 -25    0.22    6.65
  -9 -11  25    6.97    7.68
  12   8 -25   -0.25    6.71
  12   8 -25   -0.20    3.31
 -12  -8  25  -11.30    9.33
 -12  -8  25    3.02    2.50
  12   7 -25   -7.98    3.10
  12   7 -25   11.21    7.22
 -12  -7  25    5.04    9.51
 -12  -7  25    0.16    2.41
  12   6 -25   -1.08    2.64
  12   6 -25    0.25    6.94
 -12  -6  25    0.16    2.32
 -12  -6  25  -14.47    9.80
  12   5 -25    1.02    6.77
  12   5 -25   -2.76    2.57
 -12  -5  25   -3.51    2.45
 -12  -5  25   -2.52    9.48
  12   4 -25   -5.78    2.79
 -12  -4  25   -6.69    2.75
 -12  -4  25  -28.87   10.30
  12   3 -25    6.80    9.21
  12   3 -25    6.14    4.27
 -12  -3  25   26.94   11.29
  12   2 -25  -11.11    2.92
  -1  12 -25   -1.87    5.06
   0  12 -25    1.04    5.10
   0 -12  25   -7.73    5.93
   0 -12  25   -1.09    1.78
   1  12 -25   -7.16    3.38
   1  12 -25   -1.93    5.36
  -1 -12  25    8.26    5.98
  -1 -12  25    3.28    2.02
   2  12 -25  -17.57    6.08
   2  12 -25   -5.54    4.18
  -2 -12  25  -20.72    6.82
  -2 -12  25   -2.19    2.54
   3  12 -25   29.10    7.31
   3  12 -25   24.52    8.66
  -3 -12  25   16.35    5.92
   4  12 -25  -10.52    6.10
   4  12 -25   -1.97    4.10
  -4 -12  25   -6.85    2.67
   5  12 -25    3.75    4.07
   5  12 -25    1.56    5.73
  -5 -12  25    0.50    2.49
  -5 -12  25    5.87    6.20
   6  12 -25    1.54    3.94
   6  12 -25    2.83    5.93
  -6 -12  25    0.17    2.26
  -6 -12  25   -1.01    6.62
   7  12 -25    0.21    6.09
   7  12 -25    0.27    4.19
  -7 -12  25   -1.59    2.58
  -7 -12  25    3.96    7.13
  13   7 -25  -12.53    7.17
  13   7 -25   -0.36    3.15
 -13  -7  25    4.48   10.18
  13   6 -25    0.27    7.12
  13   6 -25    5.19    3.14
 -13  -6  25   -0.16    2.59
 -13  -6  25   -1.45   10.39
  13   5 -25    0.54    7.22
  13   5 -25   -3.94    2.76
 -13  -5  25  -20.52   10.24
 -13  -5  25    1.60    2.48
  13   4 -25   -4.04    7.03
  13   4 -25    4.13    2.71
 -13  -4  25   -8.58    9.27
 -13  -4  25    0.16    2.46
  13   3 -25   16.67    7.44
  13   3 -25    0.29    2.78
 -13  -3  25    8.12    9.05
  13   2 -25   -2.02    2.65
   0  13 -25   -1.07    5.33
   0 -13  25    6.65    6.06
   1  13 -25    3.29    5.40
  -1 -13  25   -1.44    6.07
   2  13 -25   -7.65    5.50
  -2 -13  25   -6.93    6.48
   3  13 -25  -10.11    5.66
  -3 -13  25    9.99    6.75
  -3 -13  25    0.17    2.34
   4  13 -25   -1.76    5.60
  -4 -13  25   -1.76    2.41
  -4 -13  25   -0.99    6.68
   5  13 -25   -1.82    5.89
  -5 -13  25   -1.10    2.52
  -5 -13  25   -8.72    6.72
   6  13 -25   -8.33    5.91
  -6 -13  25    5.91    6.86
  14   6 -25    6.21    8.05
 -14  -6  25    8.54   11.29
  14   5 -25    2.47    2.94
  14   5 -25   -8.77    7.75
 -14  -5  25   -3.36    2.50
 -14  -5  25    3.89   10.48
  14   4 -25    7.08    3.01
  14   4 -25    1.69    7.47
 -14  -4  25    4.65   10.42
 -14  -4  25    0.17    2.76
  14   3 -25   -1.82    2.76
 -14  -3  25    2.33    9.86
  14   2 -25    1.20    2.72
  15   4 -25    0.29    7.48
 -15  -4  25    3.78   10.42
  15   3 -25    4.26    2.96
 -15  -3  25    0.35    2.77
   0   2 -26   10.16    3.32
   1   2 -26    1.01    1.97
   2   2 -26    3.21    2.43
  -2  -2  26    8.83    6.11
   3   2 -26    1.51    2.03
  -3  -2  26    7.98    5.92
  -1   3 -26   11.38    3.31
   0   3 -26   20.05    7.29
   0  -3  26   32.26    7.93
   1   3 -26    3.37    5.57
   1   3 -26    7.83    2.59
  -1  -3  26    2.35    6.39
   2   3 -26    2.26    1.87
   2   3 -26   -4.36    5.13
  -2  -3  26   -0.80    5.90
   3   3 -26    0.20    4.83
   3   3 -26    2.19    1.95
  -3  -3  26   -3.59    6.22
   4   3 -26   -1.11    1.81
   4   3 -26    0.20    4.83
  -4  -3  26    0.67    6.17
   4   2 -26   -1.18    1.94
  -4  -2  26    6.09    6.10
  -1   4 -26    1.04    1.75
   0   4 -26    2.46    1.91
   0   4 -26    1.90    5.12
   0  -4  26    2.68    6.05
   1   4 -26    0.19    5.10
   1   4 -26    2.44    1.98
  -1  -4  26    6.99    6.06
   2   4 -26    0.83    1.89
   2   4 -26    7.24    5.30
  -2  -4  26    5.26    6.34
   3   4 -26    3.07    2.05
   3   4 -26    4.80    5.10
  -3  -4  26   -1.27    6.15
   4   4 -26   -2.58    1.91
   4   4 -26   -1.36    5.19
  -4  -4  26   -1.14    6.31
   5   4 -26    4.61    2.05
   5   4 -26   -1.19    5.44
  -5  -4  26   -0.50    6.77
   5   3 -26   -0.21    5.22
   5   3 -26    1.70    2.04
  -5  -3  26    6.91    6.37
   5   2 -26   -1.32    2.10
  -2   5 -26   -0.18    1.53
   2  -5  26   -0.09    1.44
  -5  -2  26   -8.95    6.59
  -1   5 -26    0.77    1.76
  -1   5 -26    2.93    4.96
   1  -5  26   -7.81    6.13
   1  -5  26   -0.50    1.60
   0   5 -26   -1.64    5.11
   0   5 -26   -0.79    1.72
   0  -5  26    1.30    6.13
   1   5 -26    4.02    5.08
   1   5 -26   -1.44    1.92
  -1  -5  26   -2.80    6.36
   2   5 -26   -1.64    5.01
   2   5 -26   -0.21    1.82
  -2  -5  26    1.50    6.35
   3   5 -26   -1.66    4.96
   3   5 -26   -1.40    1.94
  -3  -5  26   -2.76    6.44
   4   5 -26    2.31    2.03
   4   5 -26    0.19    5.06
  -4  -5  26    6.15    6.41
   5   5 -26    6.71    5.59
   5   5 -26    7.20    2.62
  -5  -5  26    0.16    6.90
   6   5 -26    2.88    2.10
   6   5 -26    1.78    5.47
  -6  -5  26    1.36    7.34
   6   4 -26   -0.20    5.43
   6   4 -26   -3.48    2.06
  -6  -4  26    2.26    6.76
   6   3 -26    6.73    2.61
   6   3 -26    3.38    5.97
  -6  -3  26   -1.79    6.92
  -2   6 -26   -0.58    1.80
  -2   6 -26   22.98    4.99
   6   2 -26    3.08    2.32
  -6  -2  26    3.15    6.38
  -1   6 -26    1.50    1.83
  -1   6 -26    3.72    4.96
   1  -6  26   -3.81    6.11
   1  -6  26   -0.29    1.58
   0   6 -26   -2.02    1.80
   0   6 -26   -0.18    5.08
   0  -6  26   -7.90    5.97
   0  -6  26   -0.53    1.67
   1   6 -26    3.56    2.01
   1   6 -26   -2.29    5.06
  -1  -6  26   -8.47    6.15
  -1  -6  26    3.33    1.67
   2   6 -26    1.94    5.06
   2   6 -26    2.45    2.08
  -2  -6  26   -2.43    1.90
  -2  -6  26   -5.24    6.10
   3   6 -26    9.82    5.91
   3   6 -26    8.93    3.12
  -3  -6  26   10.52    3.01
  -3  -6  26    8.41    6.82
   4   6 -26   -2.93    2.09
   4   6 -26   -4.36    5.11
  -4  -6  26   -0.12    2.00
  -4  -6  26   -3.13    6.61
   5   6 -26    4.55    2.38
   5   6 -26    0.19    5.52
  -5  -6  26   -1.39    2.10
  -5  -6  26    5.40    6.98
   6   6 -26   -0.19    5.37
   6   6 -26    1.10    2.28
  -6  -6  26    1.94    2.10
  -6  -6  26    0.48    6.73
   7   6 -26    0.20    5.30
  -7  -6  26   -1.37    7.10
  -7  -6  26    0.13    1.98
   7   5 -26    6.17    5.75
  -7  -5  26    0.18    7.47
   7   4 -26    2.54    6.14
  -7  -4  26    1.82    7.53
   7   3 -26   -0.22    5.64
  -7  -3  26    5.42    7.08
  -7  -2  26    4.62    6.96
  -1   7 -26    6.34    2.53
  -1   7 -26    5.30    5.35
   1  -7  26    4.20    2.22
   1  -7  26   18.62    6.29
   0   7 -26    0.12    2.01
   0   7 -26    6.30    4.91
   0  -7  26   -0.11    1.64
   0  -7  26   -7.22    5.80
   1   7 -26    7.07    2.68
   1   7 -26   10.60    5.14
  -1  -7  26   -1.73    6.23
  -1  -7  26    5.71    2.29
   2   7 -26    4.25    2.22
   2   7 -26    0.52    4.97
  -2  -7  26    3.74    2.12
  -2  -7  26    3.54    6.01
   3   7 -26   -2.38    2.37
  -3  -7  26  -16.72    6.67
  -3  -7  26    0.48    1.99
   4   7 -26    4.24    2.91
   4   7 -26   11.21    5.91
  -4  -7  26    4.75    2.70
   5   7 -26   11.32    2.85
   5   7 -26    1.64    5.49
  -5  -7  26    3.60    2.53
  -5  -7  26    5.35    6.82
   6   7 -26    0.67    2.32
   6   7 -26    2.83    5.47
  -6  -7  26    0.15    6.67
  -6  -7  26    1.19    2.19
   7   7 -26   -1.11    2.44
   7   7 -26   -3.95    5.49
  -7  -7  26    0.14    2.04
  -7  -7  26    4.56    6.97
   8   7 -26   -0.15    2.51
   8   7 -26    2.28    5.75
  -8  -7  26    4.31    7.45
   8   6 -26    0.40    2.40
   8   6 -26    1.05    6.06
  -8  -6  26    0.14    2.14
  -8  -6  26    8.50    7.81
   8   5 -26    0.22    5.60
   8   5 -26    1.99    2.17
  -8  -5  26    0.54    2.20
  -8  -5  26    0.56    7.54
   8   4 -26    9.71    2.74
   8   4 -26    0.22    6.11
  -8  -4  26    2.49    7.67
   8   3 -26    1.82    2.15
   8   3 -26  -14.98    5.78
  -8  -3  26   -2.93    7.08
   8   2 -26    0.13    2.35
  -8  -2  26   -4.43    7.20
  -1   8 -26   28.28    6.09
  -1   8 -26    1.18    3.19
   1  -8  26   25.14    6.95
   1  -8  26    3.81    2.67
   0   8 -26   32.64    8.64
   0   8 -26   17.56    6.15
   0  -8  26   14.83    5.39
   1   8 -26   24.13    9.06
  -1  -8  26   44.26    9.77
   2   8 -26   10.93    2.86
   2   8 -26   -6.74    5.43
  -2  -8  26    3.68    2.03
   3   8 -26   -1.13    2.54
   3   8 -26    9.99    5.22
  -3  -8  26    1.24    2.02
  -3  -8  26    3.55    6.08
   4   8 -26   15.45    3.14
   4   8 -26   -0.18    5.40
  -4  -8  26    0.56    6.60
  -4  -8  26    3.47    2.61
   5   8 -26   -4.22    5.25
   5   8 -26    2.84    2.63
  -5  -8  26   -7.22    6.34
  -5  -8  26    0.13    1.88
   6   8 -26    0.57    5.50
   6   8 -26    2.46    2.60
  -6  -8  26   -1.22    6.61
  -6  -8  26    0.14    2.14
   7   8 -26    0.20    5.56
   7   8 -26    0.16    2.74
  -7  -8  26    0.71    2.16
  -7  -8  26   -5.41    6.98
   8   8 -26    0.21    6.45
  -8  -8  26  -19.74    8.18
   9   8 -26  -11.66    3.40
   9   8 -26  -17.64    7.08
  -9  -8  26   -0.15    2.68
  -9  -8  26   -7.72    8.38
   9   7 -26  -10.48    7.07
   9   7 -26  -11.54    3.28
  -9  -7  26  -12.34    2.74
   9   6 -26   -7.58    2.51
   9   6 -26    0.89    6.01
  -9  -6  26    1.92    8.02
  -9  -6  26    0.71    2.25
   9   5 -26    0.51    2.25
   9   5 -26    0.23    6.24
  -9  -5  26    2.11    2.33
  -9  -5  26    1.79    7.99
   9   4 -26    0.23    6.20
   9   4 -26   -0.98    2.15
  -9  -4  26   -1.21    7.91
   9   3 -26    7.49    2.76
   9   3 -26    6.89    6.36
  -9  -3  26    0.21    8.07
   9   2 -26    1.05    2.31
  -9  -2  26  -11.64    7.51
  -1   9 -26    0.17    5.36
  -1   9 -26   10.18    3.10
   1  -9  26   10.40    6.34
   1  -9  26    5.35    2.20
   0   9 -26   -0.31    2.58
   0   9 -26    1.91    5.09
   0  -9  26    7.76    5.92
   0  -9  26    0.11    1.65
   1   9 -26   -3.51    5.33
   1   9 -26    6.64    3.00
  -1  -9  26    3.69    6.22
  -1  -9  26    3.67    2.08
   2   9 -26   -0.18    4.99
   2   9 -26    1.11    2.88
  -2  -9  26   -5.24    6.04
  -2  -9  26    0.12    1.75
   3   9 -26   10.63    5.42
   3   9 -26    5.10    3.16
  -3  -9  26    2.56    2.29
  -3  -9  26    7.28    6.39
   4   9 -26    0.18    5.09
   4   9 -26   -5.43    2.83
  -4  -9  26   -0.13    2.11
  -4  -9  26    7.62    6.48
   5   9 -26   12.38    3.20
   5   9 -26    4.31    5.60
  -5  -9  26    4.09    6.62
  -5  -9  26    0.14    2.31
   6   9 -26    5.92    3.07
   6   9 -26    0.58    5.29
  -6  -9  26    4.25    6.76
  -6  -9  26    0.29    2.25
   7   9 -26  -12.01    3.86
  -7  -9  26   -0.15    2.73
   8   9 -26   -9.22    6.62
  -8  -9  26   -2.84    8.16
   9   9 -26   -0.22    6.05
   9   9 -26    0.59    3.37
  -9  -9  26    0.32    2.31
  -9  -9  26   -3.68    7.90
  10   9 -26    0.23    6.73
 -10  -9  26   -1.70    8.47
  10   8 -26    1.47    3.28
  10   8 -26    0.46    6.52
 -10  -8  26   -0.16    2.41
 -10  -8  26   12.11    8.60
  10   7 -26    0.16    2.65
  10   7 -26    7.69    6.63
 -10  -7  26   -3.05    2.34
 -10  -7  26    1.19    8.48
  10   6 -26   19.31    5.25
  10   6 -26   20.77    9.67
 -10  -6  26    9.02    4.92
  10   5 -26   -0.24    6.33
  10   5 -26    0.14    2.47
 -10  -5  26   -0.21    8.57
 -10  -5  26   -0.15    2.28
  10   4 -26    3.39    2.44
  10   4 -26    0.98    6.45
 -10  -4  26   -9.64    8.73
  10   3 -26   -2.21    2.39
  10   3 -26    0.25    6.66
 -10  -3  26   -8.25    8.21
  10   2 -26    3.70    2.63
  -1  10 -26    4.06    3.12
  -1  10 -26   -0.18    5.54
   1 -10  26    7.90    6.07
   1 -10  26    1.90    1.78
   0  10 -26    1.26    5.37
   0  10 -26    0.18    2.92
   0 -10  26   -0.71    1.65
   0 -10  26   -0.13    6.09
   1  10 -26    5.53    3.22
   1  10 -26   -0.18    5.54
  -1 -10  26    1.79    1.98
  -1 -10  26   10.48    6.20
   2  10 -26   -1.50    3.19
   2  10 -26   -5.90    5.22
  -2 -10  26    3.27    1.87
  -2 -10  26   -0.27    6.12
   3  10 -26   -6.37    5.31
   3  10 -26    2.92    3.31
  -3 -10  26   -3.04    6.30
  -3 -10  26   -1.37    1.93
   4  10 -26    5.73    5.65
   4  10 -26    4.63    3.58
  -4 -10  26    0.14    2.18
  -4 -10  26   10.21    6.42
   5  10 -26    0.21    3.57
   5  10 -26    0.59    5.37
  -5 -10  26    1.49    2.26
  -5 -10  26    7.89    6.76
   6  10 -26   29.89    8.84
   6  10 -26   28.20    6.44
  -6 -10  26    4.02    5.05
   7  10 -26    0.21    6.09
   7  10 -26    0.44    3.83
  -7 -10  26    4.94    7.67
  -7 -10  26    5.29    2.41
   8  10 -26    0.22    6.46
  -8 -10  26    0.84    7.88
   9  10 -26   -0.45    6.61
   9  10 -26    0.24    3.95
  -9 -10  26    1.59    8.35
  -9 -10  26   -0.17    2.02
  11   8 -26    0.25    6.86
 -11  -8  26   -1.65    9.16
 -11  -8  26    0.16    2.40
  11   7 -26   -1.99    2.97
  11   7 -26   -0.25    7.02
 -11  -7  26    0.48    2.40
 -11  -7  26   -6.70    9.35
  11   6 -26   -9.79    2.76
  11   6 -26    0.25    6.98
 -11  -6  26    3.56    2.33
 -11  -6  26    0.22    9.24
  11   5 -26    4.32    6.89
  11   5 -26  -11.44    2.77
 -11  -5  26    0.15    2.60
 -11  -5  26   -8.56    9.30
  11   4 -26   70.92   19.23
 -11  -4  26   78.83   20.52
  11   3 -26   -5.66    2.72
  11   3 -26    0.26    7.22
 -11  -3  26  -20.48    9.57
  11   2 -26    0.14    2.54
  -1  11 -26    3.54    3.14
   0  11 -26   -5.31    3.23
   0  11 -26   -2.75    5.44
   0 -11  26    0.89    1.85
   0 -11  26   -2.47    6.13
   1  11 -26   -2.61    5.57
   1  11 -26   -1.71    3.35
  -1 -11  26    5.71    6.41
  -1 -11  26    1.49    1.84
   2  11 -26   -0.38    5.56
   2  11 -26    1.30    3.40
  -2 -11  26   -0.57    2.04
  -2 -11  26    9.21    6.24
   3  11 -26   -7.86    3.94
   3  11 -26  -18.68    6.21
  -3 -11  26  -15.59    6.97
  -3 -11  26   -1.34    2.43
   4  11 -26   43.93   11.82
   4  11 -26   39.23    9.40
  -4 -11  26    9.59    7.76
   5  11 -26   -0.23    3.85
   5  11 -26    4.05    5.87
  -5 -11  26   -8.56    6.86
  -5 -11  26   -4.03    2.25
   6  11 -26   -8.14    4.12
   6  11 -26   -3.15    6.20
  -6 -11  26  -10.60    2.54
  -6 -11  26    3.20    6.93
   7  11 -26   -5.00    6.10
   7  11 -26    4.44    4.16
  -7 -11  26    0.17    2.41
  -7 -11  26    3.49    7.39
   8  11 -26   -5.19    6.80
  -8 -11  26   -6.22    7.73
  12   7 -26   -2.56    2.89
  12   7 -26    0.27    7.11
 -12  -7  26    2.32    9.79
  12   6 -26   10.95    7.47
  12   6 -26    1.46    2.96
 -12  -6  26   12.62   10.13
 -12  -6  26    0.16    2.48
  12   5 -26    2.43    7.38
  12   5 -26    0.31    2.72
 -12  -5  26   -0.96    2.51
 -12  -5  26   -3.13    9.83
  12   4 -26    1.75    2.54
  12   4 -26    1.35    7.01
 -12  -4  26    0.80    2.60
 -12  -4  26   10.18    9.58
  12   3 -26    0.28    6.74
  12   3 -26    0.14    2.54
 -12  -3  26   -8.79    9.07
   0  12 -26   -6.90    3.50
   0  12 -26  -14.00    6.03
   0 -12  26  -10.14    6.49
   0 -12  26    0.70    1.90
   1  12 -26   -7.65    3.86
   1  12 -26  -12.34    6.02
  -1 -12  26   -4.03    2.25
  -1 -12  26   -7.49    6.86
   2  12 -26    9.86    5.76
   2  12 -26   -5.79    3.84
  -2 -12  26   -1.11    6.53
  -2 -12  26    0.15    2.07
   3  12 -26    0.25    4.15
   3  12 -26   -4.54    5.70
  -3 -12  26   -6.52    6.74
  -3 -12  26   -0.64    2.18
   4  12 -26   -6.11    4.16
   4  12 -26   10.92    5.92
  -4 -12  26   -0.16    2.29
  -4 -12  26   -1.77    6.67
   5  12 -26    1.58    4.19
   5  12 -26    3.75    6.01
  -5 -12  26   -6.51    7.42
  -5 -12  26   -4.63    2.47
   6  12 -26   -1.52    6.31
   6  12 -26   -5.15    4.58
  -6 -12  26   -0.16    7.77
  -6 -12  26   -0.71    2.48
  13   6 -26    5.11    8.00
 -13  -6  26  -35.99   11.36
  13   5 -26   10.11    3.22
  13   5 -26    0.29    7.83
 -13  -5  26    2.01    2.96
 -13  -5  26   11.03   10.67
  13   4 -26   -5.48    2.74
  13   4 -26    0.29    7.46
 -13  -4  26   -3.86    2.51
 -13  -4  26    2.05   10.01
  13   3 -26    0.15    2.74
 -13  -3  26   -5.42    9.53
   0  13 -26   -8.36    5.84
   0 -13  26    4.15    6.57
   1  13 -26    0.97    5.77
  -1 -13  26   -3.25    6.76
   2  13 -26    7.74    6.14
  -2 -13  26    8.94    6.78
  -2 -13  26    2.59    2.56
   3  13 -26    2.64    5.70
  -3 -13  26    2.46    2.34
  -3 -13  26   -3.28    6.97
   4  13 -26   -1.46    5.88
  -4 -13  26    8.51    6.94
  -4 -13  26   -1.65    2.35
   5  13 -26   -9.10    6.40
  -5 -13  26   -6.69    7.18
  14   4 -26    9.89    8.23
 -14  -4  26  -10.01   10.75
  14   3 -26    3.80    3.13
  -1   2 -27    2.49    2.56
   0   2 -27    2.56    2.28
   1   2 -27   14.22    3.83
  -2   2 -27   -0.43    1.98
   2   2 -27    3.01    2.18
   3   2 -27    6.61    2.44
  -2   3 -27    0.50    2.07
  -1   3 -27    0.63    1.96
   1  -3  27   -4.01    5.74
   0   3 -27    8.65    3.02
   0  -3  27    8.50    6.56
   1   3 -27    2.91    2.11
   1   3 -27   -2.98    5.43
  -1  -3  27   11.14    6.00
   2   3 -27    8.44    2.98
   2   3 -27   13.00    6.07
  -2  -3  27    9.81    6.82
   3   3 -27   -0.21    5.42
   3   3 -27   -1.97    2.13
  -3  -3  27  -11.06    6.75
   4   3 -27    0.22    5.52
   4   3 -27   -1.06    2.01
  -4  -3  27   -0.89    6.64
   4   2 -27    4.99    2.45
  -2   4 -27   27.97    5.30
  -2   4 -27   -0.47    1.92
  -1   4 -27    0.20    1.88
  -1   4 -27    7.54    5.57
   1  -4  27    2.64    6.04
   0   4 -27    1.05    1.79
   0   4 -27   -0.20    5.08
   0  -4  27   -7.14    6.09
   1   4 -27    3.12    2.25
   1   4 -27    7.97    5.69
  -1  -4  27    9.54    6.86
   2   4 -27   -5.94    5.51
   2   4 -27   -3.97    1.97
  -2  -4  27   -0.99    6.50
   3   4 -27   -1.12    2.04
   3   4 -27    0.21    5.37
  -3  -4  27    1.68    6.39
   4   4 -27   -7.93    5.54
   4   4 -27   -1.37    2.13
  -4  -4  27    3.80    6.59
   5   4 -27    4.90    5.67
   5   4 -27    1.28    2.09
  -5  -4  27   -4.81    6.86
   5   3 -27   11.41    3.17
   5   3 -27    2.20    6.45
  -5  -3  27    4.38    7.70
  -2   5 -27    1.52    1.85
   5   2 -27    4.71    2.28
  -5  -2  27    3.40    6.33
  -1   5 -27    1.53    1.79
  -1   5 -27    1.38    5.61
   1  -5  27    1.82    1.69
   1  -5  27  -10.02    6.50
   0   5 -27    2.11    1.91
   0   5 -27  -11.45    5.63
   0  -5  27    1.86    6.27
   1   5 -27   -5.79    1.97
   1   5 -27    0.20    5.38
  -1  -5  27    0.95    6.53
   2   5 -27    0.59    5.22
   2   5 -27   -1.68    1.98
  -2  -5  27   10.29    6.67
   3   5 -27    4.17    6.42
   3   5 -27   19.25    3.75
  -3  -5  27    1.31    7.76
   4   5 -27   -0.12    2.14
   4   5 -27  -14.91    5.73
  -4  -5  27  -10.10    7.17
   5   5 -27    0.21    5.39
   5   5 -27    1.55    2.20
  -5  -5  27   -9.20    7.53
   6   5 -27    0.42    5.66
   6   5 -27    3.29    2.15
  -6  -5  27   -0.18    7.35
   6   4 -27    1.30    2.07
   6   4 -27  -10.05    5.93
  -6  -4  27   -4.06    7.42
   6   3 -27   -0.12    2.38
   6   3 -27    1.35    6.07
  -6  -3  27   11.88    7.56
   6   2 -27   -0.13    1.99
  -6  -2  27    0.20    6.71
  -1   6 -27   -0.53    1.92
  -1   6 -27   -7.83    5.43
   1  -6  27    0.94    1.67
   1  -6  27    3.56    6.53
   0   6 -27    1.91    5.51
   0   6 -27    3.38    2.12
   0  -6  27   14.31    6.64
   0  -6  27   -0.45    1.78
   1   6 -27   -2.52    2.28
   1   6 -27    6.87    5.36
  -1  -6  27   17.60    6.85
  -1  -6  27    2.24    1.92
   2   6 -27   -7.48    5.41
   2   6 -27    3.32    2.24
  -2  -6  27    6.99    2.03
  -2  -6  27   -1.39    6.93
   3   6 -27   14.82    6.09
   3   6 -27    8.63    3.26
  -3  -6  27    3.55    2.93
  -3  -6  27   35.10    7.81
   4   6 -27    4.35    2.23
   4   6 -27    3.72    5.43
  -4  -6  27    1.56    2.09
  -4  -6  27  -15.76    7.31
   5   6 -27    2.41    2.30
   5   6 -27    0.20    5.43
  -5  -6  27    4.53    7.19
  -5  -6  27    0.13    2.20
   6   6 -27    2.07    5.62
   6   6 -27   -4.93    2.37
  -6  -6  27   -9.94    7.45
  -6  -6  27    0.41    2.18
   7   6 -27    3.19    2.47
   7   6 -27    1.29    5.96
  -7  -6  27    6.93    7.75
  -7  -6  27   -0.14    2.24
   7   5 -27    2.42    5.94
   7   5 -27    3.06    2.28
  -7  -5  27   -8.11    7.68
   7   4 -27    8.14    6.07
  -7  -4  27   -0.77    7.77
  -7  -3  27   11.78    8.08
  -7  -2  27    6.29    7.06
  -1   7 -27   -0.81    2.16
  -1   7 -27    0.56    5.69
   1  -7  27   -2.17    1.65
   0   7 -27  -11.07    5.78
   0   7 -27    3.45    2.25
   0  -7  27   -2.31    6.75
   0  -7  27    6.59    1.90
   1   7 -27   -2.36    2.26
  -1  -7  27   -3.54    1.92
   2   7 -27    2.19    2.28
   2   7 -27    1.49    5.49
  -2  -7  27    3.21    1.99
  -2  -7  27  -10.49    6.49
   3   7 -27    6.78    2.79
   3   7 -27    6.39    5.59
  -3  -7  27    3.47    6.79
  -3  -7  27    5.64    2.53
   4   7 -27   12.94    2.93
   4   7 -27    5.16    5.85
  -4  -7  27    0.66    2.67
  -4  -7  27    8.53    7.06
   5   7 -27    1.53    2.47
   5   7 -27    0.20    5.40
  -5  -7  27   -9.13    7.00
  -5  -7  27    0.14    1.95
   6   7 -27   -0.20    5.47
   6   7 -27   -3.28    2.35
  -6  -7  27    5.25    6.96
  -6  -7  27    0.14    2.27
   7   7 -27    5.26    6.01
   7   7 -27  -13.03    2.90
  -7  -7  27    0.14    2.12
  -7  -7  27  -14.00    7.46
   8   7 -27  -12.20    7.28
   8   6 -27    0.23    6.45
  -8  -6  27   12.08    8.35
   8   5 -27    0.92    6.58
   8   5 -27    7.36    2.67
  -8  -5  27   -0.20    8.13
   8   4 -27   -5.41    6.23
   8   4 -27   -0.13    2.21
  -8  -4  27    3.23    7.79
   8   3 -27    0.90    2.44
   8   3 -27    0.48    6.16
  -8  -3  27    1.44    7.57
  -1   8 -27   14.96    3.06
  -1   8 -27    0.36    5.70
   1  -8  27    1.89    6.51
   1  -8  27    5.26    2.38
   0   8 -27   -0.14    2.40
   0   8 -27    0.36    5.18
   0  -8  27    3.74    6.42
   0  -8  27    0.22    1.58
   1   8 -27    4.04    5.74
   1   8 -27    7.89    3.30
  -1  -8  27   -0.28    6.77
  -1  -8  27   11.11    2.66
   2   8 -27    7.40    5.42
   2   8 -27    1.02    2.63
  -2  -8  27    0.43    6.49
  -2  -8  27    5.90    2.16
   3   8 -27    8.05    5.56
   3   8 -27    7.36    2.93
  -3  -8  27    0.13    2.15
  -3  -8  27   13.40    6.86
   4   8 -27   -0.15    2.77
   4   8 -27   -4.96    5.81
  -4  -8  27   -3.63    6.69
  -4  -8  27   -1.49    2.01
   5   8 -27    0.20    5.57
   5   8 -27    8.09    2.93
  -5  -8  27   -0.14    2.29
  -5  -8  27    5.30    6.98
   6   8 -27    0.20    5.47
   6   8 -27   -0.81    2.80
  -6  -8  27   -0.86    2.13
  -6  -8  27    1.29    6.98
   7   8 -27   -5.51    3.28
   7   8 -27  -21.40    6.51
  -7  -8  27    0.15    2.45
   8   8 -27   -0.22    6.46
  -8  -8  27   -7.24    8.42
   9   8 -27    2.09    6.65
   9   8 -27   -0.18    3.15
  -9  -8  27    0.16    2.43
  -9  -8  27   -2.31    8.24
   9   7 -27   -0.23    6.40
   9   7 -27   -0.16    2.89
  -9  -7  27    0.77    2.27
  -9  -7  27  -13.22    8.60
   9   6 -27   14.99    3.89
   9   6 -27   -0.24    8.11
  -9  -6  27    2.24    3.46
   9   5 -27    0.24    6.63
   9   5 -27   -0.14    2.40
  -9  -5  27  -12.16    8.34
  -9  -5  27   -0.15    2.39
   9   4 -27    0.49    6.79
   9   4 -27    8.04    3.01
  -9  -4  27    7.88    8.55
   9   3 -27    0.13    2.39
   9   3 -27  -12.89    6.57
  -9  -3  27   -8.20    8.27
  -1   9 -27    2.28    2.50
  -1   9 -27   -7.30    5.50
   0   9 -27    4.21    2.85
   0   9 -27    0.55    5.33
   0  -9  27    8.93    6.56
   0  -9  27    2.91    1.96
   1   9 -27   -1.61    2.71
   1   9 -27    3.70    5.49
  -1  -9  27    1.14    6.56
  -1  -9  27   -0.62    1.78
   2   9 -27    1.68    5.81
   2   9 -27    6.72    3.47
  -2  -9  27    9.67    2.56
  -2  -9  27    5.53    7.00
   3   9 -27    1.90    5.50
   3   9 -27    1.74    3.03
  -3  -9  27  -11.01    6.94
  -3  -9  27    0.41    1.95
   4   9 -27   11.02    6.12
   4   9 -27   14.35    3.82
  -4  -9  27    4.53    3.00
  -4  -9  27    4.11    7.09
   5   9 -27    4.76    5.86
   5   9 -27    4.43    3.22
  -5  -9  27    0.31    6.99
  -5  -9  27    0.15    2.30
   6   9 -27    9.67    5.18
   6   9 -27    1.43    7.51
  -6  -9  27   41.64    9.02
  -6  -9  27   10.61    4.33
   7   9 -27    0.21    6.02
   7   9 -27    0.19    3.24
  -7  -9  27    6.89    7.84
  -7  -9  27    0.16    2.33
   8   9 -27    0.22    6.37
  -8  -9  27   -9.12    8.40
   9   9 -27    0.23    6.84
  -9  -9  27    4.33    2.67
  -9  -9  27  -11.86    8.77
  10   8 -27   -6.38    7.22
 -10  -8  27    7.72    9.30
 -10  -8  27    2.32    2.52
  10   7 -27    0.84    2.91
  10   7 -27   -0.25    7.01
 -10  -7  27    6.42    9.46
 -10  -7  27    0.16    2.37
  10   6 -27   -0.25    6.82
  10   6 -27    0.15    2.68
 -10  -6  27   -3.08    9.34
 -10  -6  27    0.47    2.58
  10   5 -27   -6.22    2.87
 -10  -5  27    0.15    2.44
  10   4 -27   -7.87    2.78
 -10  -4  27   -4.96    9.13
  10   3 -27    6.45    2.57
  10   3 -27    2.65    6.75
 -10  -3  27   -6.16    8.35
  -1  10 -27   -3.04    2.90
   0  10 -27   -6.83    5.69
   0  10 -27  -10.46    3.34
   0 -10  27   -1.50    1.82
   0 -10  27    0.84    6.68
   1  10 -27    2.46    3.07
   1  10 -27    2.11    5.64
  -1 -10  27    2.98    1.81
  -1 -10  27   -7.23    6.59
   2  10 -27   -2.73    5.60
   2  10 -27   -6.73    3.50
  -2 -10  27  -14.02    6.94
  -2 -10  27    1.79    1.80
   3  10 -27    1.44    3.53
   3  10 -27   -3.36    5.83
  -3 -10  27    1.88    2.26
  -3 -10  27   -2.51    6.96
   4  10 -27   -0.21    3.90
   4  10 -27   -0.20    6.02
  -4 -10  27   -0.61    2.39
  -4 -10  27  -16.09    7.86
   5  10 -27   -7.82    6.49
   5  10 -27  -13.82    4.02
  -5 -10  27    0.79    2.53
   6  10 -27    0.21    5.93
   6  10 -27    1.91    3.57
  -6 -10  27    0.16    7.46
  -6 -10  27    0.49    2.32
   7  10 -27    0.44    3.92
   7  10 -27    3.48    6.31
  -7 -10  27    5.30    7.76
  -7 -10  27    1.52    2.43
  -8 -10  27   13.52    8.92
  11   7 -27    0.18    2.49
  11   7 -27    7.94    7.26
 -11  -7  27  -19.43   10.35
  11   6 -27    1.15    2.91
  11   6 -27    0.27    7.30
 -11  -6  27   -0.24    9.56
 -11  -6  27    0.32    2.43
  11   5 -27    2.16    7.22
  11   5 -27   -5.89    2.66
 -11  -5  27   -0.16    2.44
 -11  -5  27   -5.45    9.66
  11   4 -27   -2.72    6.98
  11   4 -27    0.72    2.51
 -11  -4  27    9.09    9.03
  11   3 -27    1.14    2.61
 -11  -3  27    3.38    8.82
   0  11 -27    3.62    4.58
   0  11 -27    8.84    7.35
   0 -11  27    8.99    3.02
   1  11 -27   -8.93    3.97
  -1 -11  27   -0.98    2.07
  -1 -11  27   14.95    7.40
   2  11 -27   -9.33    4.22
   2  11 -27  -10.92    6.60
   3  11 -27   -0.24    3.92
   3  11 -27    8.23    5.71
  -3 -11  27   -9.72    6.77
  -3 -11  27    1.87    2.23
   4  11 -27   10.21    4.26
   4  11 -27    0.21    6.17
  -4 -11  27    4.35    7.13
  -4 -11  27    5.64    2.63
   5  11 -27    8.81    6.32
   5  11 -27    2.20    3.97
  -5 -11  27    2.40    7.26
  -5 -11  27    3.02    2.58
   6  11 -27    0.22    6.32
   6  11 -27    1.26    3.99
  -6 -11  27    0.17    2.58
  -6 -11  27    2.64    7.54
   7  11 -27    0.23    6.63
  -7 -11  27   -1.54    7.82
  12   6 -27    8.78    7.66
 -12  -6  27   -4.02   10.45
  12   5 -27   -2.00    7.81
  12   5 -27    0.63    2.99
 -12  -5  27    6.56    2.84
 -12  -5  27    8.09   10.39
  12   4 -27   -2.16    2.78
  12   4 -27    0.57    7.41
 -12  -4  27    0.76    9.82
 -12  -4  27   -0.17    2.75
  12   3 -27    0.15    2.65
 -12  -3  27    3.33    9.47
   0  12 -27   -7.42    6.02
   0  12 -27   -2.31    3.50
   0 -12  27    5.75    6.85
   0 -12  27   -0.43    1.81
   1  12 -27   -0.73    3.66
   1  12 -27   10.83    5.99
  -1 -12  27   -0.15    2.05
  -1 -12  27    4.12    7.20
   2  12 -27    9.77    6.42
   2  12 -27    4.81    4.05
  -2 -12  27    1.59    2.19
  -2 -12  27  -11.25    7.33
   3  12 -27   -4.14    4.12
   3  12 -27  -16.76    6.31
  -3 -12  27   12.54    7.43
  -3 -12  27    0.82    2.37
   4  12 -27    0.22    6.13
   4  12 -27  -13.40    4.37
  -4 -12  27    0.17    2.50
  -4 -12  27   10.33    7.57
   5  12 -27    6.24    6.69
  -5 -12  27    9.77    7.66
  13   4 -27  -13.03    8.22
 -13  -4  27   -4.03   10.58
  13   3 -27    0.16    2.91
   0  13 -27   -0.20    6.01
   0 -13  27   -6.05    7.04
   1  13 -27    2.09    6.23
  -1 -13  27    5.14    7.01
  -1 -13  27    2.21    2.23
   2  13 -27   -5.98    6.28
  -2 -13  27   -0.17    2.34
  -2 -13  27   -6.95    7.49
   3  13 -27    0.44    6.38
  -3 -13  27    7.08    7.64
  -3 -13  27   -6.04    2.46
   2  14 -27    0.22    6.34
  -2 -14  27   -6.36    7.73
  -1   2 -28    2.62    2.18
   0   2 -28    7.23    2.91
  -2   2 -28    3.32    2.23
  -2   3 -28   -0.64    1.96
  -1   3 -28   -0.45    1.99
   0   3 -28    0.46    2.15
   0  -3  28   11.45    6.16
   1   3 -28    3.91    2.22
  -1  -3  28   -3.89    6.64
   2   3 -28   -0.85    2.04
  -2  -3  28    3.05    6.44
   3   3 -28   -9.16    5.67
   3   3 -28   -1.96    2.27
  -3  -3  28   -7.33    6.74
   4   3 -28    8.48    2.62
   4   3 -28    0.23    6.05
  -4  -3  28    0.19    7.12
  -1   4 -28    1.59    1.85
  -1   4 -28   -5.27    5.72
   1  -4  28    0.49    6.51
   0   4 -28   -1.44    2.03
   0   4 -28   -9.19    6.02
   0  -4  28   -4.71    6.57
   1   4 -28    4.34    2.19
   1   4 -28   -1.53    5.77
  -1  -4  28   -1.89    6.63
   2   4 -28   -0.66    5.66
   2   4 -28    0.35    2.13
  -2  -4  28   -6.83    6.46
   3   4 -28    5.95    5.95
   3   4 -28    5.70    2.48
  -3  -4  28    1.61    7.16
   4   4 -28    5.13    5.72
   4   4 -28    0.12    2.09
  -4  -4  28    0.55    7.17
   5   4 -28    0.23    5.69
   5   4 -28    1.60    2.21
  -5  -4  28   -2.83    7.30
   5   3 -28    4.70    5.84
   5   3 -28   -3.43    2.25
  -5  -3  28    6.55    7.18
  -1   5 -28    7.15    2.72
  -1   5 -28   26.79    6.58
   1  -5  28    7.91    7.16
   1  -5  28    1.59    2.50
   0   5 -28    3.80    2.16
   0   5 -28    4.46    5.94
   0  -5  28   -6.93    6.91
   1   5 -28   11.03    6.48
   1   5 -28    3.59    2.91
  -1  -5  28   23.23    7.61
   2   5 -28    8.21    3.21
   2   5 -28    8.07    6.56
  -2  -5  28   10.97    7.76
   3   5 -28    0.43    5.87
   3   5 -28   -0.12    2.21
  -3  -5  28    5.78    7.19
   4   5 -28   -4.11    5.79
   4   5 -28   -0.74    2.29
  -4  -5  28   -0.36    7.31
   5   5 -28   -1.64    2.32
   5   5 -28    0.44    6.11
  -5  -5  28   -3.51    7.46
   6   5 -28    2.04    6.16
   6   5 -28    3.35    2.37
  -6  -5  28    4.98    7.65
   6   4 -28    0.23    6.10
   6   4 -28    1.13    2.26
  -6  -4  28  -19.91    7.57
   6   3 -28    1.68    6.12
   6   3 -28    3.59    2.49
  -6  -3  28    5.57    7.47
  -1   6 -28    0.62    5.61
  -1   6 -28    0.68    2.07
   1  -6  28    2.65    1.70
   1  -6  28   -1.43    6.61
   0   6 -28    2.03    2.21
   0   6 -28    2.89    5.85
   0  -6  28    3.91    2.02
   0  -6  28  -11.02    7.16
   1   6 -28   -0.12    2.18
   1   6 -28   -1.23    5.74
  -1  -6  28    1.75    1.86
  -1  -6  28    0.99    7.01
   2   6 -28   -4.74    5.50
   2   6 -28   -4.15    2.27
  -2  -6  28    5.55    7.16
  -2  -6  28    3.64    2.11
   3   6 -28    5.02    2.51
   3   6 -28    3.95    5.85
  -3  -6  28   -7.39    7.34
  -3  -6  28    5.23    2.35
   4   6 -28    4.21    2.44
   4   6 -28   -0.21    5.73
  -4  -6  28   11.45    7.34
  -4  -6  28    1.24    2.26
   5   6 -28   -0.13    2.38
   5   6 -28    3.44    5.91
  -5  -6  28   -5.45    7.69
  -5  -6  28    0.14    2.14
   6   6 -28    4.20    5.89
   6   6 -28    0.82    2.43
  -6  -6  28    0.86    2.29
  -6  -6  28    3.96    7.87
   7   6 -28    0.23    6.23
   7   6 -28    0.14    2.54
  -7  -6  28    0.15    2.23
  -7  -6  28  -11.23    8.49
   7   5 -28    1.21    2.30
   7   5 -28    2.11    6.41
  -7  -5  28   -0.20    8.16
   7   4 -28    2.18    2.36
   7   4 -28   -4.32    6.13
  -7  -4  28    5.89    7.67
   7   3 -28    0.25    6.19
  -7  -3  28  -14.07    7.70
  -1   7 -28   -4.04    2.24
  -1   7 -28    1.20    5.65
   1  -7  28   -0.22    1.61
   1  -7  28    1.08    6.87
   0   7 -28   -7.01    5.78
   0   7 -28   -1.57    2.28
   0  -7  28    4.02    1.76
   0  -7  28    8.19    6.85
   1   7 -28    1.18    2.40
   1   7 -28    6.82    5.85
  -1  -7  28   -0.12    1.94
  -1  -7  28   17.84    6.87
   2   7 -28    1.21    5.80
   2   7 -28    1.91    2.47
  -2  -7  28    3.53    2.08
  -2  -7  28    3.54    7.24
   3   7 -28   -0.20    5.76
   3   7 -28    1.41    2.37
  -3  -7  28    4.45    6.93
  -3  -7  28    0.27    2.15
   4   7 -28   -3.10    6.04
   4   7 -28    3.75    2.58
  -4  -7  28    3.88    7.24
  -4  -7  28    0.28    1.98
   5   7 -28    0.21    5.77
   5   7 -28    0.15    2.56
  -5  -7  28    1.22    7.07
  -5  -7  28    0.29    2.07
   6   7 -28    0.15    2.55
   6   7 -28    0.22    5.93
  -6  -7  28    0.15    2.33
  -6  -7  28    4.33    7.71
   7   7 -28   -0.23    6.63
   7   7 -28   -2.17    2.89
  -7  -7  28   26.44    8.72
  -7  -7  28    0.15    2.37
   8   7 -28  -15.38    6.78
  -8  -7  28    0.40    8.98
   8   6 -28   26.66   16.89
  -8  -6  28  109.84   18.49
   8   5 -28   -0.24    6.65
  -8  -5  28   -7.13    8.40
   8   4 -28   -0.13    2.72
   8   4 -28    3.48    6.70
  -8  -4  28   17.45    8.33
   8   3 -28    0.26    6.88
   8   3 -28   -0.14    2.51
  -8  -3  28  -10.60    7.81
  -1   8 -28   -2.60    2.37
  -1   8 -28   -0.20    5.59
   0   8 -28    4.72    6.08
   0   8 -28    8.34    2.89
   0  -8  28    2.24    2.20
   0  -8  28    5.60    7.04
   1   8 -28    0.39    5.72
   1   8 -28    7.80    2.63
  -1  -8  28   -2.26    1.89
  -1  -8  28   -5.24    6.82
   2   8 -28  -11.48    5.88
   2   8 -28    3.54    2.67
  -2  -8  28   -0.31    6.78
  -2  -8  28    5.04    2.05
   3   8 -28    0.48    2.74
   3   8 -28   11.02    5.87
  -3  -8  28   -8.65    7.22
  -3  -8  28    0.28    2.21
   4   8 -28    3.46    6.04
   4   8 -28   12.13    3.27
  -4  -8  28    0.14    2.51
  -4  -8  28   14.62    7.68
   5   8 -28    1.18    2.82
   5   8 -28   -4.17    5.82
  -5  -8  28   -7.46    7.53
  -5  -8  28    0.15    2.28
   6   8 -28   20.65    6.98
   6   8 -28   36.09   10.40
  -6  -8  28    8.35    6.11
   7   8 -28    1.59    3.14
   7   8 -28    0.22    6.42
  -7  -8  28    4.80    8.06
  -7  -8  28   -0.16    2.41
   8   8 -28    0.23    6.83
  -8  -8  28  -11.84    9.15
   9   8 -28   -4.68    2.76
   9   8 -28    0.25    7.15
  -9  -8  28   -5.84    9.03
  -9  -8  28    0.17    2.00
   9   7 -28    2.00    6.77
   9   7 -28   -2.06    3.17
  -9  -7  28   -8.74    9.09
  -9  -7  28    0.16    2.33
   9   6 -28    0.25    7.02
   9   6 -28    0.15    2.70
  -9  -6  28   -1.75    9.21
  -9  -6  28   -0.16    2.45
   9   5 -28   -2.44    2.79
  -9  -5  28    0.78    2.49
   9   4 -28   -7.82    2.94
  -9  -4  28  -19.71    9.53
   9   3 -28    0.42    2.61
  -9  -3  28  -12.51    8.24
   0   9 -28    2.55    5.78
   0   9 -28    3.07    2.84
   0  -9  28   -0.45    6.72
   0  -9  28   -0.12    1.78
   1   9 -28    5.74    5.74
   1   9 -28    2.88    2.97
  -1  -9  28   -0.31    6.97
  -1  -9  28    2.05    1.92
   2   9 -28   -3.19    5.74
   2   9 -28   -5.32    3.03
  -2  -9  28   -7.08    7.16
  -2  -9  28   -1.77    2.16
   3   9 -28    2.43    6.11
   3   9 -28    9.20    3.17
  -3  -9  28   -1.57    7.15
  -3  -9  28   -0.14    2.28
   4   9 -28   -6.45    3.85
  -4  -9  28   -9.60    2.80
   5   9 -28   -3.31    3.53
  -5  -9  28    0.16    2.30
   6   9 -28    0.20    3.43
   6   9 -28   -0.65    6.13
  -6  -9  28    2.96    7.76
  -6  -9  28    0.16    2.46
   7   9 -28  -12.42    6.32
   7   9 -28   -3.50    3.59
  -7  -9  28    0.17    2.65
  -7  -9  28    1.81    8.16
   8   9 -28    0.24    6.76
  -8  -9  28    1.90    8.62
  -8  -9  28    0.17    2.15
  10   7 -28   -4.76    7.32
 -10  -7  28  -12.23   10.14
  10   6 -28    9.07    7.58
  10   6 -28   -0.16    2.72
 -10  -6  28   -0.49    2.74
 -10  -6  28   -9.30    9.73
  10   5 -28    0.61    2.74
  10   5 -28    0.27    7.06
 -10  -5  28    0.16    2.49
 -10  -5  28   -8.44    9.27
  10   4 -28   -0.27    7.05
  10   4 -28    3.50    2.80
 -10  -4  28    6.85    9.03
  10   3 -28   -5.51    2.68
 -10  -3  28   -3.60    9.15
   0  10 -28  116.24   27.53
   1  10 -28  217.17   41.03
  -1 -10  28  165.23   41.21
   2  10 -28  -15.89    4.48
  -2 -10  28   -2.90    2.70
  -2 -10  28  -20.18    8.57
   3  10 -28   -3.05    3.85
   3  10 -28   -3.30    6.02
  -3 -10  28    2.14    2.21
   4  10 -28    3.38    3.71
   4  10 -28    9.67    6.11
  -4 -10  28   12.52    7.71
  -4 -10  28    0.16    2.62
   5  10 -28   -6.75    3.66
   5  10 -28    4.74    6.07
  -5 -10  28    0.16    2.50
  -5 -10  28   -6.16    7.86
   6  10 -28    1.33    6.36
   6  10 -28    0.22    3.86
  -6 -10  28    0.50    2.48
  -6 -10  28    1.59    7.94
   7  10 -28    0.23    6.54
  -7 -10  28   -9.13    8.58
  11   6 -28   -4.53    7.66
  11   5 -28    1.76    3.15
  11   5 -28   12.57    7.71
 -11  -5  28    3.37    3.12
 -11  -5  28   22.69   10.33
  11   4 -28   -0.15    2.65
  11   4 -28    1.44    7.59
 -11  -4  28  -16.27    9.83
  11   3 -28   -0.91    2.76
 -11  -3  28    3.81    9.30
   0  11 -28    0.21    6.03
   0  11 -28   -1.08    3.53
   0 -11  28   -1.67    7.13
   0 -11  28   -0.27    1.87
   1  11 -28    0.21    6.41
   1  11 -28    3.42    3.67
  -1 -11  28   -0.15    2.07
  -1 -11  28   -0.62    7.15
   2  11 -28    4.27    6.40
   2  11 -28    1.20    3.75
  -2 -11  28   -5.88    7.53
  -2 -11  28    0.93    2.32
   3  11 -28    0.97    4.07
   3  11 -28    0.22    6.23
  -3 -11  28    0.16    2.32
  -3 -11  28   14.42    7.68
   4  11 -28    5.26    4.29
   4  11 -28    8.18    6.52
  -4 -11  28    3.22    2.60
  -4 -11  28    3.32    7.85
   5  11 -28   12.14    4.55
   5  11 -28    0.23    6.48
  -5 -11  28    0.35    2.70
  -5 -11  28    2.76    8.01
  12   4 -28    0.30    7.71
 -12  -4  28   -6.91   10.48
  12   3 -28    0.16    2.77
   0  12 -28    5.15    6.53
   0  12 -28   -7.40    3.75
   1  12 -28    9.38    6.46
   1  12 -28    0.25    3.95
  -1 -12  28    1.87    2.27
  -1 -12  28   -3.17    7.60
   2  12 -28    9.92    4.34
   2  12 -28   -0.22    6.46
  -2 -12  28    2.59    7.55
  -2 -12  28    0.98    2.25
   3  12 -28    9.74    6.83
   3  12 -28   -0.27    4.59
  -3 -12  28   14.85    7.94
  -3 -12  28    5.70    2.91
   4  12 -28    4.17    6.66
  -4 -12  28    2.71    7.73
  -4 -12  28    0.18    2.24
   1  13 -28    5.16    6.51
  -1 -13  28    0.18    2.47
  -1 -13  28   10.42    8.02
   2  13 -28   -0.69    6.76
  -2 -13  28   -7.99    8.02
  -2 -13  28   -3.80    2.40
  -1   3 -29    4.59    2.39
   0   3 -29    0.37    2.19
   1   3 -29    3.01    2.46
   2   3 -29    3.32    2.42
  -2  -3  29   -0.19    6.82
   3   3 -29   -1.69    2.31
  -3  -3  29   -8.54    7.25
   4   3 -29    3.16    2.47
  -4  -3  29    3.77    7.22
  -1   4 -29   -3.13    2.01
   1  -4  29    6.98    6.48
   0   4 -29    1.65    6.38
   0   4 -29   -1.99    2.11
   0  -4  29    3.03    6.82
   1   4 -29    1.09    2.15
   1   4 -29  -12.44    6.89
  -1  -4  29   12.17    7.16
   2   4 -29    1.41    7.16
   2   4 -29   14.44    3.70
  -2  -4  29   11.69    7.96
   3   4 -29    0.13    2.11
   3   4 -29   -6.81    6.23
  -3  -4  29    4.55    7.20
   4   4 -29    0.38    2.22
   4   4 -29    0.71    6.03
  -4  -4  29   -0.39    7.32
   5   4 -29    4.68    2.31
   5   4 -29   -0.24    6.19
  -5  -4  29   -4.19    7.41
   5   3 -29    0.13    2.39
  -5  -3  29   -2.24    7.46
  -1   5 -29    3.09    2.29
  -1   5 -29    7.48    6.31
   1  -5  29    1.80    2.13
   1  -5  29   13.20    6.84
   0   5 -29    3.91    2.27
   0   5 -29    2.74    6.30
   0  -5  29   -0.53    7.37
   1   5 -29    0.74    2.26
   1   5 -29    3.42    6.33
  -1  -5  29   -3.22    7.31
   2   5 -29   -7.54    6.20
   2   5 -29   -3.28    2.34
  -2  -5  29   -2.92    7.39
   3   5 -29    0.23    6.27
   3   5 -29    3.73    2.50
  -3  -5  29   10.07    7.64
   4   5 -29    0.23    6.25
   4   5 -29   -0.13    2.23
  -4  -5  29    8.02    7.70
   5   5 -29    0.24    6.09
   5   5 -29   -0.40    2.35
  -5  -5  29    2.36    7.71
   6   5 -29    1.23    2.48
   6   5 -29   -1.21    6.41
  -6  -5  29    4.47    8.15
   6   4 -29    4.76    2.53
   6   4 -29    0.25    6.45
  -6  -4  29    4.54    7.65
   6   3 -29   -3.11    2.44
  -6  -3  29   20.84    7.79
  -1   6 -29   -6.22    6.19
  -1   6 -29    0.12    2.04
   0   6 -29    0.13    2.27
   0   6 -29   -6.67    6.14
   0  -6  29   -1.21    7.04
   0  -6  29    1.76    1.84
   1   6 -29    0.26    2.27
   1   6 -29   -8.87    6.30
  -1  -6  29    1.41    7.39
  -1  -6  29    1.19    2.13
   2   6 -29    5.06    2.47
   2   6 -29   -6.44    6.20
  -2  -6  29    3.16    2.23
  -2  -6  29   -3.42    7.72
   3   6 -29   -0.14    2.47
   3   6 -29    0.67    5.84
  -3  -6  29   -2.94    7.59
  -3  -6  29    0.14    2.24
   4   6 -29   -0.23    6.07
   4   6 -29   -0.56    2.49
  -4  -6  29    0.19    7.95
  -4  -6  29    0.15    2.24
   5   6 -29    0.23    6.20
   5   6 -29   -4.55    2.58
  -5  -6  29    2.38    2.26
  -5  -6  29    4.85    7.51
   6   6 -29   -0.95    6.45
   6   6 -29    0.87    2.81
  -6  -6  29  -15.46    8.46
  -6  -6  29    0.15    2.25
   7   6 -29   -7.73    3.15
   7   6 -29  -23.33    7.64
  -7  -6  29  -20.74    9.57
  -7  -6  29   -7.00    2.64
   7   5 -29    0.25    7.08
   7   5 -29   -5.84    2.87
  -7  -5  29  -23.07    9.02
   7   4 -29    0.68    2.47
   7   4 -29    5.60    6.68
  -7  -4  29   -4.72    8.04
   7   3 -29    5.27    2.83
  -7  -3  29    8.08    7.92
  -1   7 -29    7.37    2.92
   0   7 -29    1.52    2.45
   0   7 -29    0.22    6.23
   0  -7  29  -17.38    7.42
   0  -7  29   -2.62    1.95
   1   7 -29    4.32    2.70
   1   7 -29    7.17    6.12
  -1  -7  29    3.04    2.17
  -1  -7  29    4.65    7.53
   2   7 -29   -3.93    6.00
   2   7 -29    2.61    2.66
  -2  -7  29  -10.71    7.59
  -2  -7  29    1.80    2.04
   3   7 -29    7.00    6.03
   3   7 -29    5.37    2.83
  -3  -7  29    0.36    7.61
  -3  -7  29    1.43    2.40
   4   7 -29    0.89    6.00
   4   7 -29    6.73    2.77
  -4  -7  29   -7.17    7.98
  -4  -7  29    0.15    2.52
   5   7 -29   -5.62    2.86
   5   7 -29   -1.81    6.43
  -5  -7  29    0.15    2.47
  -5  -7  29  -19.51    8.61
   6   7 -29    1.87    7.13
   6   7 -29   -8.31    3.12
  -6  -7  29    0.31    2.64
  -6  -7  29  -13.34    9.20
   7   7 -29    0.82    2.81
   7   7 -29    5.10    6.39
  -7  -7  29   -3.88    9.03
  -7  -7  29    0.16    2.48
   8   7 -29    2.28    7.31
  -8  -7  29    0.21    9.17
  -8  -7  29    0.16    2.42
   8   6 -29    0.26    7.19
  -8  -6  29   -5.93    9.18
  -8  -5  29  -11.08    9.55
   8   4 -29   57.05   16.36
  -8  -4  29   62.45   16.86
  -8  -3  29  -11.40    8.44
   0   8 -29   -4.49    2.90
   0   8 -29   -0.21    6.15
   0  -8  29  -13.24    7.32
   0  -8  29   -1.12    1.93
   1   8 -29    0.94    2.68
   1   8 -29    2.55    6.04
  -1  -8  29    2.03    7.38
  -1  -8  29    0.40    2.06
   2   8 -29    0.49    2.72
   2   8 -29    4.48    6.20
  -2  -8  29    3.62    7.30
  -2  -8  29   -1.40    2.17
   3   8 -29  -12.94    6.50
   3   8 -29    7.93    3.15
  -3  -8  29    3.22    2.44
   4   8 -29   31.12    9.71
   4   8 -29   18.58    6.34
  -4  -8  29    1.66    5.28
   5   8 -29    2.49    3.16
   5   8 -29   -9.64    6.72
  -5  -8  29    0.16    2.52
  -5  -8  29  -19.70    8.70
   6   8 -29    0.23    6.68
   6   8 -29    0.36    3.30
  -6  -8  29   -1.92    8.19
  -6  -8  29   -7.52    2.47
   7   8 -29    1.20    6.74
   7   8 -29   -3.55    3.29
  -7  -8  29   -2.41    8.59
  -7  -8  29    1.48    2.51
   8   8 -29    0.25    7.48
  -8  -8  29   -6.93    9.43
   9   7 -29   -3.99    7.60
  -9  -7  29   -2.07    9.69
   9   6 -29   -0.81    7.56
   9   6 -29   -0.16    2.86
  -9  -6  29   -0.17    2.69
  -9  -6  29    0.93    9.69
   9   5 -29    1.52    2.75
   9   5 -29   -6.81    7.52
  -9  -5  29  -10.03    9.59
  -9  -5  29    2.79    2.52
   9   4 -29    0.15    2.67
   9   4 -29    0.28    7.32
  -9  -4  29   17.86    9.35
   9   3 -29  -11.65    2.97
  -9  -3  29   -3.11    8.81
   0   9 -29  152.60   44.00
   0  -9  29  236.73   47.48
   1   9 -29  375.17  111.76
  -1  -9  29  358.47  112.20
  -2  -9  29   -4.91    2.69
   3   9 -29   -7.56    6.53
   3   9 -29   -8.38    3.65
  -3  -9  29   -3.35    2.54
   4   9 -29    0.40    3.37
   4   9 -29    0.22    6.10
  -4  -9  29   -2.06    2.49
  -4  -9  29   12.03    7.67
   5   9 -29    0.19    3.29
   5   9 -29    0.23    6.22
  -5  -9  29   -0.18    7.90
  -5  -9  29    0.49    2.45
   6   9 -29    5.57    3.40
   6   9 -29    1.85    6.29
  -6  -9  29   -5.66    8.50
  -6  -9  29    0.17    2.61
   7   9 -29   -3.84    6.76
  -7  -9  29   -7.67    9.08
  10   5 -29   -0.29    7.46
 -10  -5  29   -3.21    9.88
  10   4 -29    3.24    2.88
  10   4 -29    0.58    7.40
 -10  -4  29   -6.19    9.83
  10   3 -29    0.15    2.77
 -10  -3  29  -12.60    9.04
   0  10 -29    5.30    6.28
   0  10 -29    6.30    3.34
   0 -10  29   -1.72    1.96
   0 -10  29    4.51    7.50
   1  10 -29    7.34    3.80
   1  10 -29    7.71    6.29
  -1 -10  29    2.14    7.94
  -1 -10  29    2.58    2.45
   2  10 -29  -14.74    6.35
   2  10 -29    3.31    3.76
  -2 -10  29   -1.84    2.34
  -2 -10  29   -0.34    7.85
   3  10 -29   -9.90    6.46
   3  10 -29   14.68    3.96
  -3 -10  29    0.16    2.69
  -3 -10  29    8.44    7.89
   4  10 -29    0.22    6.22
   4  10 -29   -2.46    3.77
  -4 -10  29   -8.62    7.89
  -4 -10  29   -0.49    2.27
   5  10 -29    2.29    6.46
   5  10 -29    3.92    3.94
  -5 -10  29    0.90    8.18
  -5 -10  29    0.17    2.50
   6  10 -29    3.77    6.67
  -6 -10  29   -0.38    8.70
  11   4 -29    5.51    7.91
 -11  -4  29   -4.73   10.07
   0  11 -29   -5.20    6.35
   0  11 -29    7.88    3.83
   1  11 -29   -2.63    3.92
   1  11 -29   -5.50    6.37
  -1 -11  29    3.38    8.00
  -1 -11  29   -0.31    2.20
   2  11 -29    2.68    3.96
   2  11 -29    8.71    6.54
  -2 -11  29    4.65    8.29
  -2 -11  29   -0.16    2.43
   3  11 -29   -1.59    6.36
   3  11 -29    9.94    4.13
  -3 -11  29   -2.82    8.07
  -3 -11  29    0.51    2.54
   4  11 -29    0.46    6.59
  -4 -11  29    0.89    2.71
  -4 -11  29    5.24    8.39
   1  12 -29   27.39    7.23
   1  12 -29   -0.26    4.25
  -1 -12  29   -4.80    8.17
  -1 -12  29   -3.25    2.30
   2  12 -29    1.10    4.50
   2  12 -29    1.41    6.72
  -2 -12  29    6.83    8.52
  -2 -12  29    1.54    2.26
   3  12 -29    0.95    6.96
  -3 -12  29   -4.83    8.41
   1  13 -29  -16.02    7.25
  -1 -13  29  -12.95    8.44
  -1 -13  29   -0.18    2.08
  -1   3 -30    3.10    2.43
   0   3 -30   -2.70    2.33
   1   3 -30    1.19    2.39
   2   3 -30    0.67    2.36
   3   3 -30    6.16    2.91
   4   3 -30    0.28    2.42
  -4  -3  30   -3.99    7.25
  -1   4 -30    2.71    2.29
   1  -4  30    5.72    6.86
   0   4 -30    2.22    2.26
   0  -4  30  -15.68    7.32
   1   4 -30   -1.66    2.24
   1   4 -30    1.26    7.40
  -1  -4  30   -0.19    7.30
   2   4 -30   -3.00    2.25
   2   4 -30    8.31    6.77
  -2  -4  30    4.90    7.35
   3   4 -30  -12.37    6.54
   3   4 -30   -1.20    2.19
  -3  -4  30   -9.61    7.66
   4   4 -30    3.24    2.55
   4   4 -30    0.25    6.68
  -4  -4  30    7.38    7.87
   5   4 -30    0.52    6.87
   5   4 -30    3.30    2.39
  -5  -4  30    0.21    7.72
   5   3 -30    1.54    2.61
  -5  -3  30   -3.45    7.52
  -1   5 -30   -0.12    2.20
  -1   5 -30  -15.09    6.71
   0   5 -30   -1.50    2.25
   0   5 -30    8.27    6.51
   0  -5  30   -4.65    7.19
   1   5 -30   -2.47    2.39
   1   5 -30   -0.24    6.47
  -1  -5  30   -5.89    7.34
   2   5 -30    7.34    6.67
   2   5 -30    7.08    2.75
  -2  -5  30   -9.90    8.05
   3   5 -30   -0.25    6.41
   3   5 -30   -3.00    2.50
  -3  -5  30    7.33    7.81
   4   5 -30   -1.49    6.55
   4   5 -30   -4.16    2.64
  -4  -5  30    0.20    8.00
   5   5 -30    0.25    6.70
   5   5 -30   -3.11    2.55
  -5  -5  30    2.08    8.27
   6   5 -30   40.84   12.26
  -6  -5  30   76.67   16.83
   6   4 -30   -3.08    2.60
   6   4 -30    0.26    6.96
  -6  -4  30   -8.26    8.49
   6   3 -30    0.14    2.65
  -6  -3  30    8.67    7.99
   0   6 -30    1.19    6.43
   0   6 -30    0.13    2.32
   0  -6  30   -0.40    2.07
   0  -6  30    2.58    7.88
   1   6 -30   -4.51    2.48
   1   6 -30   -0.24    6.58
  -1  -6  30    6.96    7.98
  -1  -6  30    2.37    2.09
   2   6 -30    0.24    6.53
   2   6 -30   -2.68    2.43
  -2  -6  30   -1.45    2.25
  -2  -6  30    7.49    7.86
   3   6 -30    2.40    6.48
   3   6 -30    1.73    2.56
  -3  -6  30   -2.25    2.45
  -3  -6  30   -0.78    8.22
   4   6 -30    2.07    2.66
   4   6 -30    3.89    6.54
  -4  -6  30    0.15    2.57
  -4  -6  30  -21.28    8.65
   5   6 -30   39.37   12.18
   5   6 -30   29.03    7.47
  -5  -6  30    2.35    6.79
   6   6 -30   -6.76    3.00
   6   6 -30   -1.27    6.94
  -6  -6  30    1.12    2.49
  -6  -6  30  -22.22    9.34
   7   6 -30    0.26    7.10
   7   6 -30   -1.73    2.94
  -7  -6  30    0.16    2.55
  -7  -6  30   10.44    9.30
   7   5 -30    0.27    7.18
   7   5 -30    0.15    2.77
  -7  -5  30    0.16    2.51
  -7  -5  30   14.55    9.14
  -7  -4  30   -9.25    9.51
   7   3 -30  -14.38    3.54
   0   7 -30    1.75    2.53
   0   7 -30   -2.10    6.72
   0  -7  30    2.50    1.93
   0  -7  30   -7.50    8.07
   1   7 -30    5.37    6.67
   1   7 -30   -1.62    2.62
  -1  -7  30   -6.36    8.04
  -1  -7  30   -1.25    2.27
   2   7 -30   -4.14    3.04
  -2  -7  30  -27.83    9.00
  -2  -7  30    1.02    2.34
   3   7 -30   -6.96    3.43
   4   7 -30   -7.45    3.21
  -4  -7  30  -25.50   10.12
  -4  -7  30   -0.47    2.67
   5   7 -30   -2.48    2.97
   5   7 -30   -0.24    6.76
  -5  -7  30   -0.16    2.49
  -5  -7  30  -12.71    8.78
   6   7 -30    6.92    3.11
   6   7 -30   -1.25    6.91
  -6  -7  30   -3.82    8.81
  -6  -7  30    0.16    2.51
   7   7 -30    2.07    7.23
   7   7 -30   -0.17    3.01
  -7  -7  30    0.17    2.65
  -7  -7  30    0.22    9.63
   8   7 -30    0.27    7.40
   8   6 -30    0.27    7.80
  -8  -6  30   -0.17    2.69
  -8  -6  30   12.55    9.96
   8   5 -30   -4.15    7.54
  -8  -5  30   -0.70    9.67
   8   4 -30    0.28    7.46
  -8  -4  30   -6.35    9.32
  -8  -3  30   -3.84    8.87
   0  -8  30   10.24    3.54
  -1  -8  30   -4.07    2.48
   2   8 -30  -12.43    3.78
  -2  -8  30   -3.55    2.84
   3   8 -30   -0.89    3.10
   3   8 -30    5.36    6.59
  -3  -8  30  -15.63    8.18
  -3  -8  30   -3.86    2.52
   4   8 -30    1.10    3.12
   4   8 -30    0.24    6.39
  -4  -8  30   14.85    8.69
  -4  -8  30    0.80    2.50
   5   8 -30    0.19    3.18
   5   8 -30  -10.14    7.04
  -5  -8  30    0.49    2.54
  -5  -8  30    2.18    8.76
   6   8 -30    1.16    3.17
   6   8 -30   -6.46    7.11
  -6  -8  30   -0.17    2.68
  -6  -8  30    3.13    8.96
   7   8 -30    2.83    7.19
  -7  -8  30   -6.52    9.27
   9   5 -30    0.29    7.77
   9   5 -30    0.16    2.20
  -9  -5  30    7.13    9.84
  -9  -5  30    0.17    2.46
   9   4 -30    0.16    2.77
   9   4 -30    1.18    7.79
  -9  -4  30    1.73    9.29
   0   9 -30    9.72    6.59
   0   9 -30   -0.89    2.96
   0  -9  30    1.98    2.08
   0  -9  30    0.18    8.01
   1   9 -30    2.83    3.29
   1   9 -30    3.87    6.62
  -1  -9  30   -1.00    2.26
  -1  -9  30    0.18    7.94
   2   9 -30    1.61    6.60
   2   9 -30    2.78    3.38
  -2  -9  30    0.61    2.25
  -2  -9  30    3.45    8.15
   3   9 -30    3.30    3.61
   3   9 -30   -2.09    6.69
  -3  -9  30    0.16    2.58
  -3  -9  30   16.73    8.21
   4   9 -30   -1.18    6.52
   4   9 -30    5.59    3.51
  -4  -9  30  -13.89    8.65
  -4  -9  30   -0.16    2.38
   5   9 -30   -4.92    3.59
   5   9 -30    2.17    6.83
  -5  -9  30   -0.17    2.50
  -5  -9  30  -16.66    8.69
   6   9 -30    1.98    7.18
  -6  -9  30    8.52    9.04
   0  10 -30    6.82    3.95
   1  10 -30    1.99    3.81
   1  10 -30    7.09    6.63
  -1 -10  30    1.66    2.26
  -1 -10  30    0.18    8.17
   2  10 -30   -0.23    4.04
   2  10 -30   -4.62    6.63
  -2 -10  30   10.88    8.49
  -2 -10  30   -1.45    2.30
   3  10 -30   -4.92    6.94
   3  10 -30    3.42    3.78
  -3 -10  30   10.19    8.17
  -3 -10  30    0.50    2.48
   4  10 -30    1.67    6.73
   4  10 -30    1.42    4.17
  -4 -10  30   -6.83    8.60
  -4 -10  30    3.98    2.55
   1  11 -30    3.76    4.11
   1  11 -30    1.86    6.75
  -1 -11  30    5.61    8.27
  -1 -11  30    2.08    2.29
   2  11 -30    5.66    4.34
   2  11 -30   13.69    7.18
  -2 -11  30   23.50    8.91
  -2 -11  30   -0.17    2.82
   3  11 -30    3.60    6.99
  -3 -11  30    0.18    2.73
  -3 -11  30    6.43    8.48
   1  12 -30    6.26    7.05
  -1 -12  30   -7.78    8.69
  -1 -12  30    0.33    2.32
  -1   3 -31    6.55    2.89
   0   3 -31    3.34    2.57
   1   3 -31    3.06    2.60
   2   3 -31   -0.71    2.45
  -1   4 -31    4.59    2.54
   0   4 -31    4.02    2.83
   0  -4  31   11.39    7.47
   1   4 -31   -0.40    2.45
  -1  -4  31    6.74    7.94
   2   4 -31    0.83    2.32
  -2  -4  31    0.21    7.51
   3   4 -31    1.54    2.44
  -3  -4  31    8.50    7.70
   4   4 -31   -2.14    2.66
   4   4 -31  -15.77    7.09
  -4  -4  31    6.73    8.11
   5   4 -31   66.58   22.83
  -5  -4  31  142.13   28.15
   0   5 -31   -1.62    2.41
   0   5 -31   -8.10    6.90
   0  -5  31   -4.31    7.70
   1   5 -31    3.71    2.84
   1   5 -31  -10.43    7.12
  -1  -5  31   23.11    8.18
   2   5 -31    2.40    2.57
   2   5 -31    5.21    7.08
  -2  -5  31   -3.91    7.90
   3   5 -31   -6.49    3.10
  -3  -5  31  -11.76    8.37
   4   5 -31  141.78   31.59
  -4  -5  31  109.44   31.91
   5   5 -31    4.93    2.64
   5   5 -31   -6.70    7.15
  -5  -5  31  -27.17    9.01
   6   5 -31   -0.27    6.95
   6   5 -31    1.53    2.74
  -6  -5  31   -2.74    8.50
   6   4 -31   -0.15    2.64
   6   4 -31    0.28    6.79
  -6  -4  31   -8.96    8.54
   0   6 -31   -6.80    2.96
   0  -6  31   -2.38    2.43
   1   6 -31   -9.10    3.05
  -1  -6  31   -1.48    2.57
  -2  -6  31  104.39   25.42
   3   6 -31   -3.67    2.94
  -3  -6  31   -2.38    2.54
   4   6 -31    0.26    7.04
   4   6 -31    1.87    2.87
  -4  -6  31    1.92    8.37
  -4  -6  31    0.16    2.52
   5   6 -31   -0.32    2.79
   5   6 -31    2.65    6.91
  -5  -6  31   -7.25    8.88
  -5  -6  31    2.32    2.65
   6   6 -31   -1.79    3.04
   6   6 -31    0.27    7.48
  -6  -6  31    0.17    2.61
  -6  -6  31    2.27    9.20
   7   6 -31   -1.12    7.53
   7   6 -31    0.17    3.29
  -7  -6  31    1.65    9.60
   7   5 -31    6.86    2.86
   7   5 -31  -10.15    7.47
  -7  -5  31   -0.71    9.33
  -7  -5  31    0.17    2.88
   7   4 -31    0.15    2.71
   7   4 -31    1.73    7.44
  -7  -4  31   -3.57    8.76
   0   7 -31  -10.53    7.72
   0   7 -31   -6.80    3.02
   0  -7  31   -7.79    2.51
   1   7 -31   -8.29    7.04
   1   7 -31   -1.72    2.80
  -1  -7  31   -3.79    8.72
  -1  -7  31    0.15    2.20
   2   7 -31   -3.78    6.97
   2   7 -31    1.95    2.73
  -2  -7  31    2.24    8.54
  -2  -7  31    0.15    2.37
   3   7 -31    3.55    7.13
   3   7 -31    3.01    2.93
  -3  -7  31  -17.25    8.98
  -3  -7  31    1.44    2.55
   4   7 -31    0.51    7.00
   4   7 -31    2.06    3.12
  -4  -7  31   16.39    9.20
  -4  -7  31    1.32    2.51
   5   7 -31   -3.50    3.06
   5   7 -31  -15.69    7.38
  -5  -7  31    7.22    8.96
  -5  -7  31    0.17    2.60
   6   7 -31    1.07    3.12
   6   7 -31    0.27    6.99
  -6  -7  31    0.35    2.61
  -6  -7  31   -1.81    9.29
   8   5 -31    0.29    7.71
  -8  -5  31    5.68    9.78
   8   4 -31    0.90    8.17
  -8  -4  31    0.75    8.86
   0   8 -31    1.48    7.03
   0   8 -31   -3.11    2.97
   1   8 -31   -3.47    6.97
   1   8 -31   -1.05    2.90
  -1  -8  31    5.18    2.25
  -1  -8  31   -6.29    8.75
   2   8 -31   -5.48    3.23
   2   8 -31   10.23    7.13
  -2  -8  31  -10.03    8.76
  -2  -8  31    0.16    2.35
   3   8 -31    0.19    3.27
   3   8 -31   -4.53    6.75
  -3  -8  31    7.59    9.02
  -3  -8  31    0.16    2.48
   4   8 -31    0.26    6.89
   4   8 -31    4.48    3.44
  -4  -8  31   -0.17    2.45
  -4  -8  31    2.10    9.27
   5   8 -31    2.86    6.88
   5   8 -31   -6.18    3.47
  -5  -8  31   -5.18    9.36
  -5  -8  31   -2.43    2.76
   0   9 -31    6.73    3.61
   1   9 -31   -1.39    3.44
   1   9 -31   -2.70    7.04
  -1  -9  31   -1.36    2.33
  -1  -9  31    2.14    8.28
   2   9 -31   -7.96    3.71
   2   9 -31   -0.98    7.26
  -2  -9  31  -21.86    8.98
  -2  -9  31    0.16    2.50
   3   9 -31   -9.45    7.29
   3   9 -31   -1.84    3.61
  -3  -9  31   12.80    8.74
  -3  -9  31   -5.44    2.66
   4   9 -31    9.72    3.81
   4   9 -31    0.76    7.00
  -4  -9  31    3.62    2.92
  -4  -9  31    0.62    9.04
   1  10 -31    5.58    4.07
   1  10 -31   -2.19    7.16
  -1 -10  31    4.60    2.42
  -1 -10  31   -1.54    8.71
   2  10 -31    5.08    3.85
   2  10 -31   22.19    7.39
  -2 -10  31   -8.25    2.52
  -2 -10  31    2.56    8.87
   3  10 -31    8.00    7.46
   3  10 -31    0.24    3.10
  -3 -10  31   -6.44    9.29
   1  11 -31    8.17    7.18
   1  11 -31   -6.38    4.35
  -1 -11  31   -1.16    8.83
  -1 -11  31   -3.68    2.57
   2  11 -31    0.75    7.06
  -2 -11  31    0.99    9.22
   0   4 -32   -1.64    2.57
   1   4 -32    8.47    3.57
   2   4 -32   33.56   11.69
  -2  -4  32   63.48   15.80
   3   4 -32   -9.92    3.39
   4   4 -32    1.05    2.97
  -4  -4  32   24.16    8.85
   5   4 -32    1.68    3.06
  -5  -4  32   22.88    8.89
   0   5 -32   -6.11    2.91
   1   5 -32   -0.29    2.61
   2   5 -32    0.28    7.28
   2   5 -32   -1.04    2.68
  -2  -5  32  -14.76    8.84
   3   5 -32    0.28    7.51
   3   5 -32    1.22    2.83
  -3  -5  32   14.43    8.97
   4   5 -32   13.28    7.64
   4   5 -32   -1.55    2.77
  -4  -5  32   -0.91    8.99
   5   5 -32  -12.32    7.62
   5   5 -32   -2.85    2.80
  -5  -5  32   10.26    8.94
   6   5 -32    0.16    2.82
   6   5 -32  -19.01    7.81
  -6  -5  32    2.41    9.13
   6   4 -32    0.16    2.79
  -6  -4  32   -3.89    9.00
   0   6 -32   -1.36    6.84
   0   6 -32   -2.54    2.67
   0  -6  32    1.77    2.31
   0  -6  32   -2.90    8.03
   1   6 -32    0.27    7.14
   1   6 -32    0.15    2.74
  -1  -6  32    0.78    2.55
  -1  -6  32   -9.33    8.54
   2   6 -32    1.10    2.88
   2   6 -32   -4.95    7.63
  -2  -6  32    7.16    8.78
  -2  -6  32   -0.32    2.55
   3   6 -32    8.74    3.09
   3   6 -32    5.53    7.60
  -3  -6  32   -5.09    8.84
  -3  -6  32    0.17    2.70
   4   6 -32   -7.10    3.03
   4   6 -32    0.28    7.48
  -4  -6  32    0.17    2.69
  -4  -6  32  -10.44    9.31
   5   6 -32    2.27    7.73
   5   6 -32   -0.17    3.13
  -5  -6  32   -0.17    2.68
  -5  -6  32    4.89    9.17
   6   6 -32   -2.90    7.85
  -6  -6  32    8.66    9.65
   7   4 -32    0.16    2.30
  -7  -4  32    3.53    9.30
   0   7 -32   -0.78    2.77
   1   7 -32    4.12    3.03
   1   7 -32    3.78    7.55
  -1  -7  32    0.31    2.47
  -1  -7  32   -2.54    9.01
   2   7 -32   -0.17    3.11
   2   7 -32   12.19    7.68
  -2  -7  32    0.16    2.62
  -2  -7  32   21.90    9.58
   3   7 -32    0.35    3.08
   3   7 -32    8.17    7.65
  -3  -7  32    0.17    2.68
  -3  -7  32    1.55    9.09
   4   7 -32    4.89    3.12
   4   7 -32    1.65    7.61
  -4  -7  32   -4.31    9.40
  -4  -7  32    0.17    2.59
   5   7 -32    1.12    8.02
  -5  -7  32   12.35   10.11
   1   8 -32   -9.39    3.35
   1   8 -32    0.27    7.52
  -1  -8  32    2.96    2.48
  -1  -8  32    4.05    9.29
   2   8 -32   -3.47    7.68
   2   8 -32   -1.16    3.41
  -2  -8  32   18.71    9.72
  -2  -8  32    0.66    2.40
   3   8 -32  -14.29    7.47
   3   8 -32    1.60    3.45
  -3  -8  32    3.11    9.32
  -3  -8  32    0.17    2.61
   4   8 -32    0.21    2.88
   4   8 -32    1.09    7.52
  -4  -8  32    1.82    9.57
   1   9 -32    0.84    3.56
   1   9 -32  -11.06    7.39
  -1  -9  32   -0.32    2.32
  -1  -9  32    2.95    9.24
   2   9 -32    7.30    3.89
   2   9 -32    0.27    7.43
  -2  -9  32    1.51    9.51
  -2  -9  32   -0.34    2.69
   3   9 -32  -12.34    7.48
  -3  -9  32    5.30    9.65
   1  10 -32   13.09    7.71
   1  10 -32  -12.24    4.35
  -1 -10  32   -6.11    9.18
  -1 -10  32   -3.00    2.40
   2  10 -32    0.79    7.61
  -2 -10  32   -4.96    9.54
   0   4 -33    3.88    2.78
   1   4 -33    1.78    2.74
   2   4 -33    2.75    2.86
   3   4 -33    5.14    3.06
   4   4 -33    0.32    2.85
   5   4 -33   -3.89    2.91
   0   5 -33    8.37    3.47
   1   5 -33    0.16    2.73
  -1  -5  33    1.35    8.38
   2   5 -33   15.25    8.28
   2   5 -33    7.08    3.29
  -2  -5  33   -8.05    8.69
   3   5 -33    9.82    3.34
   3   5 -33   11.12    8.28
  -3  -5  33  -10.57    9.10
   4   5 -33    0.30    7.81
   4   5 -33    8.04    3.42
  -4  -5  33   16.08    9.32
   5   5 -33    1.54    2.75
   5   5 -33   -9.51    7.86
  -5  -5  33   -2.96    9.42
   0   6 -33   -5.50    3.02
   1   6 -33   -7.29    7.64
   1   6 -33    0.64    2.86
  -1  -6  33   -3.12    2.59
  -1  -6  33  -20.63    9.01
   2   6 -33    5.50    3.44
   2   6 -33   24.26    8.06
  -2  -6  33    1.88    3.15
  -2  -6  33    8.04    9.18
   3   6 -33   -1.03    3.38
   3   6 -33  -21.45    8.24
  -3  -6  33   -6.53    2.82
   4   6 -33    3.56    8.27
   4   6 -33    7.86    3.78
  -4  -6  33    7.60    3.38
  -4  -6  33    9.38    9.57
   1   7 -33  -20.24    8.33
   1   7 -33    3.48    3.13
  -1  -7  33    3.60    9.10
  -1  -7  33   -1.31    2.55
   2   7 -33    4.64    8.19
   2   7 -33   -0.18    3.65
  -2  -7  33   27.65    9.98
  -2  -7  33    6.54    3.03
   3   7 -33    6.13    8.00
   3   7 -33    3.18    3.45
  -3  -7  33   18.15   10.04
  -3  -7  33    0.18    2.87
   4   7 -33   -9.15    8.39
  -4  -7  33   -6.28    9.88
   1   8 -33   -9.71    7.78
   1   8 -33    1.94    3.38
  -1  -8  33    4.60    2.56
  -1  -8  33    7.70    9.74
   2   8 -33   -6.04    8.06
   2   8 -33   -1.22    3.53
  -2  -8  33   -1.62   10.06
  -2  -8  33    0.17    2.71
   3   8 -33    7.54    8.05
  -3  -8  33   -2.14   10.30
   1   9 -33    0.28    7.80
   1   9 -33    5.75    3.89
  -1  -9  33    0.17    2.49
  -1  -9  33   -6.39   10.09
   2   9 -33  -21.15    9.00
  -2  -9  33   -8.29   10.60
   0   4 -34    4.37    3.01
   1   4 -34    7.20    3.42
   2   4 -34   -2.57    2.85
   1   5 -34   -1.97    2.98
  -1  -5  34    7.13    9.19
  -1  -5  34    3.49    2.85
   2   5 -34   -4.23    3.16
  -2  -5  34    7.55    9.05
   3   5 -34    2.25    3.22
  -3  -5  34    3.24    9.15
  -4  -5  34    4.08    9.61
   1   6 -34   -0.17    3.23
   1   6 -34    8.44    8.24
  -1  -6  34   -0.87    2.68
  -1  -6  34   15.59    9.44
   2   6 -34    6.50    3.25
   2   6 -34  -10.03    8.42
  -2  -6  34   -9.69    9.98
  -2  -6  34   -3.07    3.03
   3   6 -34   -6.92    8.42
  -3  -6  34  -13.66   10.23
   1   7 -34   -8.02    7.99
   1   7 -34    9.16    3.30
  -1  -7  34   -1.04    2.67
  -1  -7  34   -8.34    9.49
   2   7 -34    2.30    2.89
   2   7 -34   -9.93    8.49
  -2  -7  34    0.18    2.82
  -2  -7  34  -21.50   10.08
   1   8 -34    0.20    2.96
   1   8 -34   -0.31    8.31
  -1  -8  34    6.25   10.39
   1   5 -35    6.55    3.11
  -1  -5  35   -0.92    3.12
   2   5 -35    0.89    2.62
  -2  -5  35    0.95    2.89
   1   6 -35   -5.85    3.35
  -1  -6  35  -14.49    9.44
  -1  -6  35    5.10    2.78
   0   0   0    0.00    0.00
;
_shelx_hkl_checksum              45705
_shelx_fab_checksum              39043
_shelx_fab_file
;
    0    2    0   -225.59      0.00
    1    2    0    349.47      0.00
    1    3    0      7.27      0.00
    2    3    0    185.08      0.00
    0    4    0      9.78      0.00
    1    4    0     57.83      0.00
    2    4    0     29.84      0.00
    1    5    0    -71.05      0.00
    2    5    0     25.50      0.00
    3    5    0      2.15      0.00
    0    6    0     49.64      0.00
    1    6    0    -65.46      0.00
    2    6    0     62.77      0.00
    3    6    0      0.27      0.00
    4    6    0     -3.33      0.00
    1    7    0      0.19      0.00
    2    7    0    -26.52      0.00
    3    7    0     48.50      0.00
    4    7    0     36.88      0.00
    0    8    0      3.64      0.00
    1    8    0     -8.41      0.00
    2    8    0    -15.49      0.00
    3    8    0    -18.08      0.00
    4    8    0      7.92      0.00
    5    8    0    -33.78      0.00
    1    9    0     30.08      0.00
    2    9    0     19.71      0.00
    3    9    0    -19.11      0.00
    4    9    0      4.48      0.00
    5    9    0      2.29      0.00
    0   10    0      4.83      0.00
    1   10    0     -3.38      0.00
    2   10    0     -8.89      0.00
    3   10    0     -1.44      0.00
    4   10    0     -1.79      0.00
    5   10    0     -2.24      0.00
    1   11    0     16.26      0.00
    2   11    0    -12.00      0.00
    3   11    0     -2.14      0.00
    4   11    0    -29.64      0.00
    5   11    0     22.85      0.00
    6   11    0     10.66      0.00
    0   12    0     -6.10      0.00
    1   12    0     61.69      0.00
    2   12    0      2.78      0.00
    3   12    0     19.56      0.00
    4   12    0     17.45      0.00
    5   12    0     -4.02      0.00
    6   12    0    -34.34      0.00
    1   13    0      9.35      0.00
    2   13    0    -24.40      0.00
    3   13    0     -8.23      0.00
    5   13    0     10.21      0.00
    1   14    0    -29.59      0.00
    2   14    0      7.70      0.00
    3   14    0    -14.22      0.00
    4   14    0    -25.49      0.00
    5   14    0     -1.80      0.00
    6   14    0    -17.98      0.00
    1   15    0     -4.56      0.00
    2   15    0    -11.09      0.00
    3   15    0     -2.13      0.00
    4   15    0     -2.84      0.00
    5   15    0      0.18      0.00
    6   15    0    -16.91      0.00
    7   15    0     -5.01      0.00
    0   16    0      7.63      0.00
    1   16    0     -9.68      0.00
    2   16    0    -29.24      0.00
    3   16    0     10.42      0.00
    4   16    0    -11.11      0.00
    5   16    0     16.11      0.00
    6   16    0     55.03      0.00
    7   16    0    -14.27      0.00
    1   17    0     87.78      0.00
    2   17    0      0.93      0.00
    3   17    0    -32.97      0.00
    4   17    0     11.46      0.00
    5   17    0      6.97      0.00
    6   17    0    -39.34      0.00
    7   17    0    -11.52      0.00
    0   18    0   -176.20      0.00
    1   18    0   -107.73      0.00
    2   18    0   -173.83      0.00
    3   18    0     -1.67      0.00
    4   18    0     23.28      0.00
    5   18    0     -9.81      0.00
    6   18    0    -22.65      0.00
    7   18    0      8.74      0.00
    1   19    0    163.14      0.00
    2   19    0    279.08      0.00
    3   19    0    -31.69      0.00
    4   19    0    -30.63      0.00
    5   19    0      9.24      0.00
    6   19    0     38.41      0.00
    7   19    0    -27.35      0.00
    0   20    0    -45.60      0.00
    1   20    0    -59.86      0.00
    2   20    0    -81.69      0.00
    3   20    0    -14.95      0.00
    4   20    0    -30.28      0.00
    5   20    0    -32.06      0.00
    6   20    0     -6.49      0.00
    1    2    1     92.29      0.00
    0    3    1    -45.89      0.00
    1    3    1    158.63      0.00
    2    3    1     20.18      0.00
    1    4    1     12.81      0.00
    2    4    1     17.77      0.00
    3    4    1     31.31      0.00
    0    5    1     14.98      0.00
    1    5    1    -18.58      0.00
    2    5    1     37.05      0.00
    3    5    1     -7.45      0.00
    1    6    1     14.44      0.00
    2    6    1    -30.92      0.00
    3    6    1      8.35      0.00
    4    6    1     21.63      0.00
    0    7    1    -32.59      0.00
    1    7    1    -25.12      0.00
    2    7    1     -3.48      0.00
    3    7    1     23.01      0.00
    4    7    1     11.42      0.00
    1    8    1      5.29      0.00
    2    8    1      1.72      0.00
    3    8    1     18.41      0.00
    4    8    1     15.74      0.00
    5    8    1     -7.04      0.00
    0    9    1    -32.10      0.00
    1    9    1      8.46      0.00
    2    9    1     -7.96      0.00
    3    9    1      8.29      0.00
    4    9    1      5.21      0.00
    5    9    1    -10.74      0.00
    1   10    1     19.45      0.00
    2   10    1     -4.43      0.00
    3   10    1      1.78      0.00
    4   10    1      6.87      0.00
    5   10    1     -9.17      0.00
    6   10    1     10.08      0.00
    0   11    1     11.51      0.00
    1   11    1     -7.69      0.00
    2   11    1     -4.33      0.00
    3   11    1     -6.41      0.00
    4   11    1      6.99      0.00
    5   11    1     27.91      0.00
    6   11    1     -4.92      0.00
    1   12    1    -68.46      0.00
    2   12    1    -35.85      0.00
    3   12    1      0.38      0.00
    4   12    1    -15.44      0.00
    5   12    1      1.78      0.00
    6   12    1    -13.66      0.00
    0   13    1     24.76      0.00
    1   13    1     12.16      0.00
    2   13    1     46.72      0.00
    3   13    1     26.59      0.00
    4   13    1     -0.11      0.00
    5   13    1     -2.47      0.00
    1   14    1     -5.97      0.00
    2   14    1      1.87      0.00
    3   14    1      5.20      0.00
    4   14    1      1.94      0.00
    5   14    1    -13.70      0.00
    6   14    1     20.76      0.00
    7   14    1     30.55      0.00
    0   15    1     -8.91      0.00
    1   15    1    -26.85      0.00
    2   15    1    -10.32      0.00
    3   15    1     -1.24      0.00
    4   15    1    -15.35      0.00
    5   15    1     -8.02      0.00
    6   15    1    -16.26      0.00
    7   15    1     -9.63      0.00
    1   16    1    -16.64      0.00
    2   16    1    -41.28      0.00
    3   16    1    -13.30      0.00
    4   16    1     11.91      0.00
    5   16    1      6.11      0.00
    6   16    1    -67.58      0.00
    7   16    1     -6.18      0.00
    0   17    1     65.85      0.00
    1   17    1    123.54      0.00
    2   17    1      6.00      0.00
    3   17    1    -10.38      0.00
    4   17    1     21.57      0.00
    5   17    1    -29.38      0.00
    6   17    1     11.26      0.00
    7   17    1     30.94      0.00
    1   18    1   -176.53      0.00
    2   18    1    -70.64      0.00
    3   18    1    -19.85      0.00
    4   18    1     27.05      0.00
    5   18    1     10.99      0.00
    6   18    1     12.81      0.00
    7   18    1    -26.56      0.00
    0   19    1     42.12      0.00
    1   19    1    214.99      0.00
    2   19    1    201.64      0.00
    3   19    1    -53.61      0.00
    4   19    1     -2.79      0.00
    5   19    1      6.43      0.00
    6   19    1    -23.99      0.00
    7   19    1     -4.15      0.00
    1   20    1    -89.82      0.00
    2   20    1    -90.78      0.00
    3   20    1    -31.48      0.00
    4   20    1     31.38      0.00
    5   20    1     14.52      0.00
    6   20    1    -19.25      0.00
    7   20    1     29.00      0.00
    1    1    2   -677.59      0.00
    0    2    2     36.12      0.00
    1    2    2   -117.77      0.00
    2    2    2     67.06      0.00
    1    3    2     10.75      0.00
    2    3    2    -34.05      0.00
    3    3    2    -84.71      0.00
    0    4    2     -7.56      0.00
    1    4    2     48.35      0.00
    2    4    2    -30.82      0.00
    3    4    2    -23.94      0.00
    1    5    2      4.49      0.00
    2    5    2    -31.44      0.00
    3    5    2    -10.93      0.00
    0    6    2    -26.08      0.00
    1    6    2    -17.44      0.00
    2    6    2     23.99      0.00
    3    6    2    -13.35      0.00
    4    6    2      5.27      0.00
    1    7    2    -41.23      0.00
    2    7    2      5.07      0.00
    3    7    2     -1.19      0.00
    4    7    2      1.48      0.00
    0    8    2     -9.06      0.00
    1    8    2     -9.03      0.00
    2    8    2    -31.95      0.00
    3    8    2    -20.74      0.00
    4    8    2      2.30      0.00
    5    8    2    -16.44      0.00
    1    9    2     -4.77      0.00
    2    9    2      7.15      0.00
    3    9    2     -9.74      0.00
    4    9    2      6.15      0.00
    5    9    2      2.57      0.00
    6    9    2    -10.12      0.00
    0   10    2      9.87      0.00
    1   10    2      8.03      0.00
    2   10    2     -6.51      0.00
    3   10    2      0.90      0.00
    4   10    2      7.87      0.00
    5   10    2     -0.31      0.00
    6   10    2     -6.61      0.00
    1   11    2      2.31      0.00
    2   11    2     -4.79      0.00
    3   11    2     -6.27      0.00
    4   11    2    -14.42      0.00
    5   11    2     -1.70      0.00
    6   11    2     12.19      0.00
    0   12    2    -31.75      0.00
    1   12    2     47.81      0.00
    2   12    2     22.05      0.00
    3   12    2      4.05      0.00
    4   12    2     -8.27      0.00
    5   12    2      3.73      0.00
    6   12    2     -1.37      0.00
    7   12    2     30.40      0.00
    1   13    2      4.01      0.00
    2   13    2     21.56      0.00
    3   13    2     -2.00      0.00
    4   13    2     -7.08      0.00
    5   13    2      4.42      0.00
    6   13    2      9.39      0.00
    0   14    2     11.47      0.00
    1   14    2    -12.65      0.00
    2   14    2     20.85      0.00
    3   14    2      2.98      0.00
    4   14    2    -29.48      0.00
    5   14    2     15.34      0.00
    6   14    2    -22.93      0.00
    7   14    2     18.64      0.00
    1   15    2    -17.04      0.00
    2   15    2    -42.78      0.00
    3   15    2      6.73      0.00
    4   15    2     26.14      0.00
    5   15    2      2.26      0.00
    6   15    2      7.81      0.00
    7   15    2    -29.42      0.00
    0   16    2    -12.02      0.00
    1   16    2    -16.79      0.00
    2   16    2     18.75      0.00
    3   16    2      4.65      0.00
    4   16    2     15.14      0.00
    5   16    2      0.09      0.00
    6   16    2     30.34      0.00
    7   16    2     19.53      0.00
    1   17    2    116.54      0.00
    2   17    2    -13.58      0.00
    3   17    2     19.66      0.00
    4   17    2     15.46      0.00
    5   17    2     20.76      0.00
    6   17    2    -17.27      0.00
    7   17    2     51.79      0.00
    0   18    2    -28.93      0.00
    1   18    2   -121.15      0.00
    2   18    2    -45.40      0.00
    3   18    2     -4.71      0.00
    4   18    2     28.07      0.00
    5   18    2    -11.64      0.00
    6   18    2    -11.05      0.00
    7   18    2     -1.42      0.00
    1   19    2    184.69      0.00
    2   19    2     14.77      0.00
    3   19    2    -18.76      0.00
    4   19    2     -3.78      0.00
    5   19    2     -4.27      0.00
    6   19    2     19.34      0.00
    7   19    2     39.24      0.00
    0   20    2   -102.48      0.00
    1   20    2   -109.45      0.00
    2   20    2    -34.53      0.00
    3   20    2    -67.54      0.00
    4   20    2      2.19      0.00
    5   20    2     -5.83      0.00
    6   20    2    -23.83      0.00
    7   20    2    -13.54      0.00
    0    1    3    127.16      0.00
    1    2    3   -108.92      0.00
    0    3    3    138.51      0.00
    1    3    3   -103.60      0.00
    2    3    3    -18.54      0.00
    1    4    3    -35.44      0.00
    2    4    3    -23.88      0.00
    3    4    3    -19.94      0.00
    0    5    3     14.76      0.00
    1    5    3     13.02      0.00
    2    5    3    -93.91      0.00
    3    5    3    -14.98      0.00
    4    5    3      9.82      0.00
    1    6    3     16.72      0.00
    2    6    3      9.93      0.00
    3    6    3      3.84      0.00
    4    6    3     -3.75      0.00
    5    6    3    -12.61      0.00
    0    7    3     34.55      0.00
    1    7    3      7.40      0.00
    2    7    3      3.25      0.00
    3    7    3     -6.66      0.00
    4    7    3     -6.33      0.00
    5    7    3     -8.58      0.00
    1    8    3    -18.48      0.00
    2    8    3      8.13      0.00
    3    8    3    -20.23      0.00
    4    8    3      2.71      0.00
    5    8    3    -10.93      0.00
    6    8    3    -10.68      0.00
    0    9    3     20.64      0.00
    1    9    3     -5.69      0.00
    2    9    3      4.29      0.00
    3    9    3      7.64      0.00
    4    9    3     -2.42      0.00
    5    9    3     12.18      0.00
    6    9    3      8.51      0.00
    1   10    3      7.30      0.00
    2   10    3     15.73      0.00
    3   10    3      7.96      0.00
    4   10    3     -8.21      0.00
    5   10    3     18.32      0.00
    6   10    3      1.91      0.00
    0   11    3      4.91      0.00
    1   11    3      7.13      0.00
    2   11    3      9.31      0.00
    3   11    3     10.86      0.00
    4   11    3    -24.29      0.00
    5   11    3     -1.71      0.00
    6   11    3     -0.02      0.00
    7   11    3    -10.73      0.00
    1   12    3      2.95      0.00
    2   12    3    -27.83      0.00
    3   12    3    -12.29      0.00
    4   12    3      0.83      0.00
    5   12    3    -12.14      0.00
    6   12    3      3.73      0.00
    7   12    3      2.48      0.00
    0   13    3     34.09      0.00
    1   13    3    -21.63      0.00
    2   13    3    -24.20      0.00
    3   13    3     -0.38      0.00
    4   13    3      0.05      0.00
    5   13    3      8.01      0.00
    6   13    3     25.71      0.00
    1   14    3    -29.03      0.00
    2   14    3      3.36      0.00
    3   14    3      2.88      0.00
    4   14    3     14.57      0.00
    5   14    3     -4.21      0.00
    6   14    3     11.73      0.00
    7   14    3    -20.83      0.00
    0   15    3      2.64      0.00
    1   15    3      2.48      0.00
    2   15    3    -16.31      0.00
    3   15    3     14.84      0.00
    4   15    3      4.61      0.00
    5   15    3     -1.74      0.00
    6   15    3     -1.58      0.00
    7   15    3     42.85      0.00
    1   16    3      4.60      0.00
    2   16    3     35.52      0.00
    3   16    3     17.19      0.00
    4   16    3      4.53      0.00
    5   16    3    -18.87      0.00
    6   16    3      4.04      0.00
    7   16    3    -57.17      0.00
    0   17    3     56.27      0.00
    1   17    3      0.02      0.00
    2   17    3     -1.85      0.00
    3   17    3     20.73      0.00
    4   17    3      1.45      0.00
    5   17    3     19.46      0.00
    6   17    3     -3.07      0.00
    7   17    3      3.71      0.00
    1   18    3   -114.55      0.00
    2   18    3      0.37      0.00
    3   18    3    -21.96      0.00
    4   18    3    -19.48      0.00
    5   18    3      2.37      0.00
    6   18    3     45.03      0.00
    7   18    3     -8.85      0.00
    0   19    3    207.25      0.00
    1   19    3    221.01      0.00
    2   19    3    -19.48      0.00
    3   19    3    -30.04      0.00
    4   19    3     -4.96      0.00
    5   19    3     21.35      0.00
    6   19    3     34.39      0.00
    1   20    3    -53.77      0.00
    2   20    3    -14.18      0.00
    3   20    3     -9.26      0.00
    4   20    3     39.48      0.00
    5   20    3     -1.52      0.00
    6   20    3     -6.73      0.00
    0    0    4     11.86      0.00
    1    1    4    -16.57      0.00
    0    2    4     97.24      0.00
    1    2    4    -23.07      0.00
    2    2    4     -9.39      0.00
    1    3    4     62.55      0.00
    2    3    4     18.30      0.00
    3    3    4    -35.92      0.00
    0    4    4    -84.93      0.00
    1    4    4    -41.72      0.00
    2    4    4     16.22      0.00
    3    4    4     22.64      0.00
    4    4    4    -10.19      0.00
    1    5    4    -51.99      0.00
    2    5    4    -37.62      0.00
    3    5    4     33.08      0.00
    4    5    4     -3.45      0.00
    5    5    4     14.98      0.00
    0    6    4     25.60      0.00
    1    6    4     30.27      0.00
    2    6    4     -4.22      0.00
    3    6    4      7.98      0.00
    4    6    4     35.21      0.00
    5    6    4     -6.68      0.00
    1    7    4     17.19      0.00
    2    7    4     18.81      0.00
    3    7    4    -13.20      0.00
    4    7    4     -8.67      0.00
    5    7    4    -15.12      0.00
    6    7    4     -8.57      0.00
    0    8    4     23.55      0.00
    1    8    4     26.60      0.00
    2    8    4     30.39      0.00
    3    8    4     10.04      0.00
    4    8    4      6.94      0.00
    5    8    4      5.91      0.00
    6    8    4    -12.57      0.00
    1    9    4     15.52      0.00
    2    9    4    -14.37      0.00
    3    9    4     -0.26      0.00
    4    9    4      3.65      0.00
    5    9    4     -6.37      0.00
    6    9    4     -6.14      0.00
    0   10    4      7.00      0.00
    1   10    4    -38.64      0.00
    2   10    4     13.36      0.00
    3   10    4      1.31      0.00
    4   10    4      7.82      0.00
    5   10    4      3.68      0.00
    6   10    4    -10.74      0.00
    7   10    4     -4.57      0.00
    1   11    4     -5.74      0.00
    2   11    4      5.73      0.00
    3   11    4      4.02      0.00
    4   11    4      9.91      0.00
    5   11    4      1.36      0.00
    6   11    4      0.43      0.00
    7   11    4      6.81      0.00
    0   12    4    -11.34      0.00
    1   12    4     -5.35      0.00
    2   12    4      8.18      0.00
    3   12    4      0.54      0.00
    4   12    4      3.47      0.00
    5   12    4    -28.50      0.00
    6   12    4      6.68      0.00
    7   12    4     -5.55      0.00
    1   13    4      3.26      0.00
    2   13    4     27.63      0.00
    3   13    4     -7.74      0.00
    4   13    4     -7.75      0.00
    5   13    4     47.46      0.00
    6   13    4     22.06      0.00
    0   14    4     -4.83      0.00
    1   14    4     10.78      0.00
    2   14    4     18.66      0.00
    3   14    4      3.42      0.00
    4   14    4     62.31      0.00
    5   14    4    -12.80      0.00
    6   14    4    -29.28      0.00
    7   14    4     22.05      0.00
    8   14    4      5.93      0.00
    1   15    4     -6.52      0.00
    2   15    4     25.48      0.00
    3   15    4     -3.07      0.00
    4   15    4     14.67      0.00
    5   15    4     -2.57      0.00
    6   15    4     -2.93      0.00
    7   15    4     23.76      0.00
    0   16    4    -23.22      0.00
    1   16    4     17.88      0.00
    2   16    4      6.15      0.00
    3   16    4     13.68      0.00
    4   16    4    -18.93      0.00
    5   16    4      8.06      0.00
    6   16    4     18.69      0.00
    7   16    4     28.27      0.00
    1   17    4     10.73      0.00
    2   17    4    -15.92      0.00
    3   17    4     -4.94      0.00
    4   17    4     20.66      0.00
    5   17    4    -10.70      0.00
    6   17    4    -16.79      0.00
    0   18    4    -83.46      0.00
    1   18    4    -34.38      0.00
    2   18    4    -19.86      0.00
    3   18    4     -1.86      0.00
    4   18    4     11.60      0.00
    5   18    4    -20.17      0.00
    6   18    4    -82.06      0.00
    1   19    4      1.70      0.00
    2   19    4    -25.82      0.00
    3   19    4     14.66      0.00
    4   19    4     30.32      0.00
    5   19    4      3.27      0.00
    6   19    4    -19.52      0.00
    0   20    4    -64.11      0.00
    1   20    4      1.42      0.00
    2   20    4     -6.79      0.00
    3   20    4     23.72      0.00
    4   20    4      8.95      0.00
    5   20    4    -11.44      0.00
    0    1    5    -31.46      0.00
    1    2    5     96.61      0.00
    0    3    5     49.90      0.00
    1    3    5    -74.73      0.00
    2    3    5     61.96      0.00
    1    4    5      7.44      0.00
    2    4    5     64.33      0.00
    3    4    5    -42.56      0.00
    0    5    5      1.16      0.00
    1    5    5      4.95      0.00
    2    5    5     35.29      0.00
    3    5    5     -6.71      0.00
    4    5    5     30.24      0.00
    1    6    5     27.21      0.00
    2    6    5     15.53      0.00
    3    6    5     11.48      0.00
    4    6    5     -3.15      0.00
    5    6    5     32.06      0.00
    0    7    5     34.96      0.00
    1    7    5     10.20      0.00
    2    7    5    -23.41      0.00
    3    7    5      9.77      0.00
    4    7    5     28.48      0.00
    5    7    5      2.46      0.00
    6    7    5      8.03      0.00
    1    8    5    -58.10      0.00
    2    8    5      3.54      0.00
    3    8    5     -3.50      0.00
    4    8    5    -27.88      0.00
    5    8    5     -3.49      0.00
    6    8    5      9.35      0.00
    7    8    5      2.49      0.00
    0    9    5      6.66      0.00
    1    9    5      3.16      0.00
    2    9    5     17.10      0.00
    3    9    5    -12.57      0.00
    4    9    5      0.61      0.00
    5    9    5      3.75      0.00
    6    9    5      0.65      0.00
    7    9    5     20.49      0.00
    1   10    5     -3.31      0.00
    2   10    5     -1.42      0.00
    3   10    5     21.02      0.00
    4   10    5     -4.11      0.00
    5   10    5     -4.51      0.00
    6   10    5     -7.24      0.00
    7   10    5     18.23      0.00
    0   11    5    -25.32      0.00
    1   11    5     -1.10      0.00
    2   11    5     -4.02      0.00
    3   11    5      0.63      0.00
    4   11    5    -47.00      0.00
    5   11    5     -6.33      0.00
    6   11    5      4.81      0.00
    7   11    5      7.63      0.00
    1   12    5     15.36      0.00
    2   12    5    -21.75      0.00
    3   12    5     -4.74      0.00
    4   12    5     14.88      0.00
    5   12    5     -9.62      0.00
    6   12    5      6.98      0.00
    7   12    5    -16.84      0.00
    8   12    5     19.77      0.00
    0   13    5     11.08      0.00
    1   13    5      3.13      0.00
    2   13    5     -5.75      0.00
    3   13    5      3.84      0.00
    4   13    5    -10.19      0.00
    5   13    5    -19.50      0.00
    6   13    5      1.00      0.00
    7   13    5    -61.78      0.00
    1   14    5     -7.42      0.00
    2   14    5     -0.37      0.00
    3   14    5     -6.25      0.00
    4   14    5     10.34      0.00
    5   14    5     -0.64      0.00
    6   14    5     12.07      0.00
    7   14    5    -72.65      0.00
    0   15    5     14.26      0.00
    1   15    5     -2.18      0.00
    2   15    5    -30.38      0.00
    3   15    5    -10.70      0.00
    4   15    5    -10.34      0.00
    5   15    5    -17.39      0.00
    6   15    5     24.93      0.00
    1   16    5     11.89      0.00
    2   16    5      3.25      0.00
    3   16    5     17.88      0.00
    4   16    5    -23.07      0.00
    5   16    5    -36.29      0.00
    6   16    5    -10.11      0.00
    0   17    5     10.05      0.00
    1   17    5    -11.69      0.00
    2   17    5     20.75      0.00
    3   17    5    -16.51      0.00
    4   17    5     -9.44      0.00
    5   17    5     16.35      0.00
    6   17    5     35.53      0.00
    1   18    5    -17.72      0.00
    2   18    5    -40.23      0.00
    3   18    5     10.61      0.00
    4   18    5     -9.35      0.00
    5   18    5     -1.70      0.00
    6   18    5     13.04      0.00
    0   19    5     26.90      0.00
    1   19    5    -13.70      0.00
    2   19    5     11.47      0.00
    3   19    5      7.92      0.00
    4   19    5     17.93      0.00
    5   19    5      1.89      0.00
    6   19    5     12.93      0.00
    1   20    5    -25.37      0.00
    2   20    5     -5.63      0.00
    3   20    5     28.83      0.00
    4   20    5     -1.40      0.00
    0    0    6    -77.06      0.00
    1    1    6     32.17      0.00
    0    2    6    -60.27      0.00
    1    2    6    -36.00      0.00
    2    2    6    -17.03      0.00
    1    3    6     78.64      0.00
    2    3    6    -59.04      0.00
    3    3    6     49.55      0.00
    0    4    6     54.29      0.00
    1    4    6    -64.20      0.00
    2    4    6     -4.35      0.00
    3    4    6      8.16      0.00
    4    4    6     21.53      0.00
    1    5    6    -29.56      0.00
    2    5    6      5.96      0.00
    3    5    6    -11.83      0.00
    4    5    6     -5.75      0.00
    5    5    6     18.46      0.00
    0    6    6     34.40      0.00
    1    6    6     -1.00      0.00
    2    6    6     -1.28      0.00
    3    6    6     25.91      0.00
    4    6    6      0.55      0.00
    5    6    6    -23.07      0.00
    6    6    6     -7.71      0.00
    1    7    6     -1.73      0.00
    2    7    6     -0.03      0.00
    3    7    6      0.77      0.00
    4    7    6     -7.96      0.00
    5    7    6    -19.22      0.00
    6    7    6    -13.03      0.00
    7    7    6     -2.83      0.00
    0    8    6     10.62      0.00
    1    8    6     11.50      0.00
    2    8    6     -3.60      0.00
    3    8    6     -4.65      0.00
    4    8    6     -8.98      0.00
    5    8    6     14.08      0.00
    6    8    6      0.78      0.00
    7    8    6     -4.49      0.00
    1    9    6     -2.65      0.00
    2    9    6     -4.64      0.00
    3    9    6      3.02      0.00
    4    9    6      0.07      0.00
    5    9    6    -15.36      0.00
    6    9    6     17.96      0.00
    7    9    6     25.43      0.00
    0   10    6      0.64      0.00
    1   10    6      1.86      0.00
    2   10    6     -3.00      0.00
    3   10    6      3.91      0.00
    4   10    6      3.60      0.00
    5   10    6     -7.47      0.00
    6   10    6      4.22      0.00
    7   10    6    -12.36      0.00
    8   10    6     16.78      0.00
    1   11    6     -8.70      0.00
    2   11    6     -5.37      0.00
    3   11    6     12.08      0.00
    4   11    6    -13.06      0.00
    5   11    6     -3.53      0.00
    6   11    6      1.24      0.00
    7   11    6      2.92      0.00
    8   11    6     -4.24      0.00
    0   12    6      6.69      0.00
    1   12    6    -25.50      0.00
    2   12    6     -6.57      0.00
    3   12    6      3.19      0.00
    4   12    6     18.12      0.00
    5   12    6      6.87      0.00
    6   12    6     -7.82      0.00
    7   12    6     10.64      0.00
    8   12    6      5.69      0.00
    1   13    6     25.00      0.00
    2   13    6     33.78      0.00
    3   13    6     -5.99      0.00
    4   13    6     17.22      0.00
    5   13    6     15.23      0.00
    6   13    6    -49.05      0.00
    7   13    6     17.84      0.00
    0   14    6    -34.76      0.00
    1   14    6     -6.38      0.00
    2   14    6      3.64      0.00
    3   14    6    -67.87      0.00
    4   14    6      1.16      0.00
    5   14    6    -19.92      0.00
    6   14    6     -5.76      0.00
    7   14    6    -19.95      0.00
    1   15    6    -15.26      0.00
    2   15    6     11.04      0.00
    3   15    6     -2.71      0.00
    4   15    6    -22.57      0.00
    5   15    6      4.47      0.00
    6   15    6     15.67      0.00
    7   15    6     10.70      0.00
    0   16    6     -1.00      0.00
    1   16    6     15.26      0.00
    2   16    6     14.81      0.00
    3   16    6     26.75      0.00
    4   16    6     -2.20      0.00
    5   16    6    -48.06      0.00
    6   16    6     13.49      0.00
    7   16    6     23.75      0.00
    1   17    6     -5.44      0.00
    2   17    6      8.36      0.00
    3   17    6     -4.34      0.00
    4   17    6      0.66      0.00
    5   17    6     40.37      0.00
    6   17    6    -17.74      0.00
    7   17    6     29.13      0.00
    0   18    6      7.34      0.00
    1   18    6      7.68      0.00
    2   18    6     -9.21      0.00
    3   18    6     -3.89      0.00
    4   18    6     16.28      0.00
    5   18    6     17.28      0.00
    6   18    6     28.90      0.00
    7   18    6    -10.31      0.00
    1   19    6     -2.58      0.00
    2   19    6    -21.68      0.00
    3   19    6     -3.25      0.00
    4   19    6     30.56      0.00
    5   19    6     14.81      0.00
    6   19    6    -14.00      0.00
    0   20    6     19.53      0.00
    1   20    6      2.44      0.00
    2   20    6    -33.29      0.00
    3   20    6     10.06      0.00
    2   21    6     50.75      0.00
    0    1    7    -28.57      0.00
    1    2    7    -19.86      0.00
    0    3    7     46.32      0.00
    1    3    7    -55.77      0.00
    2    3    7    -76.11      0.00
    1    4    7     -2.49      0.00
    2    4    7     25.62      0.00
    3    4    7    -15.01      0.00
    0    5    7    -99.67      0.00
    1    5    7     13.41      0.00
    2    5    7     -9.36      0.00
    3    5    7      1.36      0.00
    4    5    7     14.97      0.00
    1    6    7      2.84      0.00
    2    6    7      8.87      0.00
    3    6    7     -4.84      0.00
    4    6    7      4.55      0.00
    5    6    7     -3.01      0.00
    0    7    7     46.24      0.00
    1    7    7      3.98      0.00
    2    7    7      0.51      0.00
    3    7    7     10.45      0.00
    4    7    7    -13.74      0.00
    5    7    7     11.48      0.00
    6    7    7    -11.55      0.00
    1    8    7    -13.36      0.00
    2    8    7    -10.38      0.00
    3    8    7    -13.38      0.00
    4    8    7     -7.68      0.00
    5    8    7      5.27      0.00
    6    8    7     -5.22      0.00
    7    8    7      4.71      0.00
    0    9    7     -1.77      0.00
    1    9    7     -5.18      0.00
    2    9    7     -7.88      0.00
    3    9    7      1.80      0.00
    4    9    7     17.55      0.00
    5    9    7     -8.92      0.00
    6    9    7    -16.56      0.00
    7    9    7      8.40      0.00
    8    9    7     -7.78      0.00
    1   10    7      0.54      0.00
    2   10    7      6.68      0.00
    3   10    7     -0.99      0.00
    4   10    7      2.48      0.00
    5   10    7      6.94      0.00
    6   10    7     -7.88      0.00
    7   10    7     -1.98      0.00
    8   10    7     -5.97      0.00
    0   11    7     -7.93      0.00
    1   11    7      0.05      0.00
    2   11    7     -8.03      0.00
    3   11    7     21.12      0.00
    4   11    7      5.16      0.00
    5   11    7      9.79      0.00
    6   11    7     -7.68      0.00
    7   11    7     -7.03      0.00
    8   11    7     -7.02      0.00
    1   12    7    -18.23      0.00
    2   12    7     -1.64      0.00
    3   12    7      8.17      0.00
    4   12    7      6.72      0.00
    5   12    7     -0.40      0.00
    6   12    7     14.88      0.00
    7   12    7     -3.10      0.00
    8   12    7     16.97      0.00
    0   13    7     13.52      0.00
    1   13    7     -2.39      0.00
    2   13    7     11.19      0.00
    3   13    7    -13.62      0.00
    4   13    7    -19.94      0.00
    5   13    7    -15.27      0.00
    6   13    7     21.23      0.00
    7   13    7     -3.27      0.00
    1   14    7     33.82      0.00
    2   14    7    -59.01      0.00
    3   14    7      6.99      0.00
    4   14    7     -5.94      0.00
    5   14    7    -10.19      0.00
    6   14    7     38.05      0.00
    7   14    7    -16.33      0.00
    0   15    7      0.97      0.00
    1   15    7    -21.71      0.00
    2   15    7    -29.69      0.00
    3   15    7      9.63      0.00
    4   15    7      4.50      0.00
    5   15    7    -13.70      0.00
    6   15    7     -6.68      0.00
    7   15    7    -14.17      0.00
    1   16    7     11.98      0.00
    2   16    7     10.71      0.00
    3   16    7      4.82      0.00
    4   16    7      2.22      0.00
    5   16    7     20.99      0.00
    6   16    7      4.72      0.00
    7   16    7    -23.31      0.00
    0   17    7     16.27      0.00
    1   17    7     -1.10      0.00
    2   17    7      7.58      0.00
    3   17    7     -1.39      0.00
    4   17    7    -18.19      0.00
    5   17    7    -11.09      0.00
    6   17    7    -17.99      0.00
    7   17    7    -35.60      0.00
    1   18    7     25.88      0.00
    2   18    7    -17.64      0.00
    3   18    7     36.40      0.00
    4   18    7    -13.11      0.00
    5   18    7   -143.17      0.00
    6   18    7      5.82      0.00
    7   18    7    -18.52      0.00
    0   19    7      0.52      0.00
    1   19    7    -18.13      0.00
    2   19    7     -5.26      0.00
    3   19    7    -10.63      0.00
    4   19    7      6.97      0.00
    5   19    7      1.71      0.00
    6   19    7     13.46      0.00
    1   20    7      4.93      0.00
    2   20    7     -9.07      0.00
    1   21    7     18.22      0.00
    0    0    8    -97.52      0.00
    1    1    8    -24.52      0.00
    0    2    8     23.98      0.00
    1    2    8     50.99      0.00
    2    2    8      1.34      0.00
    1    3    8    -26.92      0.00
    2    3    8    -29.18      0.00
    3    3    8    -53.21      0.00
    0    4    8    -86.61      0.00
    1    4    8     -0.56      0.00
    2    4    8    -22.04      0.00
    3    4    8     -0.07      0.00
    4    4    8    -17.63      0.00
    1    5    8    -16.18      0.00
    2    5    8      3.96      0.00
    3    5    8      5.85      0.00
    4    5    8     11.45      0.00
    5    5    8     12.33      0.00
    0    6    8      9.46      0.00
    1    6    8     10.08      0.00
    2    6    8     22.02      0.00
    3    6    8     -6.56      0.00
    4    6    8    -12.85      0.00
    5    6    8    -15.64      0.00
    6    6    8    -14.48      0.00
    1    7    8      2.04      0.00
    2    7    8      6.66      0.00
    3    7    8    -13.16      0.00
    4    7    8      3.27      0.00
    5    7    8     -8.59      0.00
    6    7    8     -1.21      0.00
    7    7    8    -16.58      0.00
    0    8    8      4.31      0.00
    1    8    8     -7.89      0.00
    2    8    8    -18.27      0.00
    3    8    8     -1.15      0.00
    4    8    8      5.04      0.00
    5    8    8      3.68      0.00
    6    8    8     -3.23      0.00
    7    8    8     14.22      0.00
    8    8    8     -2.18      0.00
    1    9    8     11.96      0.00
    2    9    8     -5.90      0.00
    3    9    8      9.08      0.00
    4    9    8     -6.35      0.00
    5    9    8     10.06      0.00
    6    9    8      1.13      0.00
    7    9    8     -3.71      0.00
    8    9    8      0.52      0.00
    0   10    8     -8.37      0.00
    1   10    8     26.08      0.00
    2   10    8     -5.26      0.00
    3   10    8      1.64      0.00
    4   10    8     -0.38      0.00
    5   10    8     18.57      0.00
    6   10    8      0.76      0.00
    7   10    8      6.81      0.00
    8   10    8    -17.14      0.00
    1   11    8     -2.55      0.00
    3   11    8     -7.42      0.00
    4   11    8     -4.24      0.00
    5   11    8      5.69      0.00
    6   11    8      9.48      0.00
    7   11    8    -10.77      0.00
    8   11    8      2.55      0.00
    0   12    8     18.31      0.00
    1   12    8      1.79      0.00
    2   12    8    -16.54      0.00
    3   12    8      2.46      0.00
    4   12    8    -20.25      0.00
    5   12    8     21.34      0.00
    6   12    8      5.04      0.00
    7   12    8    -14.97      0.00
    8   12    8     26.80      0.00
    1   13    8     -6.94      0.00
    2   13    8     38.25      0.00
    3   13    8     -6.22      0.00
    4   13    8     -9.03      0.00
    5   13    8      8.53      0.00
    6   13    8      7.73      0.00
    7   13    8      7.21      0.00
    0   14    8    -89.21      0.00
    1   14    8     54.18      0.00
    2   14    8     22.50      0.00
    3   14    8      9.09      0.00
    4   14    8     -0.11      0.00
    5   14    8     20.20      0.00
    6   14    8     32.25      0.00
    7   14    8     34.10      0.00
    1   15    8     13.73      0.00
    2   15    8      4.90      0.00
    3   15    8    -31.85      0.00
    4   15    8     -2.25      0.00
    5   15    8    -13.80      0.00
    6   15    8     21.46      0.00
    7   15    8     41.20      0.00
    0   16    8     -1.88      0.00
    1   16    8     11.39      0.00
    2   16    8    -17.15      0.00
    3   16    8     -1.16      0.00
    4   16    8      9.54      0.00
    5   16    8    -10.75      0.00
    6   16    8    -18.01      0.00
    7   16    8     35.67      0.00
    1   17    8    -19.08      0.00
    2   17    8      6.05      0.00
    3   17    8     -1.71      0.00
    4   17    8     25.60      0.00
    5   17    8    -26.81      0.00
    6   17    8     24.89      0.00
    7   17    8    -19.92      0.00
    0   18    8    -26.52      0.00
    1   18    8    -15.71      0.00
    2   18    8     30.09      0.00
    3   18    8    -16.97      0.00
    4   18    8    -44.38      0.00
    5   18    8    -29.70      0.00
    6   18    8     13.57      0.00
    7   18    8     11.73      0.00
    1   19    8    -18.50      0.00
    2   19    8    -11.55      0.00
    3   19    8      7.15      0.00
    4   19    8     -6.37      0.00
    5   19    8     36.93      0.00
    6   19    8    -14.69      0.00
    0   20    8     11.68      0.00
    1   20    8    -22.81      0.00
    2   20    8      6.56      0.00
    0    1    9    -29.62      0.00
    1    2    9     -6.41      0.00
    0    3    9     16.36      0.00
    1    3    9    -16.41      0.00
    2    3    9      6.03      0.00
    1    4    9     32.71      0.00
    2    4    9     15.55      0.00
    3    4    9      1.52      0.00
    0    5    9    -40.23      0.00
    1    5    9     -3.53      0.00
    2    5    9      4.09      0.00
    3    5    9      4.06      0.00
    4    5    9      2.83      0.00
    1    6    9     -0.62      0.00
    2    6    9     -7.45      0.00
    3    6    9      9.43      0.00
    4    6    9     -0.52      0.00
    5    6    9    -16.17      0.00
    0    7    9     27.03      0.00
    1    7    9    -11.72      0.00
    2    7    9      3.36      0.00
    3    7    9     -5.43      0.00
    4    7    9    -16.51      0.00
    5    7    9      4.71      0.00
    6    7    9     13.69      0.00
    1    8    9     -6.73      0.00
    2    8    9    -17.64      0.00
    3    8    9      2.05      0.00
    4    8    9     -0.11      0.00
    5    8    9      4.89      0.00
    6    8    9      1.78      0.00
    7    8    9     -1.79      0.00
    0    9    9     -3.44      0.00
    1    9    9     13.61      0.00
    2    9    9     -4.62      0.00
    3    9    9      3.44      0.00
    4    9    9      9.61      0.00
    5    9    9     -3.62      0.00
    6    9    9      4.94      0.00
    7    9    9      7.84      0.00
    8    9    9    -12.52      0.00
    1   10    9      2.58      0.00
    2   10    9     -3.77      0.00
    3   10    9    -10.22      0.00
    4   10    9    -22.01      0.00
    5   10    9    -10.76      0.00
    6   10    9      2.93      0.00
    7   10    9      5.64      0.00
    8   10    9     -6.90      0.00
    0   11    9     15.57      0.00
    1   11    9      2.98      0.00
    2   11    9     -7.59      0.00
    3   11    9     -5.83      0.00
    4   11    9     33.98      0.00
    5   11    9     -2.23      0.00
    6   11    9      5.78      0.00
    7   11    9      4.53      0.00
    8   11    9     14.16      0.00
    1   12    9      0.08      0.00
    2   12    9      0.69      0.00
    3   12    9      1.43      0.00
    4   12    9     14.38      0.00
    5   12    9      7.30      0.00
    6   12    9      7.86      0.00
    7   12    9     -7.55      0.00
    8   12    9     -1.13      0.00
    9   12    9      2.17      0.00
    0   13    9      5.51      0.00
    1   13    9     17.08      0.00
    2   13    9     19.63      0.00
    3   13    9     51.59      0.00
    4   13    9    -33.63      0.00
    5   13    9     31.87      0.00
    6   13    9    -12.60      0.00
    7   13    9     -2.28      0.00
    8   13    9      2.95      0.00
    9   13    9      9.19      0.00
    1   14    9      8.82      0.00
    2   14    9     -4.50      0.00
    3   14    9     21.14      0.00
    4   14    9    -15.96      0.00
    5   14    9    -32.27      0.00
    6   14    9     38.34      0.00
    7   14    9     -4.24      0.00
    8   14    9    -49.28      0.00
    0   15    9     -5.81      0.00
    1   15    9     17.64      0.00
    2   15    9     -9.99      0.00
    3   15    9      7.96      0.00
    4   15    9    -14.35      0.00
    5   15    9      7.99      0.00
    6   15    9      5.81      0.00
    7   15    9      3.61      0.00
    8   15    9    -27.45      0.00
    1   16    9    -19.49      0.00
    2   16    9      1.84      0.00
    3   16    9     69.94      0.00
    4   16    9     30.73      0.00
    5   16    9     11.69      0.00
    6   16    9     -7.69      0.00
    7   16    9     -9.85      0.00
    8   16    9    -21.08      0.00
    0   17    9    -56.58      0.00
    1   17    9      9.46      0.00
    2   17    9      0.09      0.00
    3   17    9      6.65      0.00
    4   17    9     -0.97      0.00
    5   17    9    -10.60      0.00
    6   17    9     73.35      0.00
    7   17    9    -82.66      0.00
    1   18    9     17.54      0.00
    2   18    9    -31.77      0.00
    3   18    9      9.29      0.00
    4   18    9     97.07      0.00
    5   18    9      3.61      0.00
    6   18    9      0.21      0.00
    7   18    9      2.63      0.00
    0   19    9    -22.61      0.00
    1   19    9    -17.96      0.00
    2   19    9    -16.12      0.00
    3   19    9      7.34      0.00
    4   19    9     -3.40      0.00
    5   19    9     14.99      0.00
    6   19    9    -16.20      0.00
    1   20    9      2.37      0.00
    2   20    9     46.59      0.00
    0    0   10     12.76      0.00
    1    1   10    -21.67      0.00
    0    2   10     95.26      0.00
    1    2   10     -1.11      0.00
    2    2   10    -37.04      0.00
    1    3   10      4.52      0.00
    2    3   10     -4.61      0.00
    3    3   10     -6.18      0.00
    0    4   10     21.51      0.00
    1    4   10    -14.90      0.00
    2    4   10     43.44      0.00
    3    4   10      8.76      0.00
    4    4   10    -18.11      0.00
    1    5   10      6.71      0.00
    2    5   10      3.26      0.00
    3    5   10     27.22      0.00
    4    5   10     -1.23      0.00
    5    5   10      8.11      0.00
    0    6   10      4.04      0.00
    1    6   10     -5.66      0.00
    2    6   10     -4.71      0.00
    3    6   10    -11.66      0.00
    4    6   10     -4.89      0.00
    5    6   10     -3.08      0.00
    6    6   10      6.82      0.00
    1    7   10      8.95      0.00
    2    7   10    -10.09      0.00
    3    7   10      4.17      0.00
    4    7   10     -4.33      0.00
    5    7   10     10.33      0.00
    6    7   10     -2.15      0.00
    7    7   10      7.80      0.00
    0    8   10     -1.30      0.00
    1    8   10    -19.23      0.00
    2    8   10      1.28      0.00
    3    8   10      8.39      0.00
    4    8   10      9.24      0.00
    5    8   10     -2.82      0.00
    6    8   10     18.14      0.00
    7    8   10      1.50      0.00
    8    8   10     13.74      0.00
    1    9   10      3.73      0.00
    2    9   10     14.23      0.00
    3    9   10      0.70      0.00
    4    9   10      0.79      0.00
    5    9   10     13.35      0.00
    6    9   10    -16.91      0.00
    7    9   10    -11.13      0.00
    8    9   10     -6.22      0.00
    9    9   10     23.89      0.00
    0   10   10      6.70      0.00
    1   10   10      0.01      0.00
    2   10   10     -9.81      0.00
    3   10   10     31.56      0.00
    4   10   10     -2.03      0.00
    5   10   10     -6.36      0.00
    6   10   10     -6.66      0.00
    7   10   10     -5.40      0.00
    8   10   10    -17.56      0.00
    1   11   10      6.58      0.00
    2   11   10    -15.74      0.00
    3   11   10     16.66      0.00
    4   11   10     13.96      0.00
    5   11   10    -10.23      0.00
    6   11   10     -4.48      0.00
    7   11   10     25.85      0.00
    9   11   10    -61.72      0.00
    0   12   10     34.86      0.00
    1   12   10      4.89      0.00
    2   12   10     -7.23      0.00
    3   12   10      4.43      0.00
    4   12   10     11.52      0.00
    5   12   10      5.76      0.00
    6   12   10     -3.93      0.00
    7   12   10    -10.10      0.00
    8   12   10    -13.33      0.00
    9   12   10     16.10      0.00
    1   13   10     -5.75      0.00
    2   13   10    -30.91      0.00
    3   13   10    -14.22      0.00
    4   13   10   -124.60      0.00
    5   13   10     18.81      0.00
    6   13   10      0.02      0.00
    7   13   10    -37.40      0.00
    8   13   10     -9.23      0.00
    9   13   10      6.90      0.00
    0   14   10     10.91      0.00
    1   14   10      5.91      0.00
    2   14   10      9.97      0.00
    3   14   10    -26.78      0.00
    4   14   10     39.73      0.00
    5   14   10     12.60      0.00
    6   14   10     -1.23      0.00
    7   14   10     18.61      0.00
    8   14   10     13.94      0.00
    1   15   10     21.33      0.00
    2   15   10      5.97      0.00
    3   15   10    -12.28      0.00
    4   15   10     12.16      0.00
    5   15   10    -23.76      0.00
    6   15   10     29.21      0.00
    7   15   10     17.65      0.00
    8   15   10      7.40      0.00
    0   16   10     52.76      0.00
    1   16   10     81.55      0.00
    2   16   10    -10.04      0.00
    3   16   10    -10.39      0.00
    4   16   10     12.72      0.00
    5   16   10     11.19      0.00
    6   16   10      1.53      0.00
    7   16   10    -15.75      0.00
    8   16   10     14.05      0.00
    1   17   10     24.33      0.00
    2   17   10     -4.15      0.00
    3   17   10      2.73      0.00
    4   17   10     23.75      0.00
    5   17   10    -19.38      0.00
    6   17   10     20.52      0.00
    7   17   10     10.50      0.00
    8   17   10      1.69      0.00
    0   18   10    -83.68      0.00
    1   18   10    -15.32      0.00
    2   18   10     51.38      0.00
    3   18   10     40.55      0.00
    4   18   10    -11.94      0.00
    5   18   10    -54.98      0.00
    6   18   10    -10.96      0.00
    7   18   10     16.92      0.00
    8   18   10    -11.01      0.00
    1   19   10    -14.90      0.00
    2   19   10     -8.75      0.00
    3   19   10     20.30      0.00
    4   19   10     -9.30      0.00
    5   19   10     12.91      0.00
    2   20   10    -10.87      0.00
    0    1   11     13.39      0.00
    1    2   11     39.91      0.00
    0    3   11    -22.83      0.00
    1    3   11      1.49      0.00
    2    3   11      6.80      0.00
    1    4   11      0.09      0.00
    2    4   11     -6.79      0.00
    3    4   11      3.41      0.00
    0    5   11     10.92      0.00
    1    5   11      7.62      0.00
    2    5   11     13.73      0.00
    3    5   11      1.37      0.00
    4    5   11      7.91      0.00
    1    6   11      6.23      0.00
    2    6   11      2.99      0.00
    3    6   11     -8.67      0.00
    4    6   11     -4.00      0.00
    5    6   11      5.52      0.00
    0    7   11     -3.78      0.00
    1    7   11      6.21      0.00
    2    7   11     -1.27      0.00
    3    7   11     -1.30      0.00
    4    7   11      0.98      0.00
    5    7   11      2.55      0.00
    6    7   11     -1.09      0.00
    1    8   11    -11.77      0.00
    2    8   11      5.49      0.00
    3    8   11     -0.23      0.00
    4    8   11     11.14      0.00
    5    8   11     19.19      0.00
    6    8   11     -6.35      0.00
    7    8   11     -2.11      0.00
    0    9   11     12.22      0.00
    1    9   11      2.15      0.00
    2    9   11     15.89      0.00
    3    9   11     -7.83      0.00
    4    9   11      1.81      0.00
    5    9   11     -1.25      0.00
    6    9   11     -3.68      0.00
    7    9   11     -2.64      0.00
    8    9   11      9.79      0.00
    1   10   11      8.82      0.00
    2   10   11    -18.60      0.00
    3   10   11     -5.78      0.00
    4   10   11    -13.87      0.00
    5   10   11     -2.85      0.00
    6   10   11    -11.37      0.00
    7   10   11    -22.45      0.00
    8   10   11     17.75      0.00
    9   10   11     -6.62      0.00
    0   11   11     -7.25      0.00
    1   11   11     26.05      0.00
    2   11   11      2.84      0.00
    3   11   11     -5.99      0.00
    4   11   11     -0.75      0.00
    5   11   11     -3.84      0.00
    6   11   11    -27.69      0.00
    7   11   11    -34.20      0.00
    8   11   11    -10.04      0.00
    9   11   11    -11.19      0.00
   10   11   11    -28.92      0.00
    1   12   11     13.69      0.00
    2   12   11      0.74      0.00
    3   12   11    -21.10      0.00
    4   12   11     -3.56      0.00
    5   12   11      8.23      0.00
    6   12   11    -20.99      0.00
    7   12   11    -32.95      0.00
    8   12   11     -6.43      0.00
    9   12   11     34.92      0.00
   10   12   11    -29.39      0.00
    0   13   11     17.71      0.00
    1   13   11    -21.59      0.00
    2   13   11      3.35      0.00
    3   13   11    110.61      0.00
    4   13   11    -13.50      0.00
    5   13   11      1.99      0.00
    6   13   11     13.16      0.00
    7   13   11     -0.69      0.00
    8   13   11     -7.53      0.00
    9   13   11     39.76      0.00
   10   13   11     18.04      0.00
    1   14   11      5.68      0.00
    2   14   11    -52.60      0.00
    3   14   11     25.41      0.00
    4   14   11      5.86      0.00
    5   14   11      5.26      0.00
    6   14   11      1.58      0.00
    7   14   11    -13.83      0.00
    8   14   11    -63.58      0.00
    0   15   11      4.06      0.00
    1   15   11      4.24      0.00
    2   15   11     -7.48      0.00
    3   15   11     -4.40      0.00
    4   15   11     -2.80      0.00
    5   15   11    -61.60      0.00
    6   15   11     11.15      0.00
    7   15   11     -8.55      0.00
    8   15   11      4.62      0.00
    1   16   11    -34.80      0.00
    2   16   11    -38.60      0.00
    3   16   11     19.90      0.00
    4   16   11     -9.62      0.00
    5   16   11    -21.37      0.00
    6   16   11      1.41      0.00
    7   16   11     13.00      0.00
    8   16   11    -58.95      0.00
    0   17   11      0.37      0.00
    1   17   11      1.69      0.00
    2   17   11    -10.36      0.00
    3   17   11    -18.30      0.00
    4   17   11    -25.77      0.00
    5   17   11     -3.09      0.00
    7   17   11     -9.69      0.00
    8   17   11     30.44      0.00
    1   18   11     88.20      0.00
    2   18   11    -16.75      0.00
    3   18   11    -16.48      0.00
    4   18   11     -3.96      0.00
    5   18   11     -6.41      0.00
    6   18   11     25.30      0.00
    7   18   11     -3.80      0.00
    8   18   11     -5.31      0.00
    0   19   11     31.11      0.00
    1   19   11    -23.72      0.00
    2   19   11     14.71      0.00
    3   19   11     -0.51      0.00
    4   19   11    -29.73      0.00
    5   19   11     26.91      0.00
    0    0   12     21.63      0.00
    1    1   12     -6.78      0.00
    0    2   12     29.37      0.00
    1    2   12      1.74      0.00
    2    2   12     -0.50      0.00
    1    3   12     -5.29      0.00
    2    3   12     -7.39      0.00
    3    3   12     -6.31      0.00
    0    4   12    -22.54      0.00
    1    4   12      6.91      0.00
    2    4   12     -5.10      0.00
    3    4   12     -5.52      0.00
    4    4   12     17.27      0.00
    1    5   12     -8.97      0.00
    2    5   12     17.72      0.00
    3    5   12      4.60      0.00
    4    5   12     -3.92      0.00
    5    5   12     -1.79      0.00
    0    6   12     -6.09      0.00
    1    6   12      2.25      0.00
    2    6   12     -3.64      0.00
    3    6   12      3.54      0.00
    4    6   12     -1.15      0.00
    5    6   12      4.17      0.00
    6    6   12     -1.80      0.00
    1    7   12     -9.87      0.00
    2    7   12     -2.41      0.00
    3    7   12     -6.87      0.00
    4    7   12     -0.20      0.00
    5    7   12    -13.29      0.00
    6    7   12      4.58      0.00
    7    7   12     14.97      0.00
    0    8   12     11.01      0.00
    1    8   12      0.25      0.00
    2    8   12      1.03      0.00
    3    8   12     11.91      0.00
    4    8   12     -1.90      0.00
    5    8   12      2.48      0.00
    6    8   12    -10.50      0.00
    7    8   12     10.47      0.00
    8    8   12    -10.78      0.00
    1    9   12      1.89      0.00
    2    9   12      0.89      0.00
    3    9   12     -2.09      0.00
    4    9   12     26.39      0.00
    5    9   12     -9.66      0.00
    6    9   12      8.26      0.00
    7    9   12      6.38      0.00
    8    9   12     -8.36      0.00
    9    9   12      7.43      0.00
    0   10   12    -19.77      0.00
    1   10   12     17.46      0.00
    2   10   12    -13.77      0.00
    3   10   12      3.86      0.00
    4   10   12     -7.49      0.00
    5   10   12      5.19      0.00
    6   10   12     -0.94      0.00
    7   10   12    -26.38      0.00
    8   10   12      7.23      0.00
    9   10   12    -11.51      0.00
   10   10   12     -1.18      0.00
    1   11   12     10.18      0.00
    2   11   12      1.25      0.00
    3   11   12     -1.94      0.00
    4   11   12    -28.92      0.00
    5   11   12     -6.58      0.00
    6   11   12     20.22      0.00
    7   11   12     76.13      0.00
    8   11   12     16.26      0.00
    9   11   12    -12.79      0.00
   10   11   12     36.39      0.00
    0   12   12     -4.75      0.00
    1   12   12     -0.97      0.00
    2   12   12      2.78      0.00
    3   12   12     -6.88      0.00
    4   12   12      1.26      0.00
    5   12   12    -27.78      0.00
    7   12   12    -12.34      0.00
    8   12   12     -5.91      0.00
    9   12   12      0.80      0.00
   10   12   12     36.75      0.00
    1   13   12    -73.85      0.00
    2   13   12    -25.65      0.00
    3   13   12    -11.15      0.00
    4   13   12    -50.74      0.00
    5   13   12    -16.95      0.00
    6   13   12      7.55      0.00
    7   13   12    -20.73      0.00
    8   13   12      7.28      0.00
    9   13   12      0.52      0.00
   10   13   12     -0.62      0.00
    0   14   12    -58.33      0.00
    1   14   12     25.64      0.00
    2   14   12      6.96      0.00
    3   14   12    -18.98      0.00
    4   14   12     30.95      0.00
    5   14   12     39.71      0.00
    6   14   12     -5.47      0.00
    7   14   12     -8.33      0.00
    8   14   12    -11.59      0.00
    9   14   12     -7.00      0.00
    1   15   12      2.96      0.00
    2   15   12    -54.57      0.00
    3   15   12      3.76      0.00
    4   15   12    -26.35      0.00
    5   15   12     -5.73      0.00
    6   15   12     11.63      0.00
    7   15   12     -3.65      0.00
    8   15   12    -26.66      0.00
    9   15   12     -3.61      0.00
    0   16   12    -18.09      0.00
    1   16   12      4.69      0.00
    2   16   12    -27.97      0.00
    3   16   12    -30.62      0.00
    4   16   12     11.85      0.00
    5   16   12    -42.36      0.00
    6   16   12     -0.14      0.00
    7   16   12     22.32      0.00
    8   16   12    -37.77      0.00
    1   17   12      0.62      0.00
    2   17   12     23.01      0.00
    3   17   12     -4.91      0.00
    4   17   12    -11.97      0.00
    5   17   12     37.03      0.00
    6   17   12     10.39      0.00
    7   17   12     18.85      0.00
    8   17   12     21.55      0.00
    0   18   12    -16.15      0.00
    1   18   12      9.16      0.00
    2   18   12    -45.67      0.00
    3   18   12      0.02      0.00
    4   18   12    -13.59      0.00
    5   18   12      1.13      0.00
    6   18   12      3.53      0.00
    7   18   12     25.45      0.00
    8   18   12      6.21      0.00
    1   19   12     -9.89      0.00
    2   19   12     18.47      0.00
    3   19   12     10.87      0.00
    4   19   12    -16.58      0.00
    0    1   13    -19.78      0.00
    1    2   13     -7.42      0.00
    0    3   13    -15.03      0.00
    1    3   13      0.24      0.00
    2    3   13    -23.32      0.00
    1    4   13      8.96      0.00
    2    4   13      8.81      0.00
    3    4   13      1.42      0.00
    0    5   13      8.32      0.00
    1    5   13     -5.61      0.00
    2    5   13      4.65      0.00
    3    5   13     10.35      0.00
    4    5   13     -8.20      0.00
    1    6   13     -8.45      0.00
    2    6   13      1.91      0.00
    3    6   13     -9.31      0.00
    4    6   13    -10.15      0.00
    5    6   13     -7.95      0.00
    0    7   13      9.25      0.00
    1    7   13     -4.17      0.00
    2    7   13      0.58      0.00
    3    7   13    -21.06      0.00
    4    7   13     -5.64      0.00
    5    7   13     -6.59      0.00
    6    7   13     -8.37      0.00
    1    8   13     -7.11      0.00
    2    8   13      5.22      0.00
    3    8   13    -10.35      0.00
    4    8   13      4.62      0.00
    5    8   13      9.40      0.00
    6    8   13      7.46      0.00
    7    8   13     -2.65      0.00
    0    9   13      6.06      0.00
    1    9   13      0.92      0.00
    2    9   13    -14.15      0.00
    3    9   13    -16.22      0.00
    4    9   13     -9.87      0.00
    5    9   13     12.77      0.00
    6    9   13    -15.30      0.00
    7    9   13      6.80      0.00
    8    9   13      6.91      0.00
    1   10   13    -11.67      0.00
    2   10   13     -9.28      0.00
    3   10   13     19.40      0.00
    4   10   13    -10.70      0.00
    5   10   13     13.63      0.00
    6   10   13     -2.30      0.00
    7   10   13     -3.22      0.00
    8   10   13     33.03      0.00
    9   10   13      8.23      0.00
    0   11   13    -19.88      0.00
    1   11   13     10.71      0.00
    2   11   13      3.01      0.00
    3   11   13     -5.22      0.00
    4   11   13    -15.18      0.00
    5   11   13     18.58      0.00
    6   11   13    -11.36      0.00
    7   11   13     16.60      0.00
    8   11   13     -1.41      0.00
    9   11   13    -46.51      0.00
   10   11   13    -20.91      0.00
    1   12   13      5.10      0.00
    2   12   13     -8.03      0.00
    3   12   13      2.96      0.00
    4   12   13     22.30      0.00
    6   12   13     37.44      0.00
    7   12   13    -10.93      0.00
    8   12   13      5.75      0.00
    9   12   13     15.41      0.00
   10   12   13    -20.70      0.00
    0   13   13      6.86      0.00
    1   13   13     26.73      0.00
    2   13   13     15.66      0.00
    3   13   13     21.10      0.00
    4   13   13     -0.58      0.00
    5   13   13     -9.52      0.00
    6   13   13      6.54      0.00
    7   13   13     -1.28      0.00
    8   13   13     37.44      0.00
    9   13   13     22.03      0.00
   10   13   13    -35.09      0.00
    1   14   13      3.65      0.00
    2   14   13     -3.82      0.00
    3   14   13    -30.18      0.00
    4   14   13      1.57      0.00
    5   14   13     29.95      0.00
    6   14   13    -11.69      0.00
    7   14   13     22.98      0.00
    8   14   13    -18.57      0.00
    9   14   13     -8.22      0.00
   10   14   13    -11.88      0.00
    0   15   13      8.96      0.00
    1   15   13      6.03      0.00
    2   15   13     16.70      0.00
    3   15   13    129.38      0.00
    4   15   13    -37.02      0.00
    5   15   13     -6.65      0.00
    6   15   13     -2.49      0.00
    7   15   13    -27.51      0.00
    8   15   13     14.90      0.00
    9   15   13    196.18      0.00
    1   16   13    -10.26      0.00
    2   16   13    -24.65      0.00
    3   16   13    -37.11      0.00
    4   16   13     24.68      0.00
    5   16   13    -33.01      0.00
    6   16   13     -4.61      0.00
    8   16   13    -15.88      0.00
    9   16   13     27.94      0.00
    0   17   13      5.88      0.00
    1   17   13     17.87      0.00
    2   17   13    -24.67      0.00
    3   17   13    -19.38      0.00
    4   17   13     35.67      0.00
    5   17   13     10.52      0.00
    6   17   13    -17.00      0.00
    7   17   13    -14.55      0.00
    8   17   13    -28.52      0.00
    1   18   13     -2.63      0.00
    2   18   13      7.68      0.00
    3   18   13    -20.41      0.00
    4   18   13    -13.99      0.00
    5   18   13     39.82      0.00
    6   18   13     -2.99      0.00
    7   18   13     -8.79      0.00
    8   18   13    -16.92      0.00
    0   19   13    -27.84      0.00
    1   19   13    -14.18      0.00
    2   19   13    -16.33      0.00
    3   19   13     -4.16      0.00
    0    0   14    -31.68      0.00
    1    1   14     -5.81      0.00
    0    2   14    -12.15      0.00
    1    2   14      5.04      0.00
    2    2   14     11.15      0.00
    1    3   14    -28.10      0.00
    2    3   14     -1.61      0.00
    3    3   14      6.46      0.00
    0    4   14     -3.20      0.00
    1    4   14     -5.66      0.00
    2    4   14     -0.08      0.00
    3    4   14      1.71      0.00
    4    4   14     -4.22      0.00
    1    5   14      0.54      0.00
    2    5   14    -11.20      0.00
    3    5   14    -22.58      0.00
    4    5   14      2.94      0.00
    5    5   14      9.46      0.00
    0    6   14     -5.56      0.00
    1    6   14      9.94      0.00
    2    6   14     -3.18      0.00
    3    6   14      1.77      0.00
    4    6   14     -7.04      0.00
    5    6   14      7.41      0.00
    6    6   14      4.19      0.00
    1    7   14      0.75      0.00
    2    7   14      0.59      0.00
    3    7   14     -3.48      0.00
    4    7   14     -6.02      0.00
    5    7   14    -11.80      0.00
    6    7   14     19.33      0.00
    7    7   14     -2.35      0.00
    0    8   14      0.26      0.00
    1    8   14      4.20      0.00
    2    8   14      5.38      0.00
    3    8   14     -0.77      0.00
    4    8   14     13.59      0.00
    5    8   14    -10.34      0.00
    6    8   14     -8.62      0.00
    7    8   14      5.37      0.00
    1    9   14      3.62      0.00
    2    9   14      1.03      0.00
    3    9   14      7.30      0.00
    4    9   14      8.73      0.00
    5    9   14     -7.09      0.00
    6    9   14     12.93      0.00
    7    9   14     13.53      0.00
    8    9   14      5.07      0.00
    9    9   14      6.87      0.00
    0   10   14    -10.00      0.00
    1   10   14     -1.04      0.00
    2   10   14      0.46      0.00
    3   10   14     -0.41      0.00
    4   10   14      8.42      0.00
    5   10   14     -3.22      0.00
    6   10   14      0.30      0.00
    7   10   14    -15.13      0.00
    8   10   14     -9.00      0.00
    9   10   14    -22.25      0.00
   10   10   14     -5.08      0.00
    1   11   14     -2.27      0.00
    2   11   14     -6.04      0.00
    3   11   14      4.66      0.00
    4   11   14     24.56      0.00
    5   11   14    -23.23      0.00
    6   11   14      6.33      0.00
    7   11   14      7.14      0.00
    8   11   14     -6.47      0.00
    9   11   14      9.99      0.00
   10   11   14     -0.04      0.00
    0   12   14     -5.74      0.00
    1   12   14     -8.24      0.00
    2   12   14     13.28      0.00
    3   12   14     51.46      0.00
    5   12   14    -10.07      0.00
    6   12   14     -9.74      0.00
    7   12   14    -12.62      0.00
    8   12   14      0.93      0.00
    9   12   14     25.93      0.00
   10   12   14      7.60      0.00
   11   12   14    -30.59      0.00
    1   13   14      3.56      0.00
    2   13   14    -12.37      0.00
    3   13   14     -0.11      0.00
    4   13   14      2.92      0.00
    5   13   14    -14.68      0.00
    6   13   14      4.80      0.00
    7   13   14    -17.91      0.00
    8   13   14     19.37      0.00
    9   13   14      7.78      0.00
   10   13   14     -6.05      0.00
   11   13   14    -28.40      0.00
    0   14   14     45.63      0.00
    1   14   14     16.75      0.00
    2   14   14      4.47      0.00
    3   14   14     23.53      0.00
    4   14   14      0.23      0.00
    5   14   14     21.53      0.00
    6   14   14     -6.51      0.00
    7   14   14     -9.35      0.00
    8   14   14    -11.41      0.00
    9   14   14      2.28      0.00
   10   14   14    -13.32      0.00
   11   14   14     10.83      0.00
    1   15   14     82.06      0.00
    2   15   14      3.02      0.00
    3   15   14     -5.20      0.00
    4   15   14     -8.48      0.00
    5   15   14     -2.47      0.00
    6   15   14     31.60      0.00
    7   15   14     33.71      0.00
    8   15   14    -43.67      0.00
    0   16   14    -10.40      0.00
    1   16   14    -61.02      0.00
    2   16   14    -10.61      0.00
    3   16   14     19.84      0.00
    4   16   14     17.51      0.00
    5   16   14    -19.17      0.00
    6   16   14     -7.23      0.00
    7   16   14     25.97      0.00
    8   16   14     -5.44      0.00
    1   17   14    -56.40      0.00
    2   17   14    -28.62      0.00
    3   17   14    164.13      0.00
    4   17   14     -1.71      0.00
    5   17   14    -13.11      0.00
    6   17   14     36.23      0.00
    7   17   14      9.21      0.00
    8   17   14      2.24      0.00
    0   18   14     13.23      0.00
    1   18   14     -3.35      0.00
    2   18   14    -14.26      0.00
    3   18   14     -1.29      0.00
    4   18   14      0.22      0.00
    5   18   14    -12.01      0.00
    6   18   14      7.34      0.00
    7   18   14     -5.46      0.00
    8   18   14    -34.06      0.00
    0    1   15      7.96      0.00
    1    2   15     -8.05      0.00
    0    3   15     -8.49      0.00
    1    3   15     -1.67      0.00
    2    3   15    -19.91      0.00
    1    4   15    -10.42      0.00
    2    4   15     -9.50      0.00
    3    4   15      8.77      0.00
    0    5   15     12.46      0.00
    1    5   15      5.49      0.00
    2    5   15     -2.34      0.00
    3    5   15     11.76      0.00
    4    5   15     12.26      0.00
    1    6   15      8.97      0.00
    2    6   15     10.04      0.00
    3    6   15     -2.88      0.00
    4    6   15     -2.40      0.00
    5    6   15      6.43      0.00
    0    7   15     -7.88      0.00
    1    7   15     -1.99      0.00
    2    7   15     -1.43      0.00
    3    7   15     -9.30      0.00
    4    7   15      0.77      0.00
    5    7   15     -7.12      0.00
    6    7   15      7.35      0.00
    1    8   15      1.56      0.00
    2    8   15      0.30      0.00
    3    8   15      2.21      0.00
    4    8   15     -1.41      0.00
    5    8   15      8.20      0.00
    6    8   15     10.54      0.00
    0    9   15     -3.68      0.00
    1    9   15      6.45      0.00
    2    9   15      6.89      0.00
    3    9   15     -5.00      0.00
    4    9   15      7.02      0.00
    5    9   15     -1.55      0.00
    6    9   15     -0.45      0.00
    7    9   15    -15.42      0.00
    8    9   15    -11.24      0.00
    1   10   15     -2.03      0.00
    2   10   15     -6.24      0.00
    3   10   15     19.07      0.00
    4   10   15     11.03      0.00
    5   10   15      8.89      0.00
    6   10   15    -11.68      0.00
    7   10   15     -9.85      0.00
    8   10   15     16.56      0.00
    9   10   15      1.36      0.00
    0   11   15      6.69      0.00
    1   11   15      5.16      0.00
    2   11   15     15.13      0.00
    3   11   15     -5.75      0.00
    4   11   15    -26.32      0.00
    5   11   15    -23.16      0.00
    6   11   15     11.19      0.00
    7   11   15      9.91      0.00
    8   11   15     -5.27      0.00
    9   11   15      9.12      0.00
   10   11   15    -11.72      0.00
    1   12   15     12.96      0.00
    2   12   15    -21.38      0.00
    4   12   15     -0.15      0.00
    5   12   15      1.14      0.00
    6   12   15     22.28      0.00
    7   12   15     12.16      0.00
    8   12   15    -10.60      0.00
    9   12   15    -19.53      0.00
   10   12   15     11.34      0.00
   11   12   15    -23.19      0.00
    0   13   15     17.91      0.00
    1   13   15      1.16      0.00
    2   13   15     -4.07      0.00
    3   13   15     13.98      0.00
    4   13   15      4.06      0.00
    5   13   15     -9.80      0.00
    6   13   15    -17.46      0.00
    7   13   15      6.84      0.00
    8   13   15     -5.90      0.00
    9   13   15    -40.90      0.00
   10   13   15      2.92      0.00
   11   13   15     58.02      0.00
    1   14   15    -30.92      0.00
    2   14   15    -14.74      0.00
    3   14   15      9.06      0.00
    4   14   15     -7.08      0.00
    5   14   15     -7.58      0.00
    6   14   15     26.07      0.00
    7   14   15    -10.32      0.00
    8   14   15     -0.79      0.00
    9   14   15      1.33      0.00
   10   14   15    -19.54      0.00
   11   14   15     -6.73      0.00
    0   15   15     17.09      0.00
    1   15   15    -18.64      0.00
    2   15   15    -16.84      0.00
    3   15   15     16.75      0.00
    4   15   15     -1.30      0.00
    5   15   15     12.32      0.00
    6   15   15      3.86      0.00
    7   15   15     -7.32      0.00
    1   16   15      0.10      0.00
    2   16   15     -1.51      0.00
    3   16   15    -12.21      0.00
    4   16   15     21.12      0.00
    5   16   15     -0.55      0.00
    6   16   15     36.95      0.00
    7   16   15    -12.75      0.00
    0   17   15    189.00      0.00
    1   17   15    117.25      0.00
    2   17   15    -40.82      0.00
    3   17   15    -18.53      0.00
    4   17   15     -9.75      0.00
    5   17   15     66.62      0.00
    6   17   15     19.78      0.00
    7   17   15      2.31      0.00
    1   18   15    -14.73      0.00
    2   18   15     14.43      0.00
    3   18   15    -20.20      0.00
    4   18   15     -6.53      0.00
    5   18   15      8.87      0.00
    6   18   15     -7.76      0.00
    7   18   15     17.54      0.00
    1    1   16     11.49      0.00
    0    2   16     17.82      0.00
    1    2   16      4.98      0.00
    2    2   16     59.62      0.00
    1    3   16     12.79      0.00
    2    3   16     -0.67      0.00
    3    3   16      4.89      0.00
    0    4   16     18.42      0.00
    1    4   16    -10.04      0.00
    2    4   16      2.25      0.00
    3    4   16     -1.73      0.00
    4    4   16     13.97      0.00
    1    5   16      1.14      0.00
    2    5   16     18.25      0.00
    3    5   16     12.23      0.00
    4    5   16     -7.16      0.00
    5    5   16     21.43      0.00
    0    6   16     20.72      0.00
    1    6   16      6.45      0.00
    2    6   16     -8.87      0.00
    3    6   16      9.38      0.00
    4    6   16      1.19      0.00
    5    6   16    -26.24      0.00
    6    6   16      8.66      0.00
    1    7   16      9.05      0.00
    2    7   16     -4.39      0.00
    3    7   16     23.83      0.00
    4    7   16      2.00      0.00
    5    7   16    -16.90      0.00
    6    7   16      9.38      0.00
    0    8   16      0.32      0.00
    1    8   16     12.12      0.00
    2    8   16      1.92      0.00
    3    8   16    -13.12      0.00
    4    8   16      9.73      0.00
    5    8   16      4.87      0.00
    7    8   16      3.70      0.00
    8    8   16    -13.88      0.00
    1    9   16     -0.31      0.00
    2    9   16     -3.34      0.00
    3    9   16     11.98      0.00
    4    9   16      5.48      0.00
    5    9   16    -24.26      0.00
    6    9   16     -5.47      0.00
    7    9   16      1.03      0.00
    8    9   16      4.01      0.00
    9    9   16     -9.53      0.00
    0   10   16     -4.34      0.00
    1   10   16     -4.12      0.00
    2   10   16     -0.42      0.00
    3   10   16    -25.77      0.00
    4   10   16      0.11      0.00
    5   10   16    -17.34      0.00
    6   10   16     22.05      0.00
    7   10   16     -6.76      0.00
    8   10   16     -3.51      0.00
    9   10   16     14.00      0.00
   10   10   16     -6.83      0.00
    1   11   16     -6.97      0.00
    2   11   16    -34.63      0.00
    3   11   16    -19.66      0.00
    4   11   16    -22.75      0.00
    5   11   16      0.05      0.00
    6   11   16      2.26      0.00
    7   11   16     11.91      0.00
    8   11   16    -11.30      0.00
    9   11   16     12.41      0.00
   10   11   16     -1.97      0.00
   11   11   16     -5.96      0.00
    0   12   16    -12.98      0.00
    1   12   16    -12.77      0.00
    2   12   16      6.29      0.00
    3   12   16     42.85      0.00
    4   12   16     18.62      0.00
    5   12   16     10.82      0.00
    6   12   16     21.97      0.00
    7   12   16      1.92      0.00
    8   12   16    -16.49      0.00
    9   12   16     -1.05      0.00
   10   12   16     12.91      0.00
   11   12   16     -2.27      0.00
    1   13   16      4.05      0.00
    2   13   16     -3.29      0.00
    3   13   16     -3.70      0.00
    4   13   16    -11.76      0.00
    5   13   16     -6.49      0.00
    6   13   16    -44.90      0.00
    7   13   16     11.23      0.00
    8   13   16     -6.07      0.00
    9   13   16      5.05      0.00
   10   13   16    -13.28      0.00
   11   13   16     15.80      0.00
    0   14   16    -19.20      0.00
    1   14   16    -14.63      0.00
    2   14   16     -4.15      0.00
    3   14   16    -56.65      0.00
    4   14   16     -2.44      0.00
    5   14   16     14.99      0.00
    6   14   16     -4.99      0.00
    7   14   16     -2.69      0.00
    8   14   16      4.14      0.00
    9   14   16      9.77      0.00
   10   14   16     -9.73      0.00
   11   14   16    -15.34      0.00
    1   15   16      4.01      0.00
    2   15   16    -10.79      0.00
    3   15   16    -10.02      0.00
    4   15   16    -16.11      0.00
    5   15   16     40.68      0.00
    6   15   16    -20.14      0.00
    0   16   16    -42.59      0.00
    1   16   16     21.25      0.00
    2   16   16    -41.05      0.00
    3   16   16     10.83      0.00
    4   16   16    -32.00      0.00
    5   16   16   -116.73      0.00
    6   16   16    -13.18      0.00
    1   17   16    -16.79      0.00
    2   17   16     -4.85      0.00
    3   17   16    -13.29      0.00
    4   17   16    -12.12      0.00
    5   17   16     -8.88      0.00
    6   17   16    -18.74      0.00
    7   17   16     23.94      0.00
    0   18   16    -11.74      0.00
    1   18   16    -22.63      0.00
    2   18   16     13.15      0.00
    3   18   16    -23.35      0.00
    4   18   16    -25.74      0.00
    5   18   16     -1.82      0.00
    6   18   16    -16.05      0.00
    0    1   17      5.76      0.00
    1    2   17     -0.54      0.00
    0    3   17    -10.98      0.00
    1    3   17     -9.33      0.00
    2    3   17     13.94      0.00
    1    4   17     12.72      0.00
    2    4   17    -15.85      0.00
    3    4   17     -4.77      0.00
    0    5   17     -1.11      0.00
    1    5   17      4.91      0.00
    2    5   17     -3.21      0.00
    3    5   17     -3.12      0.00
    4    5   17      1.87      0.00
    1    6   17      4.44      0.00
    2    6   17     17.47      0.00
    3    6   17    -12.44      0.00
    4    6   17      2.42      0.00
    5    6   17      1.88      0.00
    0    7   17     28.74      0.00
    1    7   17     -5.07      0.00
    2    7   17     -7.58      0.00
    3    7   17    -15.05      0.00
    4    7   17      0.07      0.00
    5    7   17      2.49      0.00
    1    8   17      5.83      0.00
    2    8   17    -10.19      0.00
    3    8   17    -13.06      0.00
    4    8   17    -11.53      0.00
    6    8   17     10.32      0.00
    7    8   17     20.52      0.00
    0    9   17    -10.96      0.00
    1    9   17      3.46      0.00
    2    9   17      4.92      0.00
    3    9   17      6.82      0.00
    4    9   17      1.82      0.00
    5    9   17     11.12      0.00
    6    9   17      4.15      0.00
    7    9   17      7.17      0.00
    8    9   17     16.14      0.00
    1   10   17     -4.34      0.00
    2   10   17    -11.77      0.00
    3   10   17     19.50      0.00
    4   10   17      2.90      0.00
    5   10   17     -5.05      0.00
    6   10   17    -23.84      0.00
    7   10   17     -6.50      0.00
    8   10   17     -8.41      0.00
    9   10   17     -8.17      0.00
    1   11   17     53.44      0.00
    2   11   17      4.54      0.00
    3   11   17     20.19      0.00
    4   11   17     -6.47      0.00
    5   11   17      7.69      0.00
    6   11   17      6.30      0.00
    7   11   17     -3.51      0.00
    8   11   17      9.58      0.00
    9   11   17      5.75      0.00
   10   11   17      0.44      0.00
    1   12   17    -19.93      0.00
    2   12   17      9.35      0.00
    3   12   17      5.30      0.00
    4   12   17     -3.70      0.00
    5   12   17      4.51      0.00
    6   12   17      8.84      0.00
    7   12   17    -43.75      0.00
    8   12   17      4.61      0.00
    9   12   17     -5.25      0.00
   10   12   17      3.74      0.00
   11   12   17      6.21      0.00
    0   13   17     42.29      0.00
    1   13   17      3.69      0.00
    2   13   17    -20.62      0.00
    3   13   17     10.83      0.00
    4   13   17      9.27      0.00
    5   13   17   -103.20      0.00
    6   13   17      9.21      0.00
    7   13   17     -5.88      0.00
    8   13   17    -22.41      0.00
    9   13   17     10.11      0.00
   10   13   17     61.61      0.00
   11   13   17     -5.36      0.00
    1   14   17      0.05      0.00
    2   14   17      0.49      0.00
    3   14   17     -6.44      0.00
    4   14   17     -4.99      0.00
    5   14   17     -3.81      0.00
    6   14   17     19.00      0.00
    7   14   17     -0.36      0.00
    8   14   17     14.19      0.00
    9   14   17      3.03      0.00
   10   14   17      7.59      0.00
   11   14   17    -15.14      0.00
    0   15   17      7.94      0.00
    1   15   17      1.07      0.00
    2   15   17      9.33      0.00
    3   15   17     14.77      0.00
    4   15   17     -2.16      0.00
    5   15   17     14.91      0.00
   10   15   17    -21.96      0.00
    1   16   17    -69.60      0.00
    2   16   17    -25.72      0.00
    3   16   17    143.42      0.00
    5   16   17     -3.04      0.00
    0   17   17     39.73      0.00
    1   17   17    -11.35      0.00
    2   17   17      3.53      0.00
    3   17   17      0.35      0.00
    4   17   17     10.30      0.00
    5   17   17    -18.54      0.00
    1   18   17     -0.51      0.00
    2   18   17    -18.80      0.00
    3   18   17      6.68      0.00
    4   18   17     11.84      0.00
    5   18   17     -1.57      0.00
    6   18   17     12.41      0.00
    1    1   18     -1.99      0.00
    0    2   18      2.44      0.00
    1    2   18      5.86      0.00
    2    2   18      3.52      0.00
    1    3   18     -9.71      0.00
    2    3   18      2.70      0.00
    3    3   18     -9.38      0.00
    0    4   18      3.82      0.00
    1    4   18     -6.67      0.00
    2    4   18    -16.71      0.00
    3    4   18    -22.58      0.00
    4    4   18     12.53      0.00
    1    5   18     -7.36      0.00
    2    5   18      6.61      0.00
    3    5   18     16.13      0.00
    4    5   18      5.07      0.00
    5    5   18      6.87      0.00
    0    6   18    -18.66      0.00
    1    6   18    -12.12      0.00
    2    6   18      6.92      0.00
    3    6   18      0.36      0.00
    4    6   18    -10.07      0.00
    5    6   18    -27.98      0.00
    1    7   18     -3.50      0.00
    2    7   18     -3.55      0.00
    3    7   18     -2.91      0.00
    4    7   18     -0.79      0.00
    6    7   18     -0.04      0.00
    7    7   18     -1.44      0.00
    0    8   18    -23.54      0.00
    1    8   18      8.02      0.00
    2    8   18      8.77      0.00
    3    8   18      3.30      0.00
    5    8   18     19.87      0.00
    6    8   18     13.32      0.00
    7    8   18    -15.44      0.00
    8    8   18     -5.39      0.00
    1    9   18     -4.45      0.00
    2    9   18      0.91      0.00
    3    9   18      0.79      0.00
    4    9   18     25.46      0.00
    5    9   18    -24.03      0.00
    6    9   18      3.39      0.00
    7    9   18     -4.21      0.00
    8    9   18     -6.73      0.00
    9    9   18    -14.14      0.00
    0   10   18      2.66      0.00
    1   10   18     -0.27      0.00
    2   10   18    -16.00      0.00
    3   10   18     32.11      0.00
    4   10   18      3.05      0.00
    5   10   18    -13.97      0.00
    6   10   18      7.72      0.00
    7   10   18      1.27      0.00
    8   10   18     -5.09      0.00
    9   10   18     20.71      0.00
   10   10   18     -2.07      0.00
    1   11   18      5.23      0.00
    2   11   18      2.05      0.00
    3   11   18     -9.30      0.00
    4   11   18    -13.62      0.00
    5   11   18    -14.91      0.00
    6   11   18    -11.47      0.00
    7   11   18     -5.64      0.00
    8   11   18      1.78      0.00
    9   11   18     19.04      0.00
   10   11   18    -15.21      0.00
   11   11   18    -21.36      0.00
    0   12   18     24.96      0.00
    1   12   18    -19.93      0.00
    2   12   18     11.65      0.00
    3   12   18     32.48      0.00
    4   12   18      1.87      0.00
    5   12   18     37.62      0.00
    6   12   18      5.87      0.00
    7   12   18     -1.21      0.00
    8   12   18      0.34      0.00
    9   12   18    -11.92      0.00
   10   12   18      1.03      0.00
   11   12   18     -4.07      0.00
   12   12   18    -29.56      0.00
    1   13   18     -5.96      0.00
    2   13   18     -6.07      0.00
    3   13   18     23.25      0.00
    4   13   18     22.38      0.00
    5   13   18     -9.95      0.00
    6   13   18     -5.05      0.00
    7   13   18      8.71      0.00
    8   13   18      8.61      0.00
    9   13   18     -8.66      0.00
   10   13   18    -19.98      0.00
   11   13   18     -1.52      0.00
   12   13   18      1.48      0.00
    0   14   18     16.17      0.00
    1   14   18    -73.26      0.00
    2   14   18    -27.59      0.00
    3   14   18    -18.39      0.00
    4   14   18      0.07      0.00
    5   14   18     42.17      0.00
    6   14   18      2.22      0.00
    7   14   18     25.56      0.00
    8   14   18     16.68      0.00
    9   14   18      3.77      0.00
   10   14   18    -19.50      0.00
   11   14   18     13.02      0.00
    1   15   18    -21.96      0.00
    2   15   18     47.66      0.00
    3   15   18      2.73      0.00
    4   15   18     27.53      0.00
    8   15   18    -12.00      0.00
    9   15   18     11.11      0.00
   10   15   18      8.98      0.00
   11   15   18      5.78      0.00
    0   16   18    108.81      0.00
    1   16   18     65.05      0.00
    2   16   18    -20.34      0.00
    3   16   18    -41.51      0.00
    4   16   18    -30.42      0.00
    1   17   18     13.19      0.00
    2   17   18     16.45      0.00
    3   17   18    -53.84      0.00
    4   17   18     30.13      0.00
    0   18   18     -3.36      0.00
    1   18   18      2.68      0.00
    2   18   18    -15.08      0.00
    3   18   18    -22.93      0.00
    4   18   18    -13.02      0.00
    0    1   19    -12.99      0.00
    1    2   19     -7.56      0.00
    0    3   19     -7.61      0.00
    1    3   19     11.84      0.00
    2    3   19     -8.22      0.00
    1    4   19     -0.16      0.00
    2    4   19      8.96      0.00
    3    4   19    -14.32      0.00
    0    5   19    -29.59      0.00
    1    5   19      5.52      0.00
    2    5   19     -3.96      0.00
    3    5   19     -2.11      0.00
    4    5   19      0.30      0.00
    1    6   19      4.23      0.00
    2    6   19      7.35      0.00
    3    6   19     -7.80      0.00
    4    6   19     21.09      0.00
    0    7   19     -7.14      0.00
    1    7   19    -15.90      0.00
    2    7   19     -3.09      0.00
    3    7   19     -2.43      0.00
    5    7   19     16.26      0.00
    6    7   19      0.38      0.00
    1    8   19    -10.58      0.00
    2    8   19      2.57      0.00
    3    8   19      7.99      0.00
    4    8   19    -32.50      0.00
    5    8   19      5.77      0.00
    6    8   19     -9.45      0.00
    7    8   19     -5.99      0.00
    0    9   19     -1.56      0.00
    1    9   19      1.03      0.00
    2    9   19     -3.16      0.00
    3    9   19     33.94      0.00
    4    9   19     33.63      0.00
    5    9   19      1.46      0.00
    6    9   19      9.64      0.00
    7    9   19      1.77      0.00
    8    9   19    -12.11      0.00
    1   10   19      6.80      0.00
    2   10   19    -19.99      0.00
    3   10   19      0.80      0.00
    4   10   19     -7.87      0.00
    5   10   19    -13.02      0.00
    6   10   19    -12.20      0.00
    7   10   19     -8.33      0.00
    8   10   19     -8.02      0.00
    9   10   19     -5.39      0.00
    0   11   19     17.41      0.00
    1   11   19    -17.09      0.00
    2   11   19     -6.64      0.00
    3   11   19     -3.56      0.00
    4   11   19     -8.54      0.00
    5   11   19    -11.29      0.00
    6   11   19      4.62      0.00
    7   11   19     43.38      0.00
    8   11   19      7.21      0.00
    9   11   19      2.05      0.00
   10   11   19     -0.60      0.00
    1   12   19     -2.99      0.00
    2   12   19    -14.57      0.00
    3   12   19     -2.35      0.00
    4   12   19      6.39      0.00
    5   12   19    -19.72      0.00
    6   12   19      6.09      0.00
    7   12   19     13.18      0.00
    8   12   19     15.67      0.00
    9   12   19    -19.00      0.00
   10   12   19     42.01      0.00
   11   12   19     -4.29      0.00
    0   13   19      2.46      0.00
    1   13   19     57.15      0.00
    2   13   19      9.95      0.00
    3   13   19    -11.16      0.00
    4   13   19     -6.73      0.00
    5   13   19     -6.53      0.00
    6   13   19     -0.37      0.00
    7   13   19    -21.00      0.00
    8   13   19      5.15      0.00
    9   13   19    -24.64      0.00
   10   13   19     12.86      0.00
   11   13   19     -1.98      0.00
   12   13   19     17.10      0.00
    1   14   19      0.48      0.00
    2   14   19    -59.52      0.00
    3   14   19     -0.74      0.00
    4   14   19     15.70      0.00
    5   14   19     45.88      0.00
    6   14   19     20.30      0.00
    7   14   19    -89.52      0.00
    8   14   19     -1.56      0.00
    9   14   19     10.45      0.00
   10   14   19      7.02      0.00
   11   14   19     -3.51      0.00
    0   15   19      0.82      0.00
    1   15   19    -11.66      0.00
    2   15   19      2.14      0.00
    6   15   19     11.83      0.00
    7   15   19      9.34      0.00
    8   15   19      8.43      0.00
    9   15   19      5.26      0.00
   10   15   19     -3.80      0.00
    1   16   19     -3.71      0.00
    2   16   19    -84.53      0.00
    3   16   19     -6.55      0.00
    0   17   19    -26.49      0.00
    1   17   19    -37.56      0.00
    2   17   19     10.30      0.00
    3   17   19      3.66      0.00
    1   18   19     -1.80      0.00
    2   18   19     14.83      0.00
    3   18   19     16.70      0.00
    1    1   20    -16.82      0.00
    0    2   20     -7.61      0.00
    1    2   20     11.59      0.00
    2    2   20      6.49      0.00
    1    3   20     -8.70      0.00
    2    3   20      5.77      0.00
    3    3   20      5.68      0.00
    0    4   20     17.20      0.00
    1    4   20      6.45      0.00
    2    4   20     -6.56      0.00
    3    4   20     -6.26      0.00
    4    4   20     -3.03      0.00
    1    5   20      5.18      0.00
    2    5   20      3.56      0.00
    3    5   20     -5.86      0.00
    4    5   20      5.66      0.00
    0    6   20     -8.40      0.00
    1    6   20      7.95      0.00
    2    6   20     13.61      0.00
    3    6   20    -12.76      0.00
    5    6   20     -0.75      0.00
    6    6   20      6.97      0.00
    1    7   20     -1.77      0.00
    2    7   20      3.12      0.00
    3    7   20      6.74      0.00
    4    7   20     -0.49      0.00
    5    7   20     17.87      0.00
    6    7   20      8.71      0.00
    7    7   20    -17.12      0.00
    0    8   20    -19.21      0.00
    1    8   20      2.39      0.00
    2    8   20      7.84      0.00
    3    8   20     -1.97      0.00
    4    8   20     -8.45      0.00
    5    8   20     -4.04      0.00
    6    8   20     -1.41      0.00
    7    8   20      7.00      0.00
    8    8   20    -17.44      0.00
    1    9   20    -12.57      0.00
    2    9   20     -4.03      0.00
    3    9   20     -5.76      0.00
    4    9   20     12.56      0.00
    5    9   20      9.04      0.00
    6    9   20      5.51      0.00
    7    9   20    -13.07      0.00
    8    9   20     -7.57      0.00
    9    9   20     24.46      0.00
    0   10   20     -1.47      0.00
    1   10   20     10.11      0.00
    2   10   20      5.92      0.00
    3   10   20      1.48      0.00
    4   10   20    -13.90      0.00
    5   10   20     -7.65      0.00
    6   10   20     14.21      0.00
    7   10   20    -11.06      0.00
    8   10   20     21.51      0.00
    9   10   20    -10.00      0.00
   10   10   20     18.47      0.00
    1   11   20      8.96      0.00
    2   11   20      4.51      0.00
    3   11   20      4.67      0.00
    4   11   20      8.46      0.00
    5   11   20      7.50      0.00
    6   11   20     30.31      0.00
    7   11   20     -9.60      0.00
    8   11   20     14.99      0.00
    9   11   20     -0.53      0.00
   10   11   20    -16.03      0.00
   11   11   20     -7.33      0.00
    0   12   20     21.77      0.00
    1   12   20     -1.26      0.00
    2   12   20    -15.61      0.00
    3   12   20      3.72      0.00
    4   12   20      9.86      0.00
    5   12   20      4.78      0.00
    6   12   20     10.38      0.00
    7   12   20    -11.45      0.00
    8   12   20     -6.95      0.00
    9   12   20    -16.63      0.00
   10   12   20      4.00      0.00
   11   12   20    -24.90      0.00
   12   12   20    -11.75      0.00
    1   13   20      7.24      0.00
    2   13   20    -64.23      0.00
    3   13   20    -15.61      0.00
    4   13   20     11.73      0.00
    5   13   20      7.80      0.00
    6   13   20    -12.74      0.00
    7   13   20     10.37      0.00
    8   13   20     -0.40      0.00
    9   13   20    -16.93      0.00
   10   13   20     11.40      0.00
   11   13   20      7.17      0.00
    0   14   20    -59.91      0.00
    1   14   20     -8.44      0.00
    2   14   20     12.50      0.00
    3   14   20     16.47      0.00
    4   14   20     -6.91      0.00
    5   14   20      0.17      0.00
    6   14   20    -17.36      0.00
    7   14   20     15.62      0.00
    8   14   20     14.24      0.00
    9   14   20      7.30      0.00
   10   14   20     -7.18      0.00
    1   15   20      2.38      0.00
    2   15   20    318.76      0.00
    5   15   20     10.04      0.00
    6   15   20      4.19      0.00
    7   15   20     -0.79      0.00
    8   15   20     -0.50      0.00
    9   15   20     10.69      0.00
    0   16   20     67.82      0.00
    1   16   20     14.17      0.00
    2   16   20     21.16      0.00
    1   17   20    -19.83      0.00
    2   17   20     29.91      0.00
    0    1   21      6.38      0.00
    1    2   21     11.92      0.00
    0    3   21      2.72      0.00
    1    3   21     -3.86      0.00
    2    3   21      0.05      0.00
    1    4   21     14.15      0.00
    2    4   21      4.45      0.00
    3    4   21      8.99      0.00
    0    5   21    -10.53      0.00
    1    5   21      3.32      0.00
    2    5   21     21.29      0.00
    3    5   21     11.15      0.00
    1    6   21     16.36      0.00
    2    6   21    -20.37      0.00
    3    6   21     -8.99      0.00
    4    6   21     -1.68      0.00
    5    6   21     -5.43      0.00
    0    7   21     -3.21      0.00
    1    7   21      5.37      0.00
    2    7   21     -4.25      0.00
    3    7   21    -15.59      0.00
    4    7   21     -7.50      0.00
    5    7   21     11.30      0.00
    6    7   21     20.08      0.00
    1    8   21     15.20      0.00
    2    8   21     -8.05      0.00
    3    8   21      9.57      0.00
    4    8   21     -2.76      0.00
    5    8   21     -3.47      0.00
    6    8   21     -5.40      0.00
    7    8   21     14.47      0.00
    0    9   21     -5.24      0.00
    1    9   21      7.05      0.00
    2    9   21      6.88      0.00
    3    9   21      3.16      0.00
    4    9   21     14.03      0.00
    5    9   21      3.24      0.00
    6    9   21     14.07      0.00
    7    9   21     -8.87      0.00
    8    9   21     -2.22      0.00
    1   10   21     -6.90      0.00
    2   10   21    -16.98      0.00
    3   10   21      7.16      0.00
    4   10   21     -5.67      0.00
    5   10   21    -12.85      0.00
    6   10   21    -21.33      0.00
    7   10   21     -5.91      0.00
    8   10   21     17.02      0.00
    9   10   21     19.21      0.00
    0   11   21     28.46      0.00
    1   11   21     -4.95      0.00
    2   11   21      5.65      0.00
    3   11   21    -17.81      0.00
    4   11   21    -12.05      0.00
    5   11   21     -6.62      0.00
    6   11   21      0.95      0.00
    7   11   21     13.72      0.00
    8   11   21     -0.27      0.00
    9   11   21    -15.65      0.00
   10   11   21     24.60      0.00
    1   12   21     -3.07      0.00
    2   12   21     -4.99      0.00
    3   12   21     -7.01      0.00
    4   12   21     10.91      0.00
    5   12   21      0.26      0.00
    6   12   21     -1.39      0.00
    7   12   21      0.58      0.00
    8   12   21     -0.85      0.00
    9   12   21     29.11      0.00
   10   12   21      6.98      0.00
   11   12   21    -13.17      0.00
    0   13   21    -31.87      0.00
    1   13   21     22.16      0.00
    2   13   21      7.69      0.00
    3   13   21     33.71      0.00
    4   13   21     -2.20      0.00
    5   13   21    -13.92      0.00
    6   13   21     11.75      0.00
    8   13   21      8.19      0.00
    9   13   21     13.73      0.00
   10   13   21     -0.10      0.00
    1   14   21     -4.07      0.00
    2   14   21    -11.87      0.00
    3   14   21     14.22      0.00
    4   14   21     -0.52      0.00
    5   14   21     11.65      0.00
    6   14   21    -11.24      0.00
    7   14   21    -13.35      0.00
    8   14   21     13.13      0.00
    9   14   21     13.80      0.00
   10   14   21     -7.11      0.00
    0   15   21     22.78      0.00
    3   15   21    -45.31      0.00
    4   15   21      0.16      0.00
    5   15   21      8.09      0.00
    6   15   21      4.40      0.00
    7   15   21     12.67      0.00
    8   15   21     -0.11      0.00
    9   15   21    -10.75      0.00
    1   16   21    -38.56      0.00
    0   17   21     -0.05      0.00
    1   17   21     -3.86      0.00
    1    1   22    -10.24      0.00
    0    2   22     14.46      0.00
    1    2   22     -6.61      0.00
    2    2   22     -2.24      0.00
    1    3   22     -5.88      0.00
    2    3   22      5.16      0.00
    3    3   22      6.69      0.00
    0    4   22      8.83      0.00
    1    4   22     15.66      0.00
    2    4   22      6.32      0.00
    3    4   22    -10.04      0.00
    4    4   22     16.86      0.00
    1    5   22      0.97      0.00
    2    5   22      1.19      0.00
    3    5   22     10.96      0.00
    4    5   22    -33.51      0.00
    5    5   22    -13.06      0.00
    0    6   22     12.33      0.00
    1    6   22    -26.62      0.00
    2    6   22      1.01      0.00
    3    6   22      5.54      0.00
    4    6   22     16.99      0.00
    5    6   22      4.86      0.00
    6    6   22     25.05      0.00
    1    7   22    -23.33      0.00
    2    7   22      4.55      0.00
    3    7   22      5.52      0.00
    4    7   22     13.24      0.00
    5    7   22      3.22      0.00
    6    7   22      2.93      0.00
    7    7   22     29.17      0.00
    0    8   22      5.66      0.00
    1    8   22     -9.81      0.00
    2    8   22      2.42      0.00
    3    8   22      1.53      0.00
    4    8   22     12.93      0.00
    5    8   22     -8.12      0.00
    6    8   22     -1.11      0.00
    7    8   22    -22.31      0.00
    8    8   22    -18.96      0.00
    1    9   22     14.63      0.00
    2    9   22     22.40      0.00
    3    9   22      2.91      0.00
    4    9   22     24.11      0.00
    5    9   22    -10.08      0.00
    6    9   22      6.00      0.00
    7    9   22    -31.26      0.00
    8    9   22     -5.97      0.00
    9    9   22     36.02      0.00
    0   10   22     -3.01      0.00
    1   10   22      9.55      0.00
    2   10   22     -5.93      0.00
    3   10   22     -7.36      0.00
    4   10   22     -7.77      0.00
    5   10   22     -3.19      0.00
    6   10   22      9.13      0.00
    7   10   22      3.79      0.00
    8   10   22      3.97      0.00
    9   10   22    -15.77      0.00
   10   10   22    -53.73      0.00
    1   11   22      7.88      0.00
    2   11   22     -1.52      0.00
    3   11   22     -8.45      0.00
    4   11   22    -10.38      0.00
    5   11   22      2.32      0.00
    6   11   22      8.88      0.00
    7   11   22      9.04      0.00
    8   11   22      2.42      0.00
    9   11   22    -75.73      0.00
   10   11   22     19.57      0.00
   11   11   22     30.47      0.00
    0   12   22    -20.10      0.00
    1   12   22     -4.15      0.00
    2   12   22     15.72      0.00
    3   12   22     -0.66      0.00
    4   12   22     -5.84      0.00
    5   12   22    -16.17      0.00
    6   12   22     16.93      0.00
    7   12   22      3.33      0.00
    8   12   22     18.98      0.00
    9   12   22     -8.46      0.00
   10   12   22     -8.15      0.00
   11   12   22     -0.41      0.00
    1   13   22     -3.75      0.00
    2   13   22      3.27      0.00
    3   13   22     10.07      0.00
    4   13   22      1.00      0.00
    5   13   22     -5.33      0.00
    6   13   22      2.14      0.00
    7   13   22     15.18      0.00
    8   13   22     -9.43      0.00
    9   13   22     -2.73      0.00
   10   13   22     -0.55      0.00
    1   14   22    -21.30      0.00
    2   14   22    -25.48      0.00
    3   14   22    -27.56      0.00
    4   14   22    -27.01      0.00
    5   14   22    -10.84      0.00
    6   14   22     -6.67      0.00
    7   14   22     16.58      0.00
    8   14   22     12.56      0.00
    9   14   22    -38.32      0.00
    3   15   22    -24.04      0.00
    4   15   22     -3.98      0.00
    5   15   22      7.77      0.00
    6   15   22      8.07      0.00
    7   15   22      4.96      0.00
    8   15   22      1.02      0.00
    0    1   23     -8.90      0.00
    1    2   23      0.53      0.00
    0    3   23    -21.48      0.00
    1    3   23     -2.43      0.00
    2    3   23     -3.67      0.00
    1    4   23      0.83      0.00
    2    4   23      3.58      0.00
    3    4   23    -13.39      0.00
    0    5   23      6.69      0.00
    1    5   23     -1.04      0.00
    2    5   23     -0.96      0.00
    3    5   23     -3.78      0.00
    4    5   23    -20.93      0.00
    1    6   23     -0.32      0.00
    2    6   23    -32.26      0.00
    3    6   23     -7.82      0.00
    4    6   23     -3.13      0.00
    5    6   23     -4.77      0.00
    0    7   23    -13.83      0.00
    1    7   23     12.33      0.00
    2    7   23     -3.05      0.00
    3    7   23     12.57      0.00
    4    7   23     -0.70      0.00
    5    7   23     -7.30      0.00
    6    7   23      1.28      0.00
    1    8   23      1.27      0.00
    2    8   23      6.31      0.00
    3    8   23     -4.05      0.00
    4    8   23     -4.67      0.00
    5    8   23     -2.46      0.00
    6    8   23     -2.75      0.00
    7    8   23    -30.74      0.00
    0    9   23      1.79      0.00
    1    9   23     -6.10      0.00
    2    9   23     -6.52      0.00
    3    9   23      1.36      0.00
    4    9   23     -8.79      0.00
    5    9   23    -34.13      0.00
    6    9   23     -3.68      0.00
    7    9   23      3.13      0.00
    8    9   23      8.73      0.00
    1   10   23     20.50      0.00
    2   10   23     -2.51      0.00
    3   10   23    -36.47      0.00
    4   10   23    -15.49      0.00
    5   10   23     15.96      0.00
    6   10   23     18.68      0.00
    7   10   23     -4.18      0.00
    8   10   23     -8.47      0.00
    9   10   23     20.58      0.00
    0   11   23    -12.74      0.00
    1   11   23      5.11      0.00
    2   11   23     -0.01      0.00
    3   11   23     -5.31      0.00
    4   11   23     -7.64      0.00
    5   11   23      1.00      0.00
    6   11   23      7.31      0.00
    7   11   23     11.36      0.00
    8   11   23    -37.14      0.00
    9   11   23      3.07      0.00
   10   11   23     16.08      0.00
    1   12   23    -19.50      0.00
    2   12   23     -6.68      0.00
    3   12   23     26.77      0.00
    4   12   23     -7.82      0.00
    5   12   23     -2.20      0.00
    6   12   23    -11.55      0.00
    7   12   23      7.10      0.00
    8   12   23    -23.34      0.00
    9   12   23      2.56      0.00
   10   12   23     40.67      0.00
    0   13   23    -14.42      0.00
    1   13   23    -30.83      0.00
    2   13   23      5.26      0.00
    3   13   23     -0.96      0.00
    4   13   23     32.29      0.00
    5   13   23      2.57      0.00
    6   13   23    -19.06      0.00
    7   13   23      4.18      0.00
    8   13   23      1.32      0.00
    9   13   23     -8.89      0.00
    2   14   23     18.47      0.00
    3   14   23      0.20      0.00
    4   14   23     13.92      0.00
    5   14   23     11.54      0.00
    6   14   23     -2.62      0.00
    7   14   23    -12.49      0.00
    8   14   23     16.84      0.00
    3   15   23      0.01      0.00
    4   15   23     -0.45      0.00
    5   15   23     20.71      0.00
    6   15   23      2.57      0.00
    7   15   23      3.01      0.00
    0    2   24     23.93      0.00
    1    2   24    -12.02      0.00
    2    2   24     -3.21      0.00
    1    3   24     14.15      0.00
    2    3   24    -12.46      0.00
    3    3   24      0.33      0.00
    0    4   24    -16.91      0.00
    1    4   24     -3.60      0.00
    2    4   24     -5.71      0.00
    3    4   24    -20.12      0.00
    4    4   24      2.83      0.00
    1    5   24    -36.67      0.00
    2    5   24     19.25      0.00
    3    5   24      4.48      0.00
    4    5   24      9.83      0.00
    5    5   24    -14.95      0.00
    0    6   24      5.56      0.00
    1    6   24      9.23      0.00
    2    6   24     -4.21      0.00
    3    6   24      2.29      0.00
    4    6   24    -12.61      0.00
    5    6   24     21.53      0.00
    6    6   24     28.16      0.00
    1    7   24     -8.81      0.00
    2    7   24      0.65      0.00
    3    7   24     -0.68      0.00
    4    7   24     14.19      0.00
    5    7   24      7.01      0.00
    6    7   24      2.88      0.00
    7    7   24    -55.52      0.00
    0    8   24      6.09      0.00
    1    8   24     27.12      0.00
    2    8   24      6.41      0.00
    3    8   24      1.08      0.00
    4    8   24      6.43      0.00
    5    8   24    -15.98      0.00
    6    8   24     -1.47      0.00
    7    8   24      3.46      0.00
    8    8   24      9.22      0.00
    1    9   24     -9.07      0.00
    2    9   24     18.64      0.00
    3    9   24     -0.40      0.00
    4    9   24     45.78      0.00
    5    9   24    -33.57      0.00
    6    9   24     -5.36      0.00
    7    9   24     35.03      0.00
    8    9   24     -5.08      0.00
    9    9   24     20.86      0.00
    0   10   24    -22.45      0.00
    1   10   24      2.51      0.00
    2   10   24      5.47      0.00
    3   10   24    -11.53      0.00
    4   10   24      4.10      0.00
    5   10   24     19.53      0.00
    6   10   24      5.85      0.00
    7   10   24      1.24      0.00
    8   10   24     -0.19      0.00
    9   10   24      3.91      0.00
   10   10   24     -4.30      0.00
    1   11   24     11.90      0.00
    2   11   24      3.10      0.00
    3   11   24     -0.11      0.00
    4   11   24     22.05      0.00
    5   11   24     15.10      0.00
    6   11   24     -0.62      0.00
    7   11   24    -83.62      0.00
    8   11   24     -2.24      0.00
    9   11   24    -11.66      0.00
   10   11   24     -8.90      0.00
    0   12   24      3.72      0.00
    1   12   24      8.18      0.00
    2   12   24    -19.34      0.00
    3   12   24     -6.39      0.00
    4   12   24     -6.48      0.00
    5   12   24     25.22      0.00
    6   12   24      0.34      0.00
    7   12   24    -15.15      0.00
    8   12   24     -9.21      0.00
    9   12   24      2.98      0.00
    1   13   24    -52.75      0.00
    2   13   24     53.71      0.00
    3   13   24     -0.13      0.00
    4   13   24     -9.58      0.00
    5   13   24    -16.34      0.00
    6   13   24      1.82      0.00
    7   13   24      9.50      0.00
    8   13   24      3.37      0.00
    2   14   24     -0.19      0.00
    3   14   24     -7.72      0.00
    4   14   24    -19.58      0.00
    5   14   24     -4.27      0.00
    6   14   24      8.43      0.00
    7   14   24     16.35      0.00
    2   15   24     -4.26      0.00
    3   15   24     -3.18      0.00
    4   15   24     27.81      0.00
    5   15   24     -8.07      0.00
    6   15   24     -2.11      0.00
    1    2   25     -6.68      0.00
    1    3   25    -11.58      0.00
    2    3   25     -1.81      0.00
    1    4   25     20.96      0.00
    2    4   25     24.97      0.00
    3    4   25     -0.77      0.00
    0    5   25     75.33      0.00
    1    5   25      6.15      0.00
    2    5   25    -21.86      0.00
    3    5   25    -10.19      0.00
    4    5   25     23.44      0.00
    1    6   25      2.67      0.00
    2    6   25     -8.83      0.00
    3    6   25     13.70      0.00
    4    6   25     14.96      0.00
    5    6   25      7.33      0.00
    0    7   25    -15.79      0.00
    1    7   25     13.21      0.00
    2    7   25     20.36      0.00
    3    7   25     -0.89      0.00
    4    7   25     -5.20      0.00
    5    7   25     -9.65      0.00
    6    7   25      1.38      0.00
    1    8   25      0.84      0.00
    2    8   25     14.75      0.00
    3    8   25      9.42      0.00
    4    8   25    -60.86      0.00
    5    8   25    -21.45      0.00
    6    8   25      6.66      0.00
    7    8   25     16.41      0.00
    0    9   25     39.52      0.00
    1    9   25    -28.50      0.00
    2    9   25    -23.72      0.00
    3    9   25    -26.15      0.00
    4    9   25     14.76      0.00
    5    9   25     12.26      0.00
    6    9   25     -1.81      0.00
    7    9   25      3.35      0.00
    8    9   25     -3.02      0.00
    1   10   25     -4.85      0.00
    2   10   25    -14.61      0.00
    3   10   25     14.15      0.00
    4   10   25      4.77      0.00
    5   10   25      2.85      0.00
    6   10   25     -5.61      0.00
    7   10   25      3.30      0.00
    8   10   25      2.39      0.00
    9   10   25     -3.22      0.00
    0   11   25     18.48      0.00
    1   11   25     12.17      0.00
    2   11   25     -2.54      0.00
    3   11   25    -14.43      0.00
    4   11   25     12.07      0.00
    5   11   25    -14.82      0.00
    6   11   25     -3.13      0.00
    7   11   25      5.79      0.00
    8   11   25     38.59      0.00
    9   11   25     -5.61      0.00
    1   12   25     27.95      0.00
    2   12   25    -14.23      0.00
    3   12   25     46.01      0.00
    4   12   25    -18.74      0.00
    5   12   25    -12.77      0.00
    6   12   25     -1.96      0.00
    7   12   25      6.80      0.00
    8   12   25     -3.68      0.00
    0   13   25      1.76      0.00
    1   13   25     20.24      0.00
    2   13   25     13.75      0.00
    3   13   25    -16.15      0.00
    4   13   25    -10.14      0.00
    5   13   25     -2.33      0.00
    6   13   25      1.53      0.00
    7   13   25     10.84      0.00
    2   14   25     10.62      0.00
    3   14   25    -24.16      0.00
    4   14   25     -4.62      0.00
    5   14   25     -6.10      0.00
    6   14   25    -19.63      0.00
    3   15   25    -18.59      0.00
    4   15   25     -2.08      0.00
    0    2   26     -0.47      0.00
    1    2   26     -0.40      0.00
    2    2   26     10.46      0.00
    1    3   26     13.47      0.00
    2    3   26      0.50      0.00
    3    3   26    -13.38      0.00
    0    4   26    -26.00      0.00
    1    4   26    -12.22      0.00
    2    4   26     -4.37      0.00
    3    4   26    -23.45      0.00
    4    4   26     10.24      0.00
    1    5   26    -15.74      0.00
    2    5   26     23.23      0.00
    3    5   26     -3.31      0.00
    4    5   26      4.56      0.00
    5    5   26     13.69      0.00
    0    6   26     -4.04      0.00
    1    6   26     -6.89      0.00
    2    6   26      4.91      0.00
    3    6   26     -2.89      0.00
    4    6   26    -15.67      0.00
    5    6   26    -16.72      0.00
    6    6   26     -3.63      0.00
    1    7   26      9.09      0.00
    2    7   26      9.22      0.00
    3    7   26    -17.52      0.00
    4    7   26     -7.06      0.00
    5    7   26     -2.81      0.00
    6    7   26     10.26      0.00
    7    7   26    -16.04      0.00
    0    8   26     18.15      0.00
    1    8   26    -61.24      0.00
    2    8   26     -3.95      0.00
    3    8   26     12.79      0.00
    4    8   26      8.89      0.00
    5    8   26      2.01      0.00
    6    8   26      7.99      0.00
    7    8   26     11.36      0.00
    8    8   26      1.25      0.00
    1    9   26    -14.73      0.00
    2    9   26     -7.66      0.00
    3    9   26      6.73      0.00
    4    9   26    -22.28      0.00
    5    9   26     -5.29      0.00
    6    9   26      5.38      0.00
    7    9   26     -8.58      0.00
    8    9   26      1.20      0.00
    9    9   26     -4.48      0.00
    0   10   26      1.31      0.00
    1   10   26     36.70      0.00
    2   10   26      6.56      0.00
    3   10   26    -15.71      0.00
    4   10   26     -6.30      0.00
    5   10   26      1.87      0.00
    6   10   26     66.24      0.00
    7   10   26      2.91      0.00
    8   10   26     19.14      0.00
    9   10   26     -6.59      0.00
    1   11   26    -19.11      0.00
    2   11   26     -2.51      0.00
    3   11   26    -13.98      0.00
    4   11   26     81.79      0.00
    5   11   26     -8.77      0.00
    6   11   26     -0.73      0.00
    7   11   26    -15.02      0.00
    8   11   26     -9.19      0.00
    0   12   26     27.41      0.00
    1   12   26    -28.68      0.00
    2   12   26      0.31      0.00
    3   12   26      4.73      0.00
    4   12   26     -8.25      0.00
    5   12   26     19.09      0.00
    6   12   26     -7.09      0.00
    7   12   26      7.12      0.00
    1   13   26     -1.85      0.00
    2   13   26     17.12      0.00
    3   13   26     -9.16      0.00
    4   13   26      3.09      0.00
    5   13   26     22.36      0.00
    6   13   26      7.70      0.00
    3   14   26    -19.50      0.00
    4   14   26     -7.19      0.00
    1    2   27     -7.05      0.00
    0    3   27      9.64      0.00
    1    3   27      1.91      0.00
    2    3   27     11.10      0.00
    1    4   27      2.44      0.00
    2    4   27     -3.49      0.00
    3    4   27     -2.90      0.00
    0    5   27     -1.50      0.00
    1    5   27     13.45      0.00
    2    5   27      3.32      0.00
    3    5   27     -8.79      0.00
    4    5   27    -11.09      0.00
    1    6   27     -8.18      0.00
    2    6   27      4.47      0.00
    3    6   27     27.63      0.00
    4    6   27     24.97      0.00
    5    6   27     -1.94      0.00
    0    7   27     32.50      0.00
    1    7   27     10.27      0.00
    2    7   27     -9.50      0.00
    3    7   27    -12.59      0.00
    4    7   27      2.68      0.00
    5    7   27     16.79      0.00
    6    7   27    -15.19      0.00
    1    8   27    -17.84      0.00
    2    8   27     12.84      0.00
    3    8   27     20.47      0.00
    4    8   27     11.79      0.00
    5    8   27     -3.78      0.00
    6    8   27      8.87      0.00
    7    8   27    -16.74      0.00
    0    9   27     -7.64      0.00
    1    9   27    -30.53      0.00
    2    9   27      2.89      0.00
    3    9   27     10.44      0.00
    4    9   27     21.79      0.00
    5    9   27     12.83      0.00
    6    9   27     23.31      0.00
    7    9   27     -3.65      0.00
    8    9   27     -6.95      0.00
    1   10   27    -25.27      0.00
    2   10   27     14.74      0.00
    3   10   27     -4.72      0.00
    4   10   27    -26.02      0.00
    5   10   27    -22.21      0.00
    6   10   27     -0.58      0.00
    7   10   27      8.69      0.00
    8   10   27     12.55      0.00
    0   11   27    -49.19      0.00
    1   11   27    -42.50      0.00
    2   11   27      2.76      0.00
    3   11   27     -3.38      0.00
    4   11   27      7.84      0.00
    5   11   27     -1.67      0.00
    6   11   27     -9.13      0.00
    7   11   27    -10.59      0.00
    1   12   27    -21.30      0.00
    2   12   27      7.46      0.00
    3   12   27     -3.77      0.00
    4   12   27    -13.12      0.00
    5   12   27     12.14      0.00
    6   12   27    -21.86      0.00
    0   13   27      6.75      0.00
    1   13   27      5.98      0.00
    2   13   27    -15.64      0.00
    3   13   27     -5.55      0.00
    4   13   27    -30.22      0.00
    2   14   27      2.65      0.00
    0    2   28    -11.02      0.00
    1    2   28    -11.90      0.00
    2    2   28     -1.11      0.00
    1    3   28    -13.36      0.00
    2    3   28      5.82      0.00
    3    3   28      8.80      0.00
    0    4   28     -1.70      0.00
    1    4   28      2.91      0.00
    2    4   28     -4.80      0.00
    3    4   28      1.03      0.00
    4    4   28      5.33      0.00
    1    5   28     15.17      0.00
    2    5   28    -11.52      0.00
    3    5   28    -19.51      0.00
    4    5   28     24.16      0.00
    5    5   28      1.73      0.00
    0    6   28     -3.78      0.00
    1    6   28    -15.23      0.00
    2    6   28    -12.05      0.00
    3    6   28    -10.09      0.00
    4    6   28     -6.22      0.00
    5    6   28    -22.93      0.00
    6    6   28     -5.53      0.00
    1    7   28      7.02      0.00
    2    7   28    -12.16      0.00
    3    7   28    -14.35      0.00
    4    7   28      9.14      0.00
    5    7   28     -6.61      0.00
    6    7   28     16.64      0.00
    7    7   28     23.78      0.00
    0    8   28     -3.72      0.00
    1    8   28     10.52      0.00
    2    8   28     -0.46      0.00
    3    8   28     34.99      0.00
    4    8   28     -4.27      0.00
    5    8   28      5.69      0.00
    6    8   28     65.95      0.00
    7    8   28     -4.91      0.00
    8    8   28      4.29      0.00
    1    9   28    -27.49      0.00
    2    9   28     48.55      0.00
    3    9   28     -6.30      0.00
    4    9   28     13.01      0.00
    5    9   28    -20.20      0.00
    6    9   28     -3.79      0.00
    7    9   28    -26.15      0.00
    8    9   28    -15.77      0.00
    0   10   28     98.82      0.00
    1   10   28    222.35      0.00
    2   10   28    -32.39      0.00
    3   10   28    -48.17      0.00
    4   10   28      5.83      0.00
    5   10   28    -12.28      0.00
    6   10   28    -14.54      0.00
    7   10   28    -10.64      0.00
    1   11   28     18.11      0.00
    2   11   28     -6.73      0.00
    3   11   28      1.43      0.00
    4   11   28      7.87      0.00
    5   11   28      5.98      0.00
    6   11   28    -10.22      0.00
    0   12   28     13.17      0.00
    1   12   28     13.34      0.00
    2   12   28     36.43      0.00
    3   12   28      6.19      0.00
    4   12   28     -7.80      0.00
    1   13   28    -28.03      0.00
    2   13   28      8.27      0.00
    0    3   29     14.31      0.00
    1    3   29    -22.48      0.00
    2    3   29     33.75      0.00
    1    4   29    -11.62      0.00
    2    4   29    -12.08      0.00
    3    4   29     -7.93      0.00
    0    5   29     -3.06      0.00
    1    5   29    -12.50      0.00
    2    5   29    -14.75      0.00
    3    5   29     12.35      0.00
    4    5   29     17.81      0.00
    1    6   29    -12.65      0.00
    2    6   29     -7.76      0.00
    3    6   29     18.90      0.00
    4    6   29    -11.73      0.00
    5    6   29     15.44      0.00
    0    7   29    -34.11      0.00
    1    7   29    -16.28      0.00
    2    7   29      9.16      0.00
    3    7   29    -13.70      0.00
    4    7   29     -5.26      0.00
    5    7   29     17.91      0.00
    6    7   29    -12.84      0.00
    1    8   29     23.72      0.00
    2    8   29     13.58      0.00
    3    8   29    -18.48      0.00
    4    8   29    -56.38      0.00
    5    8   29    -34.02      0.00
    6    8   29     -8.04      0.00
    7    8   29     -6.53      0.00
    0    9   29    172.15      0.00
    1    9   29   -284.14      0.00
    2    9   29    -28.86      0.00
    3    9   29      8.39      0.00
    4    9   29      6.55      0.00
    5    9   29    -12.94      0.00
    6    9   29      5.42      0.00
    7    9   29    -14.78      0.00
    1   10   29     -3.76      0.00
    2   10   29    -43.62      0.00
    3   10   29     16.66      0.00
    4   10   29    -16.82      0.00
    5   10   29    -12.02      0.00
    6   10   29     12.21      0.00
    0   11   29    -25.42      0.00
    1   11   29     -0.63      0.00
    2   11   29     12.46      0.00
    3   11   29    -16.30      0.00
    4   11   29     -1.25      0.00
    1   12   29     -1.93      0.00
    2   12   29     19.43      0.00
    3   12   29    -14.32      0.00
    1   13   29      1.41      0.00
    1    3   30    -16.01      0.00
    2    3   30     27.84      0.00
    3    3   30    -15.90      0.00
    0    4   30    -16.56      0.00
    1    4   30     11.99      0.00
    2    4   30     -2.44      0.00
    3    4   30     11.81      0.00
    4    4   30     10.44      0.00
    1    5   30     15.54      0.00
    2    5   30      0.86      0.00
    3    5   30     43.39      0.00
    4    5   30      1.99      0.00
    5    5   30     14.81      0.00
    0    6   30    -30.29      0.00
    1    6   30     21.39      0.00
    2    6   30     10.92      0.00
    3    6   30     23.64      0.00
    4    6   30     30.54      0.00
    5    6   30    -73.05      0.00
    6    6   30      7.47      0.00
    1    7   30      4.46      0.00
    2    7   30     22.86      0.00
    3    7   30    -15.16      0.00
    4    7   30     10.60      0.00
    5    7   30     -8.67      0.00
    6    7   30      6.22      0.00
    7    7   30     -7.78      0.00
    0    8   30     10.41      0.00
    1    8   30     60.56      0.00
    2    8   30     11.66      0.00
    3    8   30     21.14      0.00
    4    8   30      8.54      0.00
    5    8   30     -4.32      0.00
    6    8   30     14.71      0.00
    7    8   30     -2.38      0.00
    1    9   30    -11.20      0.00
    2    9   30    -26.50      0.00
    3    9   30      1.21      0.00
    4    9   30     11.74      0.00
    5    9   30    -19.07      0.00
    6    9   30     13.51      0.00
    0   10   30    -62.60      0.00
    1   10   30     52.88      0.00
    2   10   30     -1.42      0.00
    3   10   30      7.34      0.00
    4   10   30      7.29      0.00
    1   11   30    -18.16      0.00
    2   11   30      8.74      0.00
    3   11   30      9.74      0.00
    1   12   30     15.89      0.00
    0    3   31    -24.16      0.00
    1    3   31    -18.09      0.00
    2    3   31     25.41      0.00
    1    4   31     -0.59      0.00
    2    4   31     19.71      0.00
    3    4   31     21.48      0.00
    0    5   31     25.17      0.00
    1    5   31    -20.65      0.00
    2    5   31      0.08      0.00
    3    5   31     14.37      0.00
    4    5   31   -147.61      0.00
    1    6   31      8.70      0.00
    2    6   31   -127.44      0.00
    3    6   31      4.26      0.00
    4    6   31     36.11      0.00
    5    6   31      3.00      0.00
    0    7   31      1.04      0.00
    1    7   31     19.47      0.00
    2    7   31      1.15      0.00
    3    7   31     13.49      0.00
    4    7   31     33.19      0.00
    5    7   31      2.86      0.00
    6    7   31      0.05      0.00
    1    8   31    -21.92      0.00
    2    8   31     64.61      0.00
    3    8   31      5.34      0.00
    4    8   31      5.63      0.00
    5    8   31      2.64      0.00
    0    9   31     -3.87      0.00
    1    9   31    -16.29      0.00
    2    9   31    -23.00      0.00
    3    9   31      1.83      0.00
    4    9   31     23.96      0.00
    1   10   31    -11.82      0.00
    2   10   31     32.36      0.00
    3   10   31      0.94      0.00
    1   11   31     -4.79      0.00
    2   11   31      5.32      0.00
    0    4   32     41.40      0.00
    1    4   32    -28.56      0.00
    2    4   32    -76.53      0.00
    3    4   32     23.91      0.00
    4    4   32     30.84      0.00
    1    5   32     21.87      0.00
    2    5   32     30.06      0.00
    3    5   32     13.76      0.00
    4    5   32     -5.13      0.00
    5    5   32     34.58      0.00
    0    6   32     12.80      0.00
    1    6   32     15.15      0.00
    2    6   32     -7.14      0.00
    3    6   32      6.22      0.00
    4    6   32      9.62      0.00
    5    6   32     -1.30      0.00
    6    6   32     -7.08      0.00
    1    7   32    -35.95      0.00
    2    7   32      6.03      0.00
    3    7   32     -3.45      0.00
    4    7   32      4.83      0.00
    5    7   32    -31.15      0.00
    1    8   32    -12.19      0.00
    2    8   32    -24.51      0.00
    3    8   32      2.80      0.00
    4    8   32     17.84      0.00
    1    9   32     25.74      0.00
    2    9   32    -11.18      0.00
    3    9   32      4.80      0.00
    1   10   32     -8.71      0.00
    2   10   32     18.23      0.00
    1    4   33      9.59      0.00
    2    4   33     -5.75      0.00
    3    4   33     10.84      0.00
    0    5   33    -46.96      0.00
    1    5   33     12.29      0.00
    2    5   33     -6.07      0.00
    3    5   33     -0.63      0.00
    4    5   33      3.95      0.00
    1    6   33      0.15      0.00
    2    6   33    -35.01      0.00
    3    6   33     20.21      0.00
    4    6   33    -32.68      0.00
    1    7   33     19.03      0.00
    2    7   33    -24.44      0.00
    3    7   33    -11.53      0.00
    4    7   33     -3.74      0.00
    1    8   33     -3.91      0.00
    2    8   33      3.41      0.00
    3    8   33    -17.56      0.00
    1    9   33     -7.02      0.00
    2    9   33     17.75      0.00
    0    4   34    -14.00      0.00
    1    4   34    -26.90      0.00
    2    4   34     28.15      0.00
    1    5   34     -0.11      0.00
    2    5   34     28.46      0.00
    3    5   34      0.52      0.00
    4    5   34    -18.71      0.00
    1    6   34      0.23      0.00
    2    6   34     17.63      0.00
    3    6   34     21.32      0.00
    1    7   34      5.17      0.00
    2    7   34      7.63      0.00
    1    8   34     -1.23      0.00
    1    5   35     -8.47      0.00
    2    5   35     -7.33      0.00
    1    6   35     12.41      0.00
    1    1    0   -111.99      0.00
    2    2    0    270.53      0.00
    3    3    0    200.35      0.00
    3    4    0     37.38      0.00
    4    4    0    -18.67      0.00
    4    5    0      4.61      0.00
    5    5    0     42.67      0.00
    5    6    0     30.62      0.00
    6    6    0      5.90      0.00
    5    7    0    -61.93      0.00
    6    7    0     -2.24      0.00
    7    7    0    -33.14      0.00
    6    8    0    -10.88      0.00
    7    8    0     12.20      0.00
    8    8    0    -42.95      0.00
    6    9    0     -5.97      0.00
    7    9    0    -18.02      0.00
    8    9    0     30.23      0.00
    9    9    0    -22.23      0.00
    6   10    0     31.08      0.00
    7   10    0     -2.92      0.00
    8   10    0     31.24      0.00
    9   10    0     16.12      0.00
   10   10    0    -28.20      0.00
    7   11    0    -30.20      0.00
    8   11    0    -17.99      0.00
    9   11    0     48.08      0.00
   10   11    0    -27.25      0.00
   11   11    0   -103.61      0.00
    7   12    0     15.62      0.00
    8   12    0     23.71      0.00
    9   12    0    -64.95      0.00
   10   12    0    -30.50      0.00
   11   12    0      2.69      0.00
   12   12    0     28.89      0.00
    4   13    0      2.88      0.00
    6   13    0    -47.35      0.00
    7   13    0     43.11      0.00
    8   13    0     -9.03      0.00
    9   13    0    -40.85      0.00
   10   13    0     10.65      0.00
   11   13    0     22.03      0.00
   12   13    0      4.61      0.00
   13   13    0    -72.92      0.00
    0   14    0     32.12      0.00
    7   14    0    -40.94      0.00
    8   14    0     11.40      0.00
    9   14    0     -4.40      0.00
   10   14    0    -31.65      0.00
   11   14    0    -55.39      0.00
   12   14    0     19.51      0.00
   13   14    0     10.12      0.00
   14   14    0    -24.43      0.00
    8   15    0     41.15      0.00
    9   15    0    -20.70      0.00
   10   15    0     -8.56      0.00
   11   15    0     23.91      0.00
   12   15    0    -19.48      0.00
   13   15    0     -8.32      0.00
   14   15    0      3.90      0.00
   15   15    0    -39.27      0.00
    8   16    0     -1.50      0.00
    9   16    0     -9.21      0.00
   10   16    0    -10.27      0.00
   11   16    0      9.80      0.00
   12   16    0     18.75      0.00
   13   16    0     -4.33      0.00
   14   16    0      1.37      0.00
    8   17    0    -10.76      0.00
    9   17    0     -3.76      0.00
   10   17    0     -3.96      0.00
   11   17    0     16.43      0.00
   12   17    0    -14.66      0.00
   13   17    0     13.26      0.00
    8   18    0    -22.34      0.00
    9   18    0     -8.09      0.00
   10   18    0     40.57      0.00
   11   18    0     11.16      0.00
    8   19    0     19.35      0.00
    9   19    0      9.61      0.00
   10   19    0     -1.48      0.00
    7   20    0    -15.22      0.00
    8   20    0     -6.57      0.00
    1   21    0     -4.90      0.00
    2   21    0    -15.11      0.00
    3   21    0     74.92      0.00
    4   21    0     13.21      0.00
    5   21    0    -30.50      0.00
    0    1    1   -600.18      0.00
    4    5    1    -25.36      0.00
    5    6    1     11.46      0.00
    5    7    1      9.89      0.00
    6    7    1     50.52      0.00
    6    8    1    -10.74      0.00
    7    8    1     -5.26      0.00
    6    9    1     22.84      0.00
    7    9    1      7.60      0.00
    8    9    1     18.22      0.00
    7   10    1     -7.77      0.00
    8   10    1    -12.48      0.00
    9   10    1     14.64      0.00
    7   11    1     -1.37      0.00
    8   11    1     -2.18      0.00
    9   11    1      7.65      0.00
   10   11    1      5.32      0.00
    7   12    1     -1.72      0.00
    8   12    1    -35.40      0.00
    9   12    1    -11.06      0.00
   10   12    1      9.15      0.00
   11   12    1      3.43      0.00
    6   13    1     11.71      0.00
    7   13    1     -7.31      0.00
    8   13    1     12.55      0.00
    9   13    1     20.95      0.00
   10   13    1      0.29      0.00
   11   13    1     30.68      0.00
   12   13    1     -2.67      0.00
    8   14    1    -36.49      0.00
    9   14    1      1.61      0.00
   10   14    1     -0.98      0.00
   11   14    1    -23.95      0.00
   12   14    1      3.91      0.00
   13   14    1     34.78      0.00
    8   15    1      0.69      0.00
    9   15    1      7.31      0.00
   10   15    1      6.71      0.00
   11   15    1     -7.50      0.00
   12   15    1      1.47      0.00
   13   15    1     21.88      0.00
   14   15    1     12.91      0.00
    8   16    1     33.18      0.00
    9   16    1    -14.81      0.00
   10   16    1     17.18      0.00
   11   16    1    -14.73      0.00
   12   16    1    -14.23      0.00
   13   16    1     -8.83      0.00
   14   16    1     17.88      0.00
    8   17    1    -21.11      0.00
    9   17    1    -20.96      0.00
   10   17    1      7.05      0.00
   11   17    1    -23.78      0.00
   12   17    1     -9.27      0.00
   13   17    1    -17.58      0.00
    8   18    1    -18.10      0.00
    9   18    1     23.41      0.00
   10   18    1     -1.42      0.00
   11   18    1    -14.62      0.00
    8   19    1    -10.95      0.00
    9   19    1    -17.44      0.00
   10   19    1      0.25      0.00
    8   20    1     15.90      0.00
    0   21    1     38.82      0.00
    1   21    1    -49.64      0.00
    2   21    1     22.97      0.00
    3   21    1     45.39      0.00
    4   21    1    -10.43      0.00
    5   21    1    -10.23      0.00
    0    0    2    739.03      0.00
    4    4    2   -116.46      0.00
    4    5    2    -27.99      0.00
    5    5    2    -12.87      0.00
    5    6    2     13.25      0.00
    6    6    2    -48.88      0.00
    5    7    2    -53.89      0.00
    6    7    2      5.76      0.00
    7    7    2     13.52      0.00
    6    8    2     35.48      0.00
    7    8    2     -0.74      0.00
    8    8    2    -22.42      0.00
    7    9    2     -2.98      0.00
    8    9    2    -14.54      0.00
    9    9    2    -22.34      0.00
    7   10    2     -7.94      0.00
    8   10    2     -4.87      0.00
    9   10    2     -2.29      0.00
   10   10    2      9.10      0.00
    7   11    2    -44.39      0.00
    8   11    2     26.99      0.00
    9   11    2     25.39      0.00
   10   11    2      3.24      0.00
   11   11    2     -0.63      0.00
    8   12    2    -20.21      0.00
    9   12    2      4.95      0.00
   10   12    2      3.39      0.00
   11   12    2      9.40      0.00
   12   12    2     20.92      0.00
    7   13    2     18.96      0.00
    8   13    2      4.58      0.00
    9   13    2    -10.61      0.00
   10   13    2     21.73      0.00
   11   13    2     12.05      0.00
   12   13    2     36.36      0.00
   13   13    2    -60.18      0.00
    8   14    2    -10.98      0.00
    9   14    2    -16.55      0.00
   10   14    2     -0.23      0.00
   11   14    2    -10.95      0.00
   12   14    2     19.56      0.00
   13   14    2    -20.43      0.00
   14   14    2    -52.57      0.00
    8   15    2      8.89      0.00
    9   15    2     19.13      0.00
   10   15    2     -3.87      0.00
   11   15    2      7.40      0.00
   12   15    2    -12.69      0.00
   13   15    2     -6.26      0.00
   14   15    2    -16.51      0.00
   15   15    2      9.14      0.00
    8   16    2     13.51      0.00
    9   16    2    -17.62      0.00
   10   16    2      0.75      0.00
   11   16    2     23.48      0.00
   12   16    2    -12.85      0.00
   13   16    2     18.70      0.00
   14   16    2     29.22      0.00
    8   17    2     10.96      0.00
    9   17    2      2.51      0.00
   10   17    2     10.14      0.00
   11   17    2     -7.20      0.00
   12   17    2     15.32      0.00
   13   17    2      5.87      0.00
    8   18    2     26.40      0.00
    9   18    2    -15.68      0.00
   10   18    2      2.58      0.00
   11   18    2     20.23      0.00
    8   19    2     -8.17      0.00
    9   19    2     -5.67      0.00
   10   19    2      6.26      0.00
    8   20    2     13.28      0.00
    1   21    2     11.61      0.00
    2   21    2      9.90      0.00
    3   21    2     19.77      0.00
    4   21    2     -3.48      0.00
    6    7    3     19.31      0.00
    7    8    3    -26.26      0.00
    7    9    3     10.38      0.00
    8    9    3     12.31      0.00
    7   10    3      5.71      0.00
    8   10    3     -2.52      0.00
    9   10    3    -25.48      0.00
    8   11    3    -21.68      0.00
    9   11    3     10.61      0.00
   10   11    3     12.12      0.00
    8   12    3     32.38      0.00
    9   12    3     13.27      0.00
   10   12    3    -10.97      0.00
   11   12    3     -8.08      0.00
    7   13    3    -23.47      0.00
    8   13    3      7.26      0.00
    9   13    3      4.43      0.00
   10   13    3     -6.02      0.00
   11   13    3     -7.13      0.00
   12   13    3     30.20      0.00
    8   14    3      8.24      0.00
    9   14    3     -2.16      0.00
   10   14    3      5.08      0.00
   11   14    3     30.45      0.00
   12   14    3    -13.67      0.00
   13   14    3      2.25      0.00
    8   15    3     27.38      0.00
    9   15    3     -2.15      0.00
   10   15    3      6.78      0.00
   11   15    3     -4.43      0.00
   12   15    3    -18.47      0.00
   13   15    3     24.53      0.00
   14   15    3     -0.76      0.00
    8   16    3      0.65      0.00
    9   16    3     -7.26      0.00
   10   16    3      8.91      0.00
   11   16    3     11.64      0.00
   12   16    3      9.95      0.00
   13   16    3     -4.58      0.00
   14   16    3     13.85      0.00
    8   17    3    -25.58      0.00
    9   17    3      6.05      0.00
   10   17    3     -9.25      0.00
   11   17    3     -3.85      0.00
   12   17    3     27.68      0.00
   13   17    3    -18.79      0.00
    8   18    3     19.23      0.00
    9   18    3      6.49      0.00
   10   18    3     10.97      0.00
   11   18    3    -17.87      0.00
    7   19    3     -3.04      0.00
    8   19    3    -14.39      0.00
    9   19    3     16.20      0.00
   10   19    3    -16.56      0.00
    7   20    3     14.83      0.00
    0   21    3    -27.67      0.00
    1   21    3     -7.23      0.00
    2   21    3     34.18      0.00
    3   21    3      1.83      0.00
    4   21    3    -26.08      0.00
    6    6    4     -2.21      0.00
    7    7    4     29.38      0.00
    7    8    4      3.48      0.00
    8    8    4      2.76      0.00
    7    9    4    -14.20      0.00
    8    9    4     -0.53      0.00
    9    9    4     14.66      0.00
    8   10    4     40.03      0.00
    9   10    4     10.57      0.00
   10   10    4    -34.93      0.00
    8   11    4     -6.48      0.00
    9   11    4     25.10      0.00
   10   11    4     11.23      0.00
   11   11    4     10.78      0.00
    8   12    4      4.26      0.00
    9   12    4      2.27      0.00
   10   12    4      8.31      0.00
   11   12    4    -27.73      0.00
   12   12    4    -15.73      0.00
    7   13    4     31.08      0.00
    8   13    4      3.21      0.00
    9   13    4      4.68      0.00
   10   13    4     10.58      0.00
   11   13    4      7.60      0.00
   12   13    4     17.57      0.00
   13   13    4      4.09      0.00
    9   14    4     13.67      0.00
   10   14    4      3.32      0.00
   11   14    4      1.74      0.00
   12   14    4    -14.73      0.00
   13   14    4    -15.77      0.00
   14   14    4      8.07      0.00
    8   15    4     -8.65      0.00
    9   15    4      6.45      0.00
   10   15    4     -4.41      0.00
   11   15    4     -7.73      0.00
   12   15    4     -2.22      0.00
   13   15    4     -1.11      0.00
   14   15    4      4.76      0.00
   15   15    4      8.58      0.00
    8   16    4    -10.25      0.00
    9   16    4    -11.57      0.00
   10   16    4     -0.22      0.00
   11   16    4     -6.59      0.00
   12   16    4      4.33      0.00
   13   16    4     -9.72      0.00
   14   16    4     12.99      0.00
    7   17    4      3.43      0.00
    8   17    4     -0.61      0.00
    9   17    4     -0.47      0.00
   10   17    4     11.02      0.00
   11   17    4     -3.53      0.00
   12   17    4      1.47      0.00
   13   17    4      2.58      0.00
    7   18    4    -17.13      0.00
    8   18    4     -8.73      0.00
    9   18    4     -2.75      0.00
   10   18    4     -0.85      0.00
   11   18    4     20.23      0.00
    7   19    4     12.96      0.00
    8   19    4    -11.89      0.00
    9   19    4     14.09      0.00
   10   19    4     18.51      0.00
    6   20    4    -10.25      0.00
    7   20    4     -6.83      0.00
    1   21    4     23.52      0.00
    2   21    4     22.37      0.00
    3   21    4    -10.96      0.00
    4   21    4    -13.66      0.00
    8    9    5    -13.39      0.00
    8   10    5     -4.85      0.00
    9   10    5    -12.47      0.00
    8   11    5    -17.64      0.00
    9   11    5    -34.64      0.00
   10   11    5    -34.87      0.00
    9   12    5      2.68      0.00
   10   12    5    -22.03      0.00
   11   12    5    -10.63      0.00
    8   13    5    -26.59      0.00
    9   13    5      9.22      0.00
   10   13    5    -25.05      0.00
   11   13    5    -15.24      0.00
   12   13    5      1.66      0.00
    8   14    5     -1.35      0.00
    9   14    5      4.10      0.00
   10   14    5     20.91      0.00
   11   14    5     -1.14      0.00
   12   14    5      5.68      0.00
   13   14    5    -20.24      0.00
    7   15    5    -39.18      0.00
    8   15    5     22.51      0.00
    9   15    5    -24.69      0.00
   10   15    5      0.97      0.00
   11   15    5     -7.99      0.00
   12   15    5    -15.90      0.00
   13   15    5    -32.04      0.00
   14   15    5      6.28      0.00
    7   16    5    -17.12      0.00
    8   16    5    -17.07      0.00
    9   16    5     20.30      0.00
   10   16    5     -8.24      0.00
   11   16    5    -12.59      0.00
   12   16    5      4.00      0.00
   13   16    5      7.70      0.00
   14   16    5      4.75      0.00
    7   17    5     25.04      0.00
    8   17    5      0.59      0.00
    9   17    5    -30.80      0.00
   10   17    5    -19.83      0.00
   11   17    5     -5.70      0.00
   12   17    5     -9.69      0.00
   13   17    5     -0.21      0.00
    7   18    5    -10.21      0.00
    8   18    5      0.00      0.00
    9   18    5     -5.95      0.00
   10   18    5    -23.71      0.00
   11   18    5     25.31      0.00
    7   19    5    -28.69      0.00
    8   19    5      3.17      0.00
    9   19    5     -4.41      0.00
    5   20    5      3.87      0.00
    6   20    5     16.33      0.00
    7   20    5     -7.38      0.00
    0   21    5     42.20      0.00
    1   21    5     -1.31      0.00
    2   21    5    -10.07      0.00
    3   21    5    -16.42      0.00
    4   21    5     -2.63      0.00
    8    8    6     -9.86      0.00
    8    9    6    -26.16      0.00
    9    9    6      8.13      0.00
    9   10    6    -11.16      0.00
   10   10    6    -10.59      0.00
    9   11    6     15.43      0.00
   10   11    6      0.76      0.00
   11   11    6      3.25      0.00
    9   12    6      6.07      0.00
   10   12    6     -2.77      0.00
   11   12    6     -5.61      0.00
   12   12    6     -4.54      0.00
    8   13    6     14.94      0.00
    9   13    6    -31.72      0.00
   10   13    6    -26.75      0.00
   11   13    6     19.45      0.00
   12   13    6     -4.55      0.00
   13   13    6     28.75      0.00
    8   14    6     -7.15      0.00
    9   14    6      8.97      0.00
   10   14    6     -2.35      0.00
   11   14    6    -21.86      0.00
   12   14    6    -20.58      0.00
   13   14    6     -2.87      0.00
   14   14    6     29.14      0.00
    8   15    6     -9.26      0.00
    9   15    6     21.62      0.00
   10   15    6      8.06      0.00
   11   15    6     -0.73      0.00
   12   15    6     32.00      0.00
   13   15    6    -24.04      0.00
   14   15    6     28.89      0.00
   15   15    6      6.17      0.00
    8   16    6    -16.09      0.00
    9   16    6      4.58      0.00
   10   16    6     18.80      0.00
   11   16    6     17.22      0.00
   12   16    6      7.48      0.00
   13   16    6     -6.98      0.00
   14   16    6    -31.59      0.00
    8   17    6    -24.96      0.00
    9   17    6      8.54      0.00
   10   17    6     -4.67      0.00
   11   17    6    -13.09      0.00
   12   17    6      9.18      0.00
    8   18    6     19.79      0.00
    9   18    6     -3.40      0.00
   10   18    6     -8.85      0.00
   11   18    6      6.21      0.00
    7   19    6      2.01      0.00
    8   19    6      9.01      0.00
    9   19    6     24.63      0.00
    4   20    6     -9.26      0.00
    5   20    6    -11.17      0.00
    6   20    6    -13.70      0.00
    7   20    6     -3.14      0.00
    1   21    6    -27.20      0.00
    3   21    6    -14.77      0.00
    9   10    7     -5.27      0.00
    9   11    7     22.90      0.00
   10   11    7     17.60      0.00
    9   12    7      4.72      0.00
   10   12    7     -7.44      0.00
   11   12    7     20.30      0.00
    8   13    7      1.36      0.00
    9   13    7      3.36      0.00
   10   13    7      2.92      0.00
   11   13    7    -10.91      0.00
   12   13    7    -14.51      0.00
    8   14    7     -8.54      0.00
    9   14    7     11.89      0.00
   10   14    7     20.11      0.00
   11   14    7     -8.23      0.00
   12   14    7     17.62      0.00
   13   14    7      0.88      0.00
    8   15    7      3.08      0.00
    9   15    7    -13.66      0.00
   10   15    7    -13.58      0.00
   11   15    7      4.97      0.00
   12   15    7     14.46      0.00
   13   15    7    -43.67      0.00
   14   15    7     10.48      0.00
    8   16    7     13.09      0.00
    9   16    7     -3.89      0.00
   10   16    7      6.81      0.00
   11   16    7     22.33      0.00
   12   16    7     -4.42      0.00
   13   16    7     14.00      0.00
    8   17    7     -4.67      0.00
    9   17    7     18.93      0.00
   10   17    7    -18.52      0.00
   11   17    7    -11.68      0.00
   12   17    7      4.47      0.00
    8   18    7     40.70      0.00
    9   18    7    -16.08      0.00
   10   18    7      7.02      0.00
   11   18    7     18.28      0.00
    7   19    7     18.80      0.00
    8   19    7     -6.77      0.00
    9   19    7    -11.21      0.00
    3   20    7     -5.02      0.00
    4   20    7     25.92      0.00
    5   20    7     49.58      0.00
    6   20    7    -23.50      0.00
    7   20    7    -14.94      0.00
    0   21    7     32.45      0.00
    2   21    7      9.22      0.00
    3   21    7    -14.22      0.00
    9    9    8     21.62      0.00
    9   10    8     -9.32      0.00
   10   10    8     33.34      0.00
    2   11    8    -36.49      0.00
    9   11    8     -2.05      0.00
   10   11    8    -14.32      0.00
   11   11    8    -18.64      0.00
    9   12    8      0.66      0.00
   10   12    8     20.96      0.00
   11   12    8     20.49      0.00
   12   12    8    -24.46      0.00
    8   13    8    -11.41      0.00
    9   13    8      4.33      0.00
   10   13    8    -12.43      0.00
   11   13    8     -4.23      0.00
   12   13    8     15.66      0.00
   13   13    8     45.34      0.00
    8   14    8    -13.17      0.00
    9   14    8     30.53      0.00
   10   14    8    -10.54      0.00
   11   14    8      1.63      0.00
   12   14    8     18.95      0.00
   13   14    8      0.79      0.00
   14   14    8     29.87      0.00
    8   15    8      3.53      0.00
    9   15    8      0.33      0.00
   10   15    8     -9.13      0.00
   11   15    8      9.11      0.00
   12   15    8     15.37      0.00
   13   15    8     11.21      0.00
   14   15    8      6.34      0.00
    8   16    8     28.34      0.00
    9   16    8      0.77      0.00
   10   16    8     14.08      0.00
   11   16    8     15.99      0.00
   12   16    8     -7.40      0.00
   13   16    8    -18.61      0.00
    8   17    8     22.31      0.00
    9   17    8     11.46      0.00
   10   17    8    -18.84      0.00
   11   17    8    -26.66      0.00
   12   17    8     -9.76      0.00
    8   18    8     17.27      0.00
    9   18    8      0.86      0.00
   10   18    8      3.53      0.00
   11   18    8    -11.29      0.00
    7   19    8      2.14      0.00
    8   19    8      1.40      0.00
    9   19    8      9.88      0.00
    3   20    8     18.98      0.00
    4   20    8      4.47      0.00
    5   20    8      2.72      0.00
    6   20    8     -2.13      0.00
    1   21    8     -4.12      0.00
    2   21    8     32.47      0.00
    9   10    9     17.20      0.00
    9   11    9      2.81      0.00
   10   11    9    -19.82      0.00
   10   12    9     -5.41      0.00
   11   12    9      5.33      0.00
   10   13    9      1.90      0.00
   11   13    9     -5.22      0.00
   12   13    9    -13.64      0.00
    9   14    9     18.56      0.00
   10   14    9    -22.53      0.00
   11   14    9    -39.37      0.00
   12   14    9      6.46      0.00
   13   14    9    -17.98      0.00
    9   15    9     -7.95      0.00
   10   15    9    -11.70      0.00
   11   15    9     15.05      0.00
   12   15    9     12.51      0.00
   13   15    9     -3.59      0.00
   14   15    9     -3.99      0.00
    9   16    9    -37.91      0.00
   10   16    9      3.87      0.00
   11   16    9     21.25      0.00
   12   16    9     21.80      0.00
   13   16    9      5.75      0.00
    8   17    9     -7.78      0.00
    9   17    9     11.17      0.00
   10   17    9     -6.63      0.00
   11   17    9      6.14      0.00
   12   17    9      7.15      0.00
    8   18    9     24.98      0.00
    9   18    9      1.87      0.00
   10   18    9     14.66      0.00
    7   19    9     23.88      0.00
    8   19    9     -1.55      0.00
    3   20    9    -59.90      0.00
    4   20    9    -37.77      0.00
    5   20    9     33.24      0.00
    6   20    9     -1.09      0.00
    9   10   10    -11.53      0.00
   10   10   10      9.20      0.00
    8   11   10     28.92      0.00
   10   11   10     18.65      0.00
   11   11   10     22.91      0.00
   10   12   10     28.89      0.00
   11   12   10     21.47      0.00
   12   12   10    -12.09      0.00
   10   13   10    -13.37      0.00
   11   13   10      1.48      0.00
   12   13   10      2.80      0.00
   13   13   10      3.43      0.00
    9   14   10     39.92      0.00
   10   14   10    -14.95      0.00
   11   14   10     -2.14      0.00
   12   14   10     -1.28      0.00
   13   14   10     -9.79      0.00
   14   14   10     13.93      0.00
    9   15   10    -15.29      0.00
   10   15   10    -17.56      0.00
   11   15   10     -9.70      0.00
   12   15   10      3.17      0.00
   13   15   10     -4.05      0.00
   14   15   10     -6.06      0.00
    9   16   10     35.89      0.00
   10   16   10     23.16      0.00
   11   16   10      3.48      0.00
   12   16   10    -11.53      0.00
   13   16   10     -4.20      0.00
    9   17   10    -16.59      0.00
   10   17   10    -23.87      0.00
   11   17   10    -20.22      0.00
   12   17   10    -20.68      0.00
    9   18   10     -8.64      0.00
   10   18   10     -6.88      0.00
    6   19   10    -41.78      0.00
    7   19   10     15.82      0.00
    8   19   10      5.59      0.00
    0   20   10      0.75      0.00
    1   20   10    -41.25      0.00
    3   20   10    -14.75      0.00
    4   20   10     25.29      0.00
    5   20   10      4.54      0.00
   11   12   11      0.77      0.00
   11   13   11    -13.65      0.00
   12   13   11    -22.93      0.00
    9   14   11      4.72      0.00
   10   14   11    -43.28      0.00
   11   14   11      1.79      0.00
   12   14   11     28.92      0.00
   13   14   11      2.00      0.00
    9   15   11     38.86      0.00
   10   15   11      1.74      0.00
   11   15   11     16.93      0.00
   12   15   11     29.82      0.00
   13   15   11    -19.17      0.00
   14   15   11    -15.20      0.00
    9   16   11     11.77      0.00
   10   16   11    -20.83      0.00
   11   16   11    -14.48      0.00
   12   16   11      7.17      0.00
   13   16   11      3.35      0.00
    6   17   11    -15.84      0.00
    9   17   11     23.57      0.00
   10   17   11     -0.60      0.00
   11   17   11      1.50      0.00
    9   18   11     -8.12      0.00
   10   18   11     -8.09      0.00
    6   19   11      5.36      0.00
    7   19   11    -30.33      0.00
    8   19   11     -9.74      0.00
    1   20   11     -1.50      0.00
    2   20   11     48.78      0.00
    3   20   11     26.92      0.00
    4   20   11    -12.14      0.00
    5   20   11     -1.38      0.00
   11   11   12      2.72      0.00
    6   12   12     47.14      0.00
   11   12   12      3.35      0.00
   12   12   12     -0.10      0.00
   11   13   12     -0.75      0.00
   12   13   12    -14.86      0.00
   13   13   12     -7.38      0.00
   10   14   12    -17.08      0.00
   11   14   12     17.12      0.00
   12   14   12    -14.57      0.00
   13   14   12    -10.25      0.00
   14   14   12     -0.73      0.00
   10   15   12    -53.86      0.00
   11   15   12     -2.42      0.00
   12   15   12     -1.52      0.00
   13   15   12      2.96      0.00
    9   16   12     -9.18      0.00
   10   16   12     30.79      0.00
   11   16   12     24.00      0.00
   12   16   12      4.70      0.00
    9   17   12     -4.52      0.00
   10   17   12    -22.74      0.00
   11   17   12    -19.76      0.00
    9   18   12     -4.74      0.00
    5   19   12    -20.72      0.00
    6   19   12     -2.87      0.00
    7   19   12      0.23      0.00
    0   20   12      4.12      0.00
    1   20   12      0.83      0.00
    2   20   12     10.29      0.00
    3   20   12     -6.45      0.00
    4   20   12     -3.57      0.00
    5   12   13      2.70      0.00
   11   12   13     -5.39      0.00
   11   13   13     18.42      0.00
   12   13   13     37.12      0.00
   11   14   13     22.70      0.00
   12   14   13     -0.91      0.00
   13   14   13      8.24      0.00
   10   15   13      0.99      0.00
   11   15   13    -37.35      0.00
   12   15   13     24.24      0.00
   13   15   13      0.39      0.00
    7   16   13    -17.52      0.00
   10   16   13    -19.33      0.00
   11   16   13      2.33      0.00
   12   16   13     27.19      0.00
    9   17   13     20.48      0.00
   10   17   13     51.30      0.00
    9   18   13     -2.25      0.00
    4   19   13    -24.00      0.00
    5   19   13     19.02      0.00
    6   19   13      2.71      0.00
    1   20   13     -6.95      0.00
    2   20   13    -25.40      0.00
    3   20   13    -16.24      0.00
    8    8   14    -12.53      0.00
   11   11   14     35.89      0.00
    4   12   14     15.10      0.00
   12   12   14      3.73      0.00
   12   13   14      7.86      0.00
   13   13   14     13.41      0.00
   12   14   14      8.12      0.00
   13   14   14      8.20      0.00
   14   14   14    -37.53      0.00
    9   15   14      1.85      0.00
   10   15   14    -35.69      0.00
   11   15   14     -8.02      0.00
   12   15   14    -15.73      0.00
   13   15   14    -15.40      0.00
    9   16   14     -8.74      0.00
   10   16   14    -26.24      0.00
   11   16   14      1.66      0.00
   12   16   14    -21.75      0.00
    9   17   14    -13.68      0.00
   10   17   14      0.61      0.00
    1   19   14     34.46      0.00
    2   19   14     39.60      0.00
    3   19   14      4.85      0.00
    4   19   14     29.79      0.00
    5   19   14     10.88      0.00
    6   19   14    -29.42      0.00
    0   20   14     11.95      0.00
    7    8   15     17.42      0.00
    3   12   15    -10.89      0.00
   12   13   15     -2.21      0.00
   12   14   15     19.67      0.00
   13   14   15    -11.09      0.00
    8   15   15     -0.06      0.00
    9   15   15     52.12      0.00
   10   15   15      7.39      0.00
   11   15   15    -22.94      0.00
   12   15   15      2.96      0.00
    8   16   15     -4.10      0.00
    9   16   15      1.57      0.00
   10   16   15    -16.21      0.00
   11   16   15     -2.75      0.00
    8   17   15    -10.12      0.00
    9   17   15     -9.42      0.00
   10   17   15    -15.05      0.00
    8   18   15     11.65      0.00
    0   19   15    -52.13      0.00
    1   19   15     30.86      0.00
    2   19   15     34.98      0.00
    3   19   15     -0.25      0.00
    4   19   15     -5.86      0.00
    5   19   15    -21.25      0.00
    0    0   16     -3.84      0.00
    7    7   16      7.58      0.00
    6    8   16    -12.05      0.00
   12   12   16     20.32      0.00
   12   13   16    -22.22      0.00
   13   13   16     12.21      0.00
   12   14   16    -13.93      0.00
   13   14   16      8.38      0.00
    7   15   16     -8.25      0.00
    8   15   16     -8.38      0.00
    9   15   16     15.18      0.00
   10   15   16      2.26      0.00
   11   15   16     18.03      0.00
   12   15   16     11.38      0.00
    7   16   16    -11.77      0.00
    8   16   16      2.87      0.00
    9   16   16     22.43      0.00
   10   16   16      7.13      0.00
   11   16   16      9.03      0.00
    8   17   16    -19.08      0.00
    9   17   16     12.27      0.00
    7   18   16      2.93      0.00
    1   19   16      9.70      0.00
    2   19   16      8.23      0.00
    3   19   16     -7.19      0.00
    4   19   16     17.59      0.00
    6    7   17    -10.03      0.00
    5    8   17     -9.68      0.00
    0   11   17    -19.76      0.00
   12   13   17    -11.25      0.00
   12   14   17     -4.81      0.00
   13   14   17     -6.46      0.00
    6   15   17     12.29      0.00
    7   15   17    -19.50      0.00
    8   15   17     12.53      0.00
    9   15   17    -31.07      0.00
   11   15   17    -10.35      0.00
   12   15   17      0.87      0.00
    4   16   17      6.45      0.00
    6   16   17     12.42      0.00
    7   16   17    -17.60      0.00
    8   16   17    -23.52      0.00
    9   16   17    -13.48      0.00
   10   16   17      5.91      0.00
    6   17   17      7.46      0.00
    7   17   17     -4.74      0.00
    8   17   17      1.92      0.00
    0   19   17     13.42      0.00
    1   19   17    -12.38      0.00
    2   19   17     11.22      0.00
    0    0   18     28.00      0.00
    6    6   18      5.25      0.00
    5    7   18     18.69      0.00
    4    8   18    -32.28      0.00
   13   13   18     -0.19      0.00
   12   14   18    -12.32      0.00
    5   15   18      1.04      0.00
    6   15   18     24.26      0.00
    7   15   18     19.77      0.00
    5   16   18     38.12      0.00
    6   16   18     -5.48      0.00
    7   16   18      1.37      0.00
    8   16   18    -10.41      0.00
    9   16   18     -2.84      0.00
   10   16   18     -7.13      0.00
    5   17   18      8.11      0.00
    6   17   18     30.83      0.00
    7   17   18     -7.06      0.00
    8   17   18      5.26      0.00
    5   18   18    -28.19      0.00
    5    6   19    -33.55      0.00
    4    7   19     -3.12      0.00
   12   14   19      5.34      0.00
    3   15   19    -43.81      0.00
    4   15   19     -6.79      0.00
    5   15   19    -35.49      0.00
    4   16   19     19.88      0.00
    5   16   19     -2.35      0.00
    6   16   19     -8.73      0.00
    7   16   19     12.49      0.00
    8   16   19     -8.72      0.00
    9   16   19    -11.27      0.00
    4   17   19    -35.26      0.00
    5   17   19    -20.67      0.00
    6   17   19      4.48      0.00
    7   17   19      4.53      0.00
    4   18   19     -7.40      0.00
    0    0   20     19.88      0.00
    5    5   20    -28.58      0.00
    4    6   20     -5.06      0.00
   12   13   20      3.33      0.00
   11   14   20     10.96      0.00
    3   15   20    -12.75      0.00
    4   15   20    -48.44      0.00
   10   15   20     11.17      0.00
    3   16   20     17.64      0.00
    4   16   20    -11.46      0.00
    5   16   20    -11.06      0.00
    6   16   20     12.64      0.00
    7   16   20    -33.85      0.00
    8   16   20    -23.95      0.00
    3   17   20     52.36      0.00
    4   17   20     16.94      0.00
    5   17   20    -22.62      0.00
    6   17   20     22.66      0.00
    0   18   20     13.53      0.00
    1   18   20    -22.06      0.00
    2   18   20     19.18      0.00
    4    5   21     12.00      0.00
    7   13   21    -24.47      0.00
   11   13   21    -16.38      0.00
   12   13   21      8.66      0.00
   11   14   21     -1.84      0.00
    1   15   21    -63.65      0.00
    2   15   21     -3.41      0.00
    2   16   21    -93.55      0.00
    3   16   21     18.64      0.00
    4   16   21     36.61      0.00
    5   16   21    -20.45      0.00
    6   16   21    -20.83      0.00
    7   16   21     -8.12      0.00
    2   17   21    -40.41      0.00
    3   17   21     -1.50      0.00
    4   17   21     11.04      0.00
    5   17   21     -4.74      0.00
    0    0   22     29.33      0.00
   12   12   22      5.11      0.00
   11   13   22    -21.21      0.00
    0   14   22     20.34      0.00
   10   14   22    -14.89      0.00
    1   15   22     30.66      0.00
    2   15   22     40.63      0.00
    0   16   22     -0.44      0.00
    1   16   22    -48.74      0.00
    2   16   22     20.60      0.00
    3   16   22    -55.03      0.00
    4   16   22     22.76      0.00
    5   16   22    -11.87      0.00
    6   16   22     -5.48      0.00
    1   17   22     17.93      0.00
    2   17   22     20.34      0.00
    3   17   22    -15.75      0.00
   11   12   23    -19.68      0.00
   10   13   23      5.33      0.00
    1   14   23     27.75      0.00
    9   14   23     -9.87      0.00
    0   15   23    -10.61      0.00
    1   15   23      4.03      0.00
    2   15   23     38.88      0.00
    8   15   23     -9.81      0.00
    1   16   23    -30.11      0.00
    2   16   23     30.21      0.00
    3   16   23     -6.22      0.00
    4   16   23     -7.98      0.00
    5   16   23    -12.53      0.00
    0   17   23     20.89      0.00
    0    0   24     54.66      0.00
    1    1   24    -12.45      0.00
   11   11   24     33.85      0.00
   10   12   24      9.08      0.00
   11   12   24      0.66      0.00
    9   13   24      1.35      0.00
   10   13   24      5.78      0.00
    0   14   24      3.03      0.00
    1   14   24     -1.63      0.00
    8   14   24     -2.75      0.00
    1   15   24    -10.31      0.00
    0   16   24    -20.27      0.00
    1   16   24    -29.26      0.00
    2   16   24    -12.63      0.00
    3   16   24      2.01      0.00
    4   16   24      4.22      0.00
    0    1   25    -29.80      0.00
    0    3   25     -9.37      0.00
   10   11   25     -8.27      0.00
    9   12   25     -5.68      0.00
   10   12   25     25.72      0.00
    8   13   25      5.82      0.00
    9   13   25     -9.22      0.00
    1   14   25     12.48      0.00
    7   14   25     10.14      0.00
    0   15   25      0.61      0.00
    1   15   25      5.06      0.00
    2   15   25      7.64      0.00
    5   15   25      8.62      0.00
    1   16   25     -8.19      0.00
    0    0   26    102.99      0.00
    1    1   26     -6.68      0.00
   10   10   26     -6.52      0.00
    9   11   26     30.73      0.00
   10   11   26    -12.04      0.00
    8   12   26     20.70      0.00
    9   12   26    -13.30      0.00
    7   13   26     10.10      0.00
    8   13   26      1.00      0.00
    0   14   26     30.52      0.00
    1   14   26    -22.00      0.00
    2   14   26     26.05      0.00
    5   14   26      5.92      0.00
    6   14   26     -1.10      0.00
    1   15   26     -2.19      0.00
    2   15   26    -10.71      0.00
    3   15   26     -9.74      0.00
    0    1   27    -10.62      0.00
    9   10   27    -23.35      0.00
    8   11   27     12.83      0.00
    9   11   27      5.23      0.00
   10   11   27     -1.76      0.00
    7   12   27    -16.14      0.00
    8   12   27      1.57      0.00
    5   13   27     11.00      0.00
    6   13   27     22.45      0.00
    7   13   27    -14.42      0.00
    1   14   27     14.11      0.00
    3   14   27     15.85      0.00
    4   14   27    -17.45      0.00
    5   14   27     -1.83      0.00
    0    0   28     64.77      0.00
    1    1   28     -7.51      0.00
    9    9   28    -30.67      0.00
    8   10   28      8.40      0.00
    9   10   28    -21.87      0.00
   10   10   28    -10.89      0.00
    7   11   28    -10.04      0.00
    8   11   28     35.42      0.00
    9   11   28      2.05      0.00
    5   12   28    -17.68      0.00
    6   12   28     -2.82      0.00
    7   12   28      1.86      0.00
    3   13   28     28.00      0.00
    4   13   28     28.21      0.00
    5   13   28    -15.86      0.00
    0   14   28    -36.59      0.00
    1   14   28     -2.60      0.00
    2   14   28     -0.32      0.00
    0    1   29    -18.26      0.00
    1    2   29     18.84      0.00
    8    9   29    -14.29      0.00
    7   10   29     -7.59      0.00
    8   10   29     14.65      0.00
    9   10   29      1.36      0.00
    5   11   29     -6.15      0.00
    6   11   29      2.14      0.00
    7   11   29     12.38      0.00
    4   12   29    -34.72      0.00
    5   12   29     -5.23      0.00
    6   12   29     -1.14      0.00
    0   13   29     -3.49      0.00
    2   13   29      5.63      0.00
    3   13   29    -14.89      0.00
    0    0   30     45.30      0.00
    1    1   30     -7.43      0.00
    0    2   30    -14.79      0.00
    1    2   30     19.50      0.00
    2    2   30    -21.99      0.00
    8    8   30     12.33      0.00
    7    9   30     -3.15      0.00
    8    9   30      4.95      0.00
    9    9   30     16.47      0.00
    5   10   30     21.83      0.00
    6   10   30      5.43      0.00
    7   10   30    -12.73      0.00
    8   10   30      8.14      0.00
    4   11   30      2.33      0.00
    5   11   30     17.26      0.00
    6   11   30     22.42      0.00
    0   12   30     67.59      0.00
    2   12   30    -29.12      0.00
    3   12   30     11.25      0.00
    4   12   30     -4.08      0.00
    0    1   31     -2.42      0.00
    1    2   31      2.50      0.00
    6    8   31     -9.34      0.00
    7    8   31     -3.61      0.00
    5    9   31     13.64      0.00
    6    9   31      9.58      0.00
    7    9   31      4.33      0.00
    4   10   31      4.22      0.00
    5   10   31     27.21      0.00
    6   10   31    -10.10      0.00
    0   11   31      7.45      0.00
    3   11   31    -17.76      0.00
    4   11   31     10.45      0.00
    0    0   32    -18.02      0.00
    1    1   32    -10.99      0.00
    0    2   32     -2.58      0.00
    1    2   32      0.54      0.00
    2    2   32     11.54      0.00
    1    3   32     11.12      0.00
    2    3   32     13.24      0.00
    3    3   32    -18.41      0.00
    6    7   32     35.27      0.00
    7    7   32      5.40      0.00
    0    8   32     14.70      0.00
    5    8   32    -31.11      0.00
    6    8   32     -3.83      0.00
    7    8   32      3.05      0.00
    4    9   32    -13.38      0.00
    5    9   32    -31.08      0.00
    6    9   32     -5.40      0.00
    0   10   32    -16.30      0.00
    3   10   32     37.11      0.00
    4   10   32    -24.10      0.00
    1   11   32      6.46      0.00
    0    1   33     30.22      0.00
    1    2   33      0.15      0.00
    0    3   33     -7.27      0.00
    1    3   33     16.50      0.00
    2    3   33      8.25      0.00
    5    6   33     15.46      0.00
    0    7   33     23.13      0.00
    5    7   33    -25.09      0.00
    6    7   33     19.31      0.00
    4    8   33     -2.54      0.00
    5    8   33      0.36      0.00
    6    8   33     -8.17      0.00
    0    9   33    -13.91      0.00
    3    9   33    -32.47      0.00
    4    9   33    -13.88      0.00
    1   10   33     -4.17      0.00
    0    0   34     56.60      0.00
    1    1   34     -8.56      0.00
    0    2   34    -32.55      0.00
    1    2   34     16.15      0.00
    2    2   34    -12.16      0.00
    1    3   34      9.77      0.00
    2    3   34     -4.33      0.00
    3    3   34     40.07      0.00
    3    4   34     -5.56      0.00
    4    4   34    -22.38      0.00
    5    5   34     21.57      0.00
    0    6   34      3.83      0.00
    4    6   34     -0.50      0.00
    5    6   34     -8.50      0.00
    6    6   34      6.30      0.00
    3    7   34     31.36      0.00
    4    7   34     17.33      0.00
    5    7   34    -26.95      0.00
    0    8   34     -5.91      0.00
    2    8   34     20.90      0.00
    3    8   34      3.20      0.00
    0    1   35     -6.55      0.00
    1    2   35     -5.11      0.00
    0    3   35     24.96      0.00
    1    3   35     25.73      0.00
    2    3   35    -23.74      0.00
    1    4   35     -2.57      0.00
    2    4   35      1.96      0.00
    3    4   35    -15.04      0.00
    0    5   35    -13.08      0.00
    3    5   35    -21.96      0.00
    4    5   35     -2.98      0.00
    2    6   35     -1.92      0.00
    3    6   35     17.89      0.00
    4    6   35     11.38      0.00
    0    7   35     26.53      0.00
    1    7   35      7.23      0.00
    2    7   35    -30.61      0.00
    0    0    0      0.00      0.00
# SQUEEZE RESULTS (Version =  70515)
# Note: Data are Listed for all Voids in the P1 Unit Cell
# i.e. Centre of Gravity, Solvent Accessible Volume,
# Recovered number of Electrons in the Void and
# Details about the Squeezed Material
loop_
  _platon_squeeze_void_nr
  _platon_squeeze_void_average_x
  _platon_squeeze_void_average_y
  _platon_squeeze_void_average_z
  _platon_squeeze_void_volume
  _platon_squeeze_void_count_electrons
  _platon_squeeze_void_content
   1 -0.011  0.395 -0.003      8694      4249 ' '
# Missing Reflections Below sin(th)/lambda = 0.25
loop_
  _platon_missing_refln_index_h
  _platon_missing_refln_index_k
  _platon_missing_refln_index_l
  _platon_missing_refln_theta
    1    1    0     1.459
    2    2    0     2.919
    3    3    0     4.381
    3    4    0     5.165
    4    4    0     5.845
    4    5    0     6.620
    5    5    0     7.314
    5    6    0     8.083
    6    6    0     8.787
    5    7    0     8.909
    6    7    0     9.554
    0    1    1     1.192
    4    5    1     6.647
    5    6    1     8.105
    5    7    1     8.930
    6    7    1     9.573
    0    0    2     1.195
    4    4    2     5.967
    4    5    2     6.728
    5    5    2     7.412
    5    6    2     8.172
    6    6    2     8.869
    5    7    2     8.990
    6    7    2     9.630
    6    7    3     9.724
    6    6    4     9.111
    0    0   16     9.602
_platon_squeeze_void_probe_radius                  1.20
_platon_squeeze_details
)
TITL g2yy_5xnewP 4/m n c    R = 0.37
CELL   19.1326   19.1326   33.0390     90.00     90.00     90.00
SPGR P4/mnc
# Solvent Accessible Volume =    8770.2
# Electrons Found in S.A.V. =    4161.4
# Note: Atoms in Void as Cxxx and Qxxx all others
C101 0.041 0.344 0.502 !       3.97 eA-3
C102 0.411 0.156-0.002 !       3.88 eA-3
C103 0.476 0.016-0.001 !       3.86 eA-3
C104 0.816 0.125 0.390 !       3.82 eA-3
C105 0.429 0.062 0.002 !       3.75 eA-3
C106 0.172 0.783 0.355 !       3.70 eA-3
Q107 0.502 0.188 0.499 !       3.69 eA-3
C108 0.142 0.312 0.499 !       3.67 eA-3
Q109 0.122 0.297 0.002 !       3.61 eA-3
Q110 0.877 0.203 0.002 !       3.59 eA-3
C111 0.134 0.577 0.455 !       3.57 eA-3
Q112 0.456 0.512 0.322 !       3.56 eA-3
Q113 0.502 0.391 0.498 !       3.51 eA-3
C114 0.526 0.078 0.080 !       3.44 eA-3
C115 0.784 0.794 0.361 !       3.41 eA-3
C116 0.829 0.684 0.307 !       3.41 eA-3
C117 0.205 0.188 0.497 !       3.40 eA-3
C118 0.017 0.626 0.042 !       3.38 eA-3
C119 0.207 0.360 0.385 !       3.31 eA-3
C120 0.292 0.387 0.412 !       3.30 eA-3
C121 0.708 0.613 0.588 !       3.30 eA-3
C122 0.708 0.606 0.417 !       3.30 eA-3
C123 0.154 0.893 0.421 !       3.29 eA-3
C124 0.137 0.484 0.502 !       3.26 eA-3
C125 0.829 0.391 0.499 !       3.25 eA-3
C126 0.975 0.375 0.499 !       3.24 eA-3
C127 0.210 0.356 0.320 !       3.24 eA-3
C128 0.528 0.032 0.016 !       3.24 eA-3
C129 0.669 0.989 0.443 !       3.23 eA-3
C130 0.726 0.686 0.024 !       3.21 eA-3
C131 0.776 0.266 0.448 !       3.21 eA-3
Q132 0.924 0.279 0.295 !       3.17 eA-3
C133 0.475 0.014 0.045 !       3.17 eA-3
C134 0.584 0.047-0.002 !       3.08 eA-3
C135 0.922 0.484-0.002 !       3.06 eA-3
Q136 0.716 0.672 0.435 !       3.06 eA-3
C137 0.541 0.094 0.001 !       3.05 eA-3
C138 0.704 0.670 0.588 !       3.04 eA-3
C139 0.884 0.796 0.929 !       3.03 eA-3
C140 0.183 0.219 0.929 !       3.03 eA-3
C141 0.867 0.454 0.482 !       3.02 eA-3
Q142 0.318 0.030 0.033 !       3.02 eA-3
C143 0.486 0.685 0.099 !       2.98 eA-3
C144 0.745 0.138 0.400 !       2.98 eA-3
C145 0.306 0.955 0.456 !       2.97 eA-3
C146 0.302 0.734 0.056 !       2.96 eA-3
C147 0.204 0.842 0.362 !       2.92 eA-3
C148 0.500 0.501 0.305 !       2.90 eA-3
C149 0.550 0.028 0.453 !       2.90 eA-3
C150 0.580 0.078 0.031 !       2.90 eA-3
C151 0.458 0.640 0.073 !       2.89 eA-3
C152 0.187 0.406-0.001 !       2.86 eA-3
C153 0.747 0.700 0.396 !       2.86 eA-3
C154 0.140 0.277 0.467 !       2.84 eA-3
C155 0.138 0.377 0.448 !       2.81 eA-3
C156 0.514 0.030 0.428 !       2.81 eA-3
C157 0.483 0.921 0.484 !       2.81 eA-3
C158 0.907 0.248 0.330 !       2.78 eA-3
C159 0.661 0.935 0.467 !       2.76 eA-3
C160 0.600 0.250-0.003 !       2.76 eA-3
C161 0.916 0.863 0.235 !       2.75 eA-3
C162 0.954 0.643 0.028 !       2.75 eA-3
C163 0.075 0.559 0.437 !       2.75 eA-3
C164 0.830 0.229 0.470 !       2.75 eA-3
Q165 0.460 0.281 0.502 !       2.75 eA-3
C166 0.360 0.183 0.469 !       2.75 eA-3
C167 0.451 0.032 0.409 !       2.72 eA-3
C168 0.570 0.826 0.073 !       2.70 eA-3
Q169 0.015 0.049 0.075 !       2.68 eA-3
C170 0.436 0.671 0.104 !       2.68 eA-3
C171 0.031 0.031 0.240 !       2.67 eA-3
Q172 0.935 0.109-0.003 !       2.65 eA-3
C173 0.283 0.028 0.310 !       2.63 eA-3
C174 0.286 0.686 0.064 !       2.63 eA-3
C175 0.525 0.121 0.038 !       2.62 eA-3
C176 0.715 0.610 0.368 !       2.62 eA-3
C177 0.115 0.097 0.272 !       2.60 eA-3
C178 0.934 0.031 0.500 !       2.60 eA-3
Q179 0.483 0.813 0.459 !       2.60 eA-3
C180 0.798 0.369 0.025 !       2.59 eA-3
C181 0.155 0.197 0.296 !       2.59 eA-3
C182 0.619 0.769 0.014 !       2.58 eA-3
C183 0.326 0.857 0.469 !       2.57 eA-3
C184 0.150 0.266 0.500 !       2.56 eA-3
C185 0.934 0.863 0.266 !       2.56 eA-3
C186 0.284 0.327 0.124 !       2.54 eA-3
C187 0.857 0.129 0.270 !       2.54 eA-3
C188 0.750 0.750 0.124 !       2.54 eA-3
C189 0.270 0.203 0.366 !       2.53 eA-3
C190 0.218 0.902 0.481 !       2.53 eA-3
C191 0.795 0.372 0.055 !       2.52 eA-3
C192 0.061 0.749 0.327 !       2.51 eA-3
C193 0.891 0.125 0.500 !       2.51 eA-3
C194 0.263 0.778 0.039 !       2.51 eA-3
C195 0.308 0.825 0.055 !       2.50 eA-3
C196 0.201 0.300 0.112 !       2.50 eA-3
C197 0.708 0.656 0.076 !       2.50 eA-3
C198 0.266 0.063 0.505 !       2.48 eA-3
C199 0.808 0.127 0.148 !       2.48 eA-3
)
;
_shelx_shelxl_version_number     2014/7
_olex2_submission_special_instructions 'No special instructions were received'
loop_
_space_group_symop_operation_xyz
'x, y, z'
'-x, -y, z'
'-y, x, z'
'y, -x, z'
'-x+1/2, y+1/2, -z+1/2'
'x+1/2, -y+1/2, -z+1/2'
'y+1/2, x+1/2, -z+1/2'
'-y+1/2, -x+1/2, -z+1/2'
'-x, -y, -z'
'x, y, -z'
'y, -x, -z'
'-y, x, -z'
'x-1/2, -y-1/2, z-1/2'
'-x-1/2, y-1/2, z-1/2'
'-y-1/2, -x-1/2, z-1/2'
'y-1/2, x-1/2, z-1/2'
loop_
_atom_site_label
_atom_site_type_symbol
_atom_site_fract_x
_atom_site_fract_y
_atom_site_fract_z
_atom_site_U_iso_or_equiv
_atom_site_adp_type
_atom_site_occupancy
_atom_site_site_symmetry_order
_atom_site_calc_flag
_atom_site_refinement_flags_posn
_atom_site_refinement_flags_adp
_atom_site_refinement_flags_occupancy
_atom_site_disorder_assembly
_atom_site_disorder_group
Zr1 Zr 0.4541(2) 0.3773(2) 0.5000 0.0208(15) Uani 1 2 d S TU P . .
Zr2 Zr 0.5000 0.5000 0.42610(13) 0.0101(17) Uani 1 4 d S TU P . .
O5 O 0.4078(8) 0.5288(8) 0.3900(4) 0.077(5) Uiso 1 1 d . U . . .
O2 O 0.4385(8) 0.3261(8) 0.5611(5) 0.082(6) Uiso 1 1 d . U . . .
O4 O 0.4154(7) 0.4630(8) 0.4638(5) 0.092(6) Uiso 1 1 d . U . . .
O3 O 0.3501(13) 0.3319(13) 0.5000 0.107(9) Uiso 1 2 d S TU P . .
O1 O 0.5204(14) 0.2751(13) 0.5000 0.132(10) Uiso 1 2 d S TU P . .
C11 C 0.0844(9) 0.5252(12) 0.2767(6) 0.098(8) Uiso 1 1 d D U . . .
C3 C 0.3032(15) 0.5435(10) 0.3313(9) 0.146(10) Uiso 1 1 d D U . . .
H3 H 0.3474 0.5248 0.3269 0.176 Uiso 1 1 calc R . . . .
C12 C 0.02780(19) 0.52780(19) 0.2500 0.102(12) Uiso 1 2 d DS TU P . .
C1 C 0.3493(15) 0.5579(9) 0.4007(8) 0.104(9) Uiso 1 1 d D U . . .
C4 C 0.2603(15) 0.5465(12) 0.2974(8) 0.150(11) Uiso 1 1 d D U . . .
H4 H 0.2731 0.5335 0.2713 0.180 Uiso 1 1 calc R . . . .
C8 C 0.1340(12) 0.5788(10) 0.2795(7) 0.104(8) Uiso 1 1 d D U . . .
C13 C 0.0878(12) 0.4675(12) 0.3081(7) 0.140(12) Uiso 1 1 d D U . . .
H13A H 0.0728 0.4853 0.3338 0.210 Uiso 1 1 calc GR . . . .
H13B H 0.1350 0.4508 0.3103 0.210 Uiso 1 1 calc GR . . . .
H13C H 0.0578 0.4297 0.3001 0.210 Uiso 1 1 calc GR . . . .
C2 C 0.2897(15) 0.5645(8) 0.3711(8) 0.144(10) Uiso 1 1 d D U . . .
C5 C 0.1946(14) 0.5724(12) 0.3090(8) 0.139(10) Uiso 1 1 d D U . . .
C7 C 0.2245(16) 0.5903(12) 0.3821(9) 0.165(11) Uiso 1 1 d D U . . .
H7 H 0.2119 0.6032 0.4082 0.198 Uiso 1 1 calc R . . . .
C9 C 0.1316(12) 0.6316(12) 0.2500 0.113(12) Uiso 1 2 d DS TU P . .
C6 C 0.1806(16) 0.5943(12) 0.3486(9) 0.164(11) Uiso 1 1 d D U . . .
H6 H 0.1368 0.6139 0.3531 0.197 Uiso 1 1 calc R . . . .
C10 C 0.1871(12) 0.6871(12) 0.2500 0.124(14) Uiso 1 2 d DS TU P . .
H10A H 0.2193 0.6786 0.2717 0.187 Uiso 0.5 1 calc R . . A -1
H10B H 0.2118 0.6861 0.2247 0.187 Uiso 0.5 1 calc R . . A -1
H10C H 0.1658 0.7321 0.2535 0.187 Uiso 0.5 1 calc R . . A -1
loop_
_atom_site_aniso_label
_atom_site_aniso_U_11
_atom_site_aniso_U_22
_atom_site_aniso_U_33
_atom_site_aniso_U_23
_atom_site_aniso_U_13
_atom_site_aniso_U_12
Zr1 0.028(3) 0.019(3) 0.015(3) 0.000 0.000 -0.004(3)
Zr2 0.011(3) 0.011(3) 0.008(3) 0.000 0.000 0.000
loop_
_atom_type_symbol
_atom_type_description
_atom_type_scat_dispersion_real
_atom_type_scat_dispersion_imag
_atom_type_scat_source
C C 0.0030 0.0010 'International Tables Vol C Tables 4.2.6.8 and 6.1.1.4'
H H 0.0000 0.0000 'International Tables Vol C Tables 4.2.6.8 and 6.1.1.4'
O O 0.0110 0.0060 'International Tables Vol C Tables 4.2.6.8 and 6.1.1.4'
Zr Zr -11.6050 0.5510 'International Tables Vol C Tables 4.2.6.8 and 6.1.1.4'
loop_
_geom_angle_atom_site_label_1
_geom_angle_atom_site_label_2
_geom_angle_atom_site_label_3
_geom_angle
_geom_angle_site_symmetry_1
_geom_angle_site_symmetry_3
Zr1 Zr1 Zr1 89.999(1) 3_655 11_566
Zr2 Zr1 Zr1 59.57(4) . 3_655
Zr2 Zr1 Zr1 59.57(4) . 11_566
Zr2 Zr1 Zr1 59.56(4) 9_666 11_566
Zr2 Zr1 Zr1 59.57(4) 9_666 3_655
Zr2 Zr1 Zr2 88.49(13) 9_666 .
O2 Zr1 Zr1 107.4(4) . 3_655
O2 Zr1 Zr1 107.4(4) 10_556 3_655
O2 Zr1 Zr1 109.8(4) . 11_566
O2 Zr1 Zr1 109.8(4) 10_556 11_566
O2 Zr1 Zr2 72.6(4) 10_556 .
O2 Zr1 Zr2 72.6(4) . 9_666
O2 Zr1 Zr2 161.0(4) . .
O2 Zr1 Zr2 161.0(4) 10_556 9_666
O2 Zr1 O2 126.2(8) . 10_556
O2 Zr1 O1 73.1(5) . .
O2 Zr1 O1 73.1(5) 10_556 .
O4 Zr1 Zr1 34.5(4) 12_656 3_655
O4 Zr1 Zr1 33.6(4) . 11_566
O4 Zr1 Zr1 89.8(4) 10_556 3_655
O4 Zr1 Zr1 89.8(4) 3_655 11_566
O4 Zr1 Zr1 34.5(4) 3_655 3_655
O4 Zr1 Zr1 89.8(4) . 3_655
O4 Zr1 Zr1 33.6(4) 10_556 11_566
O4 Zr1 Zr1 89.8(4) 12_656 11_566
O4 Zr1 Zr2 35.5(4) 3_655 .
O4 Zr1 Zr2 88.6(4) 3_655 9_666
O4 Zr1 Zr2 88.6(4) 12_656 .
O4 Zr1 Zr2 35.5(4) 12_656 9_666
O4 Zr1 Zr2 87.9(4) 10_556 .
O4 Zr1 Zr2 87.9(4) . 9_666
O4 Zr1 Zr2 35.9(4) . .
O4 Zr1 Zr2 35.9(4) 10_556 9_666
O4 Zr1 O2 75.1(5) 12_656 .
O4 Zr1 O2 141.0(6) . .
O4 Zr1 O2 77.8(5) . 10_556
O4 Zr1 O2 138.8(6) 12_656 10_556
O4 Zr1 O2 77.8(5) 10_556 .
O4 Zr1 O2 138.8(6) 3_655 .
O4 Zr1 O2 75.1(5) 3_655 10_556
O4 Zr1 O2 140.9(6) 10_556 10_556
O4 Zr1 O4 108.0(8) 12_656 .
O4 Zr1 O4 71.5(8) 12_656 10_556
O4 Zr1 O4 71.5(8) 3_655 .
O4 Zr1 O4 67.2(8) . 10_556
O4 Zr1 O4 108.0(8) 3_655 10_556
O4 Zr1 O4 68.9(8) 12_656 3_655
O4 Zr1 O3 89.4(7) 10_556 .
O4 Zr1 O3 89.4(7) . .
O4 Zr1 O3 145.5(4) 12_656 .
O4 Zr1 O3 145.5(4) 3_655 .
O4 Zr1 O1 83.2(6) 3_655 .
O4 Zr1 O1 145.4(4) 10_556 .
O4 Zr1 O1 83.2(6) 12_656 .
O4 Zr1 O1 145.4(4) . .
O3 Zr1 Zr1 89.1(7) . 11_566
O3 Zr1 Zr1 179.1(7) . 3_655
O3 Zr1 Zr2 119.9(4) . 9_666
O3 Zr1 Zr2 119.9(4) . .
O3 Zr1 O2 72.9(5) . 10_556
O3 Zr1 O2 72.9(5) . .
O3 Zr1 O1 99.4(9) . .
O1 Zr1 Zr1 81.6(7) . 3_655
O1 Zr1 Zr1 171.6(7) . 11_566
O1 Zr1 Zr2 115.3(4) . 9_666
O1 Zr1 Zr2 115.3(4) . .
Zr1 Zr2 Zr1 91.51(13) 3_655 11_566
Zr1 Zr2 Zr1 60.87(8) 9_666 3_655
Zr1 Zr2 Zr1 91.51(13) 9_666 .
Zr1 Zr2 Zr1 60.87(8) 3_655 .
Zr1 Zr2 Zr1 60.87(8) 9_666 11_566
Zr1 Zr2 Zr1 60.87(8) 11_566 .
O5 Zr2 Zr1 114.3(4) 4_565 3_655
O5 Zr2 Zr1 110.2(4) . .
O5 Zr2 Zr1 168.3(4) 2_665 11_566
O5 Zr2 Zr1 168.3(4) . 3_655
O5 Zr2 Zr1 110.2(4) 4_565 11_566
O5 Zr2 Zr1 114.3(4) 2_665 .
O5 Zr2 Zr1 110.2(4) 2_665 9_666
O5 Zr2 Zr1 77.1(4) 2_665 3_655
O5 Zr2 Zr1 114.3(4) 3_655 11_566
O5 Zr2 Zr1 77.1(4) 3_655 .
O5 Zr2 Zr1 110.2(4) 3_655 3_655
O5 Zr2 Zr1 168.3(4) 3_655 9_666
O5 Zr2 Zr1 77.1(4) . 11_566
O5 Zr2 Zr1 114.3(4) . 9_666
O5 Zr2 Zr1 77.1(4) 4_565 9_666
O5 Zr2 Zr1 168.3(4) 4_565 .
O5 Zr2 O5 72.9(4) . 3_655
O5 Zr2 O5 72.9(4) 3_655 2_665
O5 Zr2 O5 72.9(4) 4_565 2_665
O5 Zr2 O5 114.3(8) 3_655 4_565
O5 Zr2 O5 114.3(8) . 2_665
O5 Zr2 O5 72.9(4) . 4_565
O4 Zr2 Zr1 36.0(4) 3_655 3_655
O4 Zr2 Zr1 90.3(4) 2_665 .
O4 Zr2 Zr1 91.1(4) . 3_655
O4 Zr2 Zr1 36.0(4) . .
O4 Zr2 Zr1 34.7(4) 3_655 .
O4 Zr2 Zr1 90.3(4) 4_565 3_655
O4 Zr2 Zr1 90.3(4) . 9_666
O4 Zr2 Zr1 36.0(4) 2_665 9_666
O4 Zr2 Zr1 91.1(4) 3_655 9_666
O4 Zr2 Zr1 91.1(4) 4_565 .
O4 Zr2 Zr1 90.3(4) 3_655 11_566
O4 Zr2 Zr1 34.7(4) . 11_566
O4 Zr2 Zr1 91.1(4) 2_665 11_566
O4 Zr2 Zr1 34.7(4) 2_665 3_655
O4 Zr2 Zr1 34.7(4) 4_565 9_666
O4 Zr2 Zr1 36.0(4) 4_565 11_566
O4 Zr2 O5 78.1(5) 4_565 4_565
O4 Zr2 O5 78.1(5) 3_655 3_655
O4 Zr2 O5 146.2(6) 2_665 .
O4 Zr2 O5 146.2(6) . 2_665
O4 Zr2 O5 78.1(5) . .
O4 Zr2 O5 82.1(6) . 3_655
O4 Zr2 O5 82.1(6) 3_655 2_665
O4 Zr2 O5 146.2(6) 3_655 4_565
O4 Zr2 O5 139.7(5) 3_655 .
O4 Zr2 O5 139.7(5) 4_565 2_665
O4 Zr2 O5 139.7(5) . 4_565
O4 Zr2 O5 82.1(6) 2_665 4_565
O4 Zr2 O5 82.1(6) 4_565 .
O4 Zr2 O5 146.2(6) 4_565 3_655
O4 Zr2 O5 78.1(5) 2_665 2_665
O4 Zr2 O5 139.7(5) 2_665 3_655
O4 Zr2 O4 109.7(8) . 2_665
O4 Zr2 O4 109.7(8) 4_565 3_655
O4 Zr2 O4 70.6(4) . 4_565
O4 Zr2 O4 70.6(4) 2_665 3_655
O4 Zr2 O4 70.6(4) . 3_655
O4 Zr2 O4 70.6(4) 2_665 4_565
C1 O5 Zr2 130.7(16) . .
C1 O2 Zr1 133.7(16) 12_656 .
Zr1 O4 Zr1 111.9(7) 11_566 .
Zr1 O4 Zr2 109.8(7) 11_566 .
Zr2 O4 Zr1 108.1(6) . .
C12 C11 C13 119.4(15) . .
C8 C11 C12 122.8(19) . .
C8 C11 C13 117.3(14) . .
C4 C3 H3 115.2 . .
C4 C3 C2 130(3) . .
C2 C3 H3 115.2 . .
C11 C12 C11 116.9(18) . 7_455
C11 C12 C12 121.5(9) . 2_565
C11 C12 C12 121.5(9) 7_455 2_565
O5 C1 O2 124(2) . 11_566
O5 C1 C2 121(3) . .
O2 C1 C2 111(3) 11_566 .
C3 C4 H4 125.6 . .
C3 C4 C5 109(3) . .
C5 C4 H4 125.6 . .
C11 C8 C5 120.1(15) . .
C11 C8 C9 117(3) . .
C9 C8 C5 121.8(18) . .
C11 C13 H13A 109.5 . .
C11 C13 H13B 109.5 . .
C11 C13 H13C 109.5 . .
H13A C13 H13B 109.5 . .
H13A C13 H13C 109.5 . .
H13B C13 H13C 109.5 . .
C3 C2 C1 116(3) . .
C7 C2 C3 121(3) . .
C7 C2 C1 123(3) . .
C4 C5 C8 123(3) . .
C6 C5 C4 122(3) . .
C6 C5 C8 115(3) . .
C2 C7 H7 124.6 . .
C6 C7 C2 111(3) . .
C6 C7 H7 124.6 . .
C8 C9 C8 122(3) 7_455 .
C8 C9 C10 119.1(16) . .
C8 C9 C10 119.1(16) 7_455 .
C5 C6 H6 116.2 . .
C7 C6 C5 128(3) . .
C7 C6 H6 116.2 . .
C9 C10 H10A 109.5 . .
C9 C10 H10B 109.5 . .
C9 C10 H10C 109.5 . .
H10A C10 H10B 109.5 . .
H10A C10 H10C 109.5 . .
H10B C10 H10C 109.5 . .
loop_
_geom_bond_atom_site_label_1
_geom_bond_atom_site_label_2
_geom_bond_distance
_geom_bond_site_symmetry_2
Zr1 Zr1 3.545(5) 11_566
Zr1 Zr1 3.545(5) 3_655
Zr1 Zr2 3.499(4) 9_666
Zr1 Zr2 3.499(4) .
Zr1 O2 2.263(15) 10_556
Zr1 O2 2.263(15) .
Zr1 O4 2.115(15) 3_655
Zr1 O4 2.115(15) 12_656
Zr1 O4 2.162(15) .
Zr1 O4 2.162(15) 10_556
Zr1 O3 2.17(2) .
Zr1 O1 2.33(3) .
Zr2 Zr1 3.499(4) 9_666
Zr2 Zr1 3.499(4) 3_655
Zr2 Zr1 3.499(4) 11_566
Zr2 O5 2.199(15) 2_665
Zr2 O5 2.199(15) 3_655
Zr2 O5 2.199(15) 4_565
Zr2 O5 2.199(15) .
Zr2 O4 2.161(15) 4_565
Zr2 O4 2.161(15) 2_665
Zr2 O4 2.161(15) 3_655
Zr2 O4 2.161(15) .
O5 C1 1.30(3) .
O2 C1 1.34(3) 12_656
O4 Zr1 2.115(15) 11_566
C11 C12 1.399(9) .
C11 C8 1.399(10) .
C11 C13 1.516(10) .
C3 H3 0.9300 .
C3 C4 1.390(10) .
C3 C2 1.397(10) .
C12 C11 1.399(9) 7_455
C12 C12 1.504(10) 2_565
C1 O2 1.34(3) 11_566
C1 C2 1.508(10) .
C4 H4 0.9300 .
C4 C5 1.405(10) .
C8 C5 1.518(10) .
C8 C9 1.406(9) .
C13 H13A 0.9600 .
C13 H13B 0.9600 .
C13 H13C 0.9600 .
C2 C7 1.390(10) .
C5 C6 1.400(10) .
C7 H7 0.9300 .
C7 C6 1.390(10) .
C9 C8 1.406(9) 7_455
C9 C10 1.502(10) .
C6 H6 0.9300 .
C10 H10A 0.9600 .
C10 H10B 0.9600 .
C10 H10C 0.9600 .
loop_
_geom_torsion_atom_site_label_1
_geom_torsion_atom_site_label_2
_geom_torsion_atom_site_label_3
_geom_torsion_atom_site_label_4
_geom_torsion
_geom_torsion_site_symmetry_1
_geom_torsion_site_symmetry_4
Zr2 O5 C1 O2 -17(3) . 11_566
Zr2 O5 C1 C2 -172.3(7) . .
O5 C1 C2 C3 -5.4(14) . .
O5 C1 C2 C7 174.9(16) . .
O2 C1 C2 C3 -163.7(16) 11_566 .
O2 C1 C2 C7 16.7(14) 11_566 .
C11 C8 C5 C4 95(3) . .
C11 C8 C5 C6 -85(3) . .
C11 C8 C9 C8 4.5(17) . 7_455
C11 C8 C9 C10 -175.5(17) . .
C3 C4 C5 C8 -176.8(16) . .
C3 C4 C5 C6 3(3) . .
C3 C2 C7 C6 -2.9(17) . .
C12 C11 C8 C5 -179(2) . .
C12 C11 C8 C9 -10(3) . .
C1 C2 C7 C6 176.7(11) . .
C4 C3 C2 C1 -176.7(14) . .
C4 C3 C2 C7 3(2) . .
C4 C5 C6 C7 -5(4) . .
C8 C11 C12 C11 4.9(18) . 7_455
C8 C11 C12 C12 -175.1(18) . 2_565
C8 C5 C6 C7 175.6(18) . .
C13 C11 C12 C11 176(3) . 7_455
C13 C11 C12 C12 -4(3) . 2_565
C13 C11 C8 C5 9(4) . .
C13 C11 C8 C9 179(2) . .
C2 C3 C4 C5 -3(3) . .
C2 C7 C6 C5 4(3) . .
C5 C8 C9 C8 174(3) . 7_455
C5 C8 C9 C10 -6(3) . .
C9 C8 C5 C4 -75(3) . .
C9 C8 C5 C6 105(2) . .
