#------------------------------------------------------------------------------
#$Date: 2019-11-25 22:32:00 +0200 (Mon, 25 Nov 2019) $
#$Revision: 241968 $
#$URL: file:///home/coder/svn-repositories/cod/cif/4/13/18/4131858.cif $
#------------------------------------------------------------------------------
#
# This file is available in the Crystallography Open Database (COD),
# http://www.crystallography.net/
#
# All data on this site have been placed in the public domain by the
# contributors.
#
data_4131858
loop_
_publ_author_name
'Yan, Yong'
'O'Connor, Alice E'
'Kanthasamy, Gopikkaa'
'Atkinson, George'
'Allan, David R.'
'Blake, Alexander J.'
'Schr\"oder, Martin'
_publ_section_title
;
 Unusual and Tunable Negative Linear Compressibility in the Metal-Organic
 Framework MFM-133(M) (M = Zr, Hf).
;
_journal_issue                   11
_journal_name_full               'Journal of the American Chemical Society'
_journal_page_first              3952
_journal_page_last               3958
_journal_paper_doi               10.1021/jacs.7b11747
_journal_volume                  140
_journal_year                    2018
_chemical_formula_moiety         '0.25(C184 H136 O64 Zr12)'
_chemical_formula_sum            'C46 H34 O16 Zr3'
_chemical_formula_weight         1116.39
_space_group_crystal_system      tetragonal
_space_group_IT_number           128
_space_group_name_Hall           '-P 4 2n'
_space_group_name_H-M_alt        'P 4/m n c'
_atom_sites_solution_hydrogens   geom
_atom_sites_solution_primary     direct
_audit_creation_date             2016-08-31
_audit_creation_method
;
Olex2 1.2
(compiled 2016.08.25 svn.r3337 for OlexSys, GUI svn.r5221)
;
_cell_angle_alpha                90
_cell_angle_beta                 90
_cell_angle_gamma                90
_cell_formula_units_Z            4
_cell_length_a                   19.0410(14)
_cell_length_b                   19.0410(14)
_cell_length_c                   33.134(6)
_cell_measurement_reflns_used    1726
_cell_measurement_temperature    293.15
_cell_measurement_theta_max      21.7610
_cell_measurement_theta_min      2.0600
_cell_volume                     12013(3)
_computing_cell_refinement
;
CrysAlisPro, Agilent Technologies,
Version 1.171.37.34 (release 22-05-2014 CrysAlis171 .NET)
(compiled May 22 2014,16:03:01)
;
_computing_data_collection
;
CrysAlisPro, Agilent Technologies,
Version 1.171.37.34 (release 22-05-2014 CrysAlis171 .NET)
(compiled May 22 2014,16:03:01)
;
_computing_data_reduction
;
CrysAlisPro, Agilent Technologies,
Version 1.171.37.34 (release 22-05-2014 CrysAlis171 .NET)
(compiled May 22 2014,16:03:01)
;
_computing_molecular_graphics    'Olex2 (Dolomanov et al., 2009)'
_computing_publication_material  'Olex2 (Dolomanov et al., 2009)'
_computing_structure_refinement  'ShelXL (Sheldrick, 2015)'
_computing_structure_solution    'ShelXS (Sheldrick, 2008)'
_diffrn_ambient_temperature      293.15
_diffrn_detector                 Dectris
_diffrn_detector_area_resol_mean 5.81395
_diffrn_detector_type            'Pilatus 300K detector'
_diffrn_measured_fraction_theta_full 0.760
_diffrn_measured_fraction_theta_max 0.759
_diffrn_measurement_details
;
#__ type_ start__ end____ width___ exp.time_
  1 omega -105.00  -74.00   0.2000    0.9970
omega____ theta____ kappa____ phi______ frames
    -       20.0000   70.0000  155.7700 155

#__ type_ start__ end____ width___ exp.time_
  2 omega -105.00  -74.00   0.2000    0.9970
omega____ theta____ kappa____ phi______ frames
    -       20.0000   70.0000  -24.2300 155

#__ type_ start__ end____ width___ exp.time_
  3 omega -106.00  -66.00   0.2000    0.9970
omega____ theta____ kappa____ phi______ frames
    -      -20.0000  -70.0000 -155.7700 200

#__ type_ start__ end____ width___ exp.time_
  4 omega -106.00  -66.00   0.2000    0.9970
omega____ theta____ kappa____ phi______ frames
    -      -20.0000  -70.0000   24.2300 200

#__ type_ start__ end____ width___ exp.time_
  5 omega -150.00  -94.00   0.2000    0.9970
omega____ theta____ kappa____ phi______ frames
    -      -20.0000   70.0000  -24.2319 280

#__ type_ start__ end____ width___ exp.time_
  6 omega -150.00  -94.00   0.2000    0.9970
omega____ theta____ kappa____ phi______ frames
    -      -20.0000   70.0000  155.7681 280

#__ type_ start__ end____ width___ exp.time_
  7 omega  -96.00  -30.00   0.2000    0.9970
omega____ theta____ kappa____ phi______ frames
    -       20.0000  -70.0000   24.2300 330

#__ type_ start__ end____ width___ exp.time_
  8 omega  -96.00  -30.00   0.2000    0.9970
omega____ theta____ kappa____ phi______ frames
    -       20.0000  -70.0000 -155.7700 330
;
_diffrn_measurement_device       'k-geometry diffractometer'
_diffrn_measurement_device_type
'Newport 4-circle kappa geometry diffractometer'
_diffrn_measurement_method       'oscillation method'
_diffrn_orient_matrix_UB_11      0.0324079000
_diffrn_orient_matrix_UB_12      0.0021906000
_diffrn_orient_matrix_UB_13      -0.0091601000
_diffrn_orient_matrix_UB_21      -0.0131564000
_diffrn_orient_matrix_UB_22      -0.0172116000
_diffrn_orient_matrix_UB_23      -0.0166615000
_diffrn_orient_matrix_UB_31      -0.0093095000
_diffrn_orient_matrix_UB_32      0.0317452000
_diffrn_orient_matrix_UB_33      -0.0083965000
_diffrn_radiation_collimation    '0.5 mm pinhole'
_diffrn_radiation_monochromator  'Si 111 double-crystal monochromator'
_diffrn_radiation_probe          x-ray
_diffrn_radiation_wavelength     0.6889
_diffrn_reflns_av_R_equivalents  0.5993
_diffrn_reflns_av_unetI/netI     0.4982
_diffrn_reflns_Laue_measured_fraction_full 0.760
_diffrn_reflns_Laue_measured_fraction_max 0.759
_diffrn_reflns_limit_h_max       13
_diffrn_reflns_limit_h_min       -13
_diffrn_reflns_limit_k_max       20
_diffrn_reflns_limit_k_min       -20
_diffrn_reflns_limit_l_max       35
_diffrn_reflns_limit_l_min       -35
_diffrn_reflns_number            24559
_diffrn_reflns_point_group_measured_fraction_full 0.760
_diffrn_reflns_point_group_measured_fraction_max 0.759
_diffrn_reflns_theta_full        22.753
_diffrn_reflns_theta_max         22.753
_diffrn_reflns_theta_min         1.889
_diffrn_source                   'Synchrotron U21 undulator'
_diffrn_source_type              'Synchrotron Diamond Light Source'
_exptl_absorpt_coefficient_mu    0.261
_exptl_absorpt_correction_T_max  0.4269
_exptl_absorpt_correction_T_min  0.2522
_exptl_absorpt_correction_type   multi-scan
_exptl_absorpt_process_details
;
SADABS-2014/5 (Bruker,2014/5) was used for absorption correction. 
wR2(int) was 0.1511 before and 0.1221 after correction. 
The Ratio of minimum to maximum transmission is 0.5908. 
The \l/2 correction factor is Not present.
;
_exptl_crystal_colour            'clear colourless'
_exptl_crystal_colour_lustre     clear
_exptl_crystal_colour_primary    colourless
_exptl_crystal_density_diffrn    0.617
_exptl_crystal_description       octahedral
_exptl_crystal_F_000             2232
_exptl_crystal_size_max          0.046
_exptl_crystal_size_mid          0.046
_exptl_crystal_size_min          0.033
_refine_diff_density_max         0.750
_refine_diff_density_min         -1.079
_refine_diff_density_rms         0.115
_refine_ls_extinction_method     none
_refine_ls_goodness_of_fit_ref   1.204
_refine_ls_hydrogen_treatment    constr
_refine_ls_matrix_type           full
_refine_ls_number_parameters     75
_refine_ls_number_reflns         3464
_refine_ls_number_restraints     60
_refine_ls_restrained_S_all      1.205
_refine_ls_R_factor_all          0.3397
_refine_ls_R_factor_gt           0.1642
_refine_ls_shift/su_max          0.000
_refine_ls_shift/su_mean         0.000
_refine_ls_structure_factor_coef Fsqd
_refine_ls_weighting_details
'w=1/[\s^2^(Fo^2^)+(0.2000P)^2^] where P=(Fo^2^+2Fc^2^)/3'
_refine_ls_weighting_scheme      calc
_refine_ls_wR_factor_gt          0.3871
_refine_ls_wR_factor_ref         0.4932
_reflns_Friedel_coverage         0.000
_reflns_number_gt                991
_reflns_number_total             3464
_reflns_threshold_expression     'I > 2\s(I)'
_cod_data_source_file            ZrMOF_All.cif
_cod_data_source_block           38.4kbar
_cod_database_code               4131858
_chemical_oxdiff_formula         'C46 H42 O16 Zr3'
_shelx_space_group_comment
;
The symmetry employed for this shelxl refinement is uniquely defined
by the following loop, which should always be used as a source of
symmetry information in preference to the above space-group names.
They are only intended as comments.
;
_reflns_odcompleteness_completeness 74.79
_reflns_odcompleteness_iscentric 1
_reflns_odcompleteness_theta     22.88
_olex2_refinement_description
;
1. Fixed Uiso
 At 1.2 times of:
  All C(H) groups
 At 1.5 times of:
  All C(H,H,H) groups
2. Restrained distances
 C12-C11 = C8-C11 = C8-C9 = C6-C5 = C7-C6 = C2-C7 = C3-C2 = C4-C3 = C4-C5
 1.39 with sigma of 0.01
 C8-C5 = C10-C9 = C13-C11 = C2-C1
 1.5 with sigma of 0.01
 C12-C12_$2
 1.5 with sigma of 0.01
 C13-C11
 1.5 with sigma of 0.01
3. Restrained planarity
 C1, C2, C3, C4, C5, C6, C7, C8, C11_$1, C13_$1
 with sigma of 0.1
 C1_$1, C2_$1, C3_$1, C4_$1, C5_$1, C6_$1, C7_$1, C8_$1, C11, C13
 with sigma of 0.1
 C1_$2, C2_$2, C7_$2, C3_$2, C4_$2, C5_$2, C6_$2, C8_$2, C11_$3, C13_$3
 with sigma of 0.1
 C1_$3, C2_$3, C3_$3, C4_$3, C5_$3, C6_$3, C7_$3, C8_$3, C11_$2, C13_$2
 with sigma of 0.1
 C10_$2, C9_$2, C12_$2, C12, C9, C10
 with sigma of 0.1
4. Uiso/Uaniso restraints and constraints
All non-hydrogen atoms have similar U: within 2A with sigma of 0.02 and sigma
for terminal atoms of 0.04
5. Others
 Fixed Sof: H10A(0.5) H10B(0.5) H10C(0.5)
6.a Me refined with riding coordinates:
 C10(H10A,H10B,H10C)
6.b Aromatic/amide H refined with riding coordinates:
 C3(H3), C4(H4), C7(H7), C6(H6)
6.c Idealised Me refined as rotating group:
 C13(H13A,H13B,H13C)
;
_shelx_res_file
;
    38.4kbar.res created by SHELXL-2014/7

TITL g2yy_10xnew in P4/mnc
CELL 0.6889 19.04097 19.04097 33.13386 90 90 90
ZERR 4 0.00138 0.00138 0.00576 0 0 0
LATT 1
SYMM -X,-Y,+Z
SYMM -Y,+X,+Z
SYMM +Y,-X,+Z
SYMM 0.5-X,0.5+Y,0.5-Z
SYMM 0.5+X,0.5-Y,0.5-Z
SYMM 0.5+Y,0.5+X,0.5-Z
SYMM 0.5-Y,0.5-X,0.5-Z
SFAC C H O Zr
DISP C 0.003 0.001 10.848
DISP H -0 0 0.623
DISP O 0.011 0.006 30.192
DISP Zr -11.605 0.551 2275.752
UNIT 184 136 64 12
EQIV $1 -0.5+Y,0.5+X,0.5-Z
EQIV $2 0.5-Y,0.5-X,0.5-Z
EQIV $3 -X,1-Y,+Z
DFIX 1.39 0.01 C12 C11 C8 C11 C8 C9 C6 C5 C7 C6 C2 C7 C3 C2 C4 C3 C4 C5
DFIX 1.5 0.01 C8 C5 C10 C9 C13 C11 C2 C1
DFIX 1.5 0.01 C12 C12_$2
DFIX 1.5 0.01 C13 C11
FLAT C1 C2 C3 C4 C5 C6 C7 C8 C11_$1 C13_$1
FLAT C1_$1 C2_$1 C3_$1 C4_$1 C5_$1 C6_$1 C7_$1 C8_$1 C11 C13
FLAT C1_$2 C2_$2 C7_$2 C3_$2 C4_$2 C5_$2 C6_$2 C8_$2 C11_$3 C13_$3
FLAT C1_$3 C2_$3 C3_$3 C4_$3 C5_$3 C6_$3 C7_$3 C8_$3 C11_$2 C13_$2
FLAT C10_$2 C9_$2 C12_$2 C12 C9 C10
SIMU 0.02 0.04 2

L.S. 5 0 243
PLAN  20
TEMP 20
BOND
MORE -1
BOND $H
CONF
ABIN
fmap 2
acta
REM <olex2.extras>
REM <HklSrc "%.\\38.4kbar.hkl">
REM </olex2.extras>

WGHT    0.200000
FVAR       0.29173
ZR1   4    0.123712    0.044807    0.000000    10.50000    0.05492    0.07323 =
         0.03749    0.00000    0.00000   -0.00337
ZR2   4    0.000000    0.000000    0.073516    10.25000    0.05407    0.05407 =
         0.02421    0.00000    0.00000    0.00000
O5    3   -0.028385    0.091787    0.108902    11.00000    0.10108
O2    3    0.172927    0.061039   -0.060591    11.00000    0.11177
O4    3    0.037004    0.083631    0.035694    11.00000    0.11617
O3    3    0.168480    0.151774    0.000000    10.50000    0.14784
O1    3    0.228328   -0.014954    0.000000    10.50000    0.15579
C11   1   -0.025399    0.415143    0.223170    11.00000    0.12586
C3    1   -0.045352    0.190720    0.170528    11.00000    0.22107
AFIX  43
H3    2   -0.028838    0.145542    0.175398    11.00000   -1.20000
AFIX   0
C12   1   -0.027927    0.472073    0.250000    10.50000    0.10861
C1    1   -0.060294    0.149071    0.101610    11.00000    0.17294
C4    1   -0.048919    0.238594    0.202257    11.00000    0.20367
AFIX  43
H4    2   -0.036835    0.227560    0.228703    11.00000   -1.20000
AFIX   0
C8    1   -0.078629    0.365649    0.219459    11.00000    0.13103
C13   1    0.031563    0.412024    0.191453    11.00000    0.16378
AFIX 137
H13A  2    0.014418    0.432010    0.166745    11.00000   -1.50000
H13B  2    0.044728    0.363995    0.186931    11.00000   -1.50000
H13C  2    0.071725    0.438084    0.200536    11.00000   -1.50000
AFIX   0
C2    1   -0.066201    0.209396    0.131389    11.00000    0.22427
C5    1   -0.072603    0.305151    0.190233    11.00000    0.18116
C7    1   -0.090321    0.275382    0.119324    11.00000    0.23774
AFIX  43
H7    2   -0.101814    0.286611    0.092818    11.00000   -1.20000
AFIX   0
C9    1   -0.129280    0.370720    0.250000    10.50000    0.16960
C6    1   -0.095291    0.322579    0.151342    11.00000    0.21819
AFIX  43
H6    2   -0.114213    0.366885    0.146729    11.00000   -1.20000
AFIX   0
C10   1   -0.185079    0.314921    0.250000    10.50000    0.21460
PART -1
AFIX  33
H10A  2   -0.176945    0.283020    0.228056    10.50000   -1.50000
H10B  2   -0.183588    0.289663    0.275061    10.50000   -1.50000
H10C  2   -0.230354    0.336430    0.246883    10.50000   -1.50000
AFIX   0
HKLF 4

REM  g2yy_10xnew in P4/mnc
REM R1 =  0.1642 for     991 Fo > 4sig(Fo)  and  0.3397 for all    3464 data
REM     75 parameters refined using     60 restraints

END

WGHT      0.2000      0.0000

REM Highest difference peak  0.750,  deepest hole -1.079,  1-sigma level  0.115
Q1    1   0.1369  0.0150  0.0000  10.50000  0.05    0.75
Q2    1   0.2206  0.1221  0.0000  10.50000  0.05    0.63
Q3    1   0.1306  0.1404  0.0000  10.50000  0.05    0.59
Q4    1   0.0000  0.0000  0.0858  10.25000  0.05    0.58
Q5    1   0.0002  0.0349  0.0769  11.00000  0.05    0.51
Q6    1   0.0535  0.1150  0.1293  11.00000  0.05    0.47
Q7    1  -0.0379  0.1004  0.0995  11.00000  0.05    0.46
Q8    1   0.1274  0.2200  0.0000  10.50000  0.05    0.46
Q9    1  -0.0013  0.1099  0.1606  11.00000  0.05    0.43
Q10   1  -0.2159  0.2841  0.2500  10.50000  0.05    0.42
Q11   1   0.2743  0.0006 -0.0271  11.00000  0.05    0.42
Q12   1   0.2834 -0.0155 -0.0239  11.00000  0.05    0.42
Q13   1  -0.0068  0.1269  0.1034  11.00000  0.05    0.42
Q14   1  -0.0061  0.0613  0.1283  11.00000  0.05    0.41
Q15   1   0.0746  0.0785  0.0487  11.00000  0.05    0.41
Q16   1   0.0619  0.1234  0.0342  11.00000  0.05    0.40
Q17   1   0.2122  0.0138  0.0000  10.50000  0.05    0.40
Q18   1   0.1073  0.1936 -0.0185  11.00000  0.05    0.39
Q19   1   0.2347  0.1338 -0.0393  11.00000  0.05    0.38
Q20   1   0.2136  0.1902  0.0220  11.00000  0.05    0.37
;
_shelx_res_checksum              40759
_shelx_hkl_file
;
  -1   2   0  651.84  182.42
   1  -2   0  607.00  153.70
  -1   2   0  668.88  157.29
   0   2   0 5542.55 1340.17
  -2   3   0    5.88   15.55
   2  -3   0   12.02   11.75
  -2   3   0    7.55   11.87
  -1   3   0   52.64   18.93
  -1   3   0  124.72   21.11
  -1   3   0   84.28   26.40
  -1   3   0   85.06   20.80
   1  -3   0   85.19   21.66
   0   3   0    0.84   17.85
   0   3   0   -5.49   10.71
   1   3   0  145.88   31.66
  -3   4   0   14.07   23.94
  -2   4   0  422.59  112.41
   2  -4   0  482.57   94.76
  -2   4   0  259.55   93.79
  -1   4   0 3000.52  702.38
  -1   4   0 3028.51  674.38
  -1   4   0 2995.26  738.46
  -1   4   0 2563.10  802.30
   1  -4   0 2772.41  703.01
   1  -4   0 3046.21  672.71
   0   4   0  170.18   39.92
   0   4   0  170.77   54.79
   0  -4   0  103.67   49.53
   0  -4   0  212.69   50.22
   0   4   0  182.68   45.26
   0   4   0  171.48   47.14
   1   4   0 2823.78  712.29
   3  -5   0   -1.59   25.34
   2  -5   0 3194.68  758.15
  -2   5   0 3545.99  935.09
   2  -5   0 3070.80  805.58
  -2   5   0 3457.06  791.29
  -2   5   0 3693.46  923.56
   1  -5   0  105.93   33.61
  -1   5   0   51.35   41.61
  -1   5   0   71.85   23.73
  -1   5   0  103.50   21.45
  -1   5   0   59.02   27.22
   1  -5   0   68.58   20.10
   0  -5   0   -8.53   30.93
   0   5   0    9.90   35.72
   0   5   0    4.17   14.15
   0  -5   0    3.06   17.02
   0   5   0   -0.68    5.20
   0   5   0   12.14   22.87
   1   5   0  104.32   24.24
   1   5   0   97.74   36.24
   2   5   0 3743.68  896.75
  -4   6   0   -1.81   45.93
   3  -6   0  344.21   85.32
  -3   6   0  371.04   82.91
  -3   6   0  344.26  100.08
  -2   6   0  735.60  223.74
   2  -6   0  824.25  194.44
  -2   6   0 1059.00  238.71
   1  -6   0 3393.73  871.14
  -1   6   0 3208.22  815.67
  -1   6   0 3541.33  799.27
   0  -6   0   -1.98   24.29
   0  -6   0   -0.82   27.51
   0   6   0   -1.69   50.62
   0   6   0   15.08   20.36
   0   6   0    6.53    7.82
   1   6   0 3702.54  771.71
  -1  -6   0 3321.49  764.43
   1   6   0 2861.62  861.63
   2   6   0 1110.17  247.14
  -3  -6   0   -3.47   68.69
  -4   7   0  415.31  129.48
  -4   7   0  472.70  106.77
   4  -7   0  345.55  110.84
  -3   7   0 1700.53  384.88
  -3   7   0 1404.81  324.94
   3  -7   0 1405.00  337.66
  -3   7   0 1284.67  382.56
  -2   7   0  833.70  253.16
  -2   7   0 1006.08  257.97
   2  -7   0 1312.97  246.49
  -2   7   0 1204.75  235.22
   2  -7   0 1066.92  236.05
  -2   7   0  760.55  283.66
  -1   7   0  457.74  105.19
   1  -7   0  460.18  116.77
  -1   7   0  366.22  107.67
  -1   7   0  483.44  104.82
   1  -7   0  443.89  103.27
   1  -7   0  383.50  113.87
  -1   7   0  492.57  129.77
   0   7   0  -17.63   37.39
   0  -7   0  -13.57   33.09
   0  -7   0   21.37   30.66
   0   7   0   19.94   59.39
   0   7   0   -4.40    8.48
   0   7   0    1.88   24.70
   0  -7   0  -10.11   49.64
  -1  -7   0  437.73  102.93
   1   7   0  278.38  122.70
   1   7   0  361.02   97.03
   1   7   0  598.89  111.84
   2   7   0 1125.74  269.71
  -5   8   0  -37.69   71.24
   4  -8   0 1664.26  373.79
  -4   8   0 1373.46  352.58
  -4   8   0 1462.39  422.06
  -3   8   0   77.99   50.94
  -3   8   0  176.74   83.81
  -3   8   0   38.86   38.95
   3  -8   0  166.36   56.86
  -2   8   0  670.97  205.71
   2  -8   0 1212.30  219.96
  -2   8   0  831.41  223.10
  -2   8   0 1005.71  226.73
  -2   8   0  813.51  256.80
   2  -8   0  769.39  210.42
   1  -8   0   61.66   53.04
  -1   8   0   37.22   73.19
   1  -8   0   66.76   30.90
   1  -8   0   39.71   17.77
  -1   8   0   57.88   27.51
  -1   8   0   16.10   41.47
  -1   8   0   42.16   18.76
   0  -8   0  243.86   90.07
   0   8   0  240.69   95.51
   0  -8   0  216.03   91.40
   0   8   0  276.68   62.06
   0   8   0  237.24   76.81
   0  -8   0  255.26   62.99
   0  -8   0  263.59   72.10
   0   8   0  365.29   77.01
  -1  -8   0   74.21   41.74
   1   8   0   20.95   67.47
   1   8   0   55.55   16.55
   1   8   0   50.43   53.07
   2   8   0 1204.31  256.56
   2   8   0 1067.33  289.18
   2   8   0 1273.69  269.15
   3   8   0   82.22   67.71
  -4  -8   0 1583.72  385.38
   4   8   0 1497.40  387.84
  -5   9   0 1133.99  296.59
   5  -9   0  950.72  265.93
  -5   9   0 1207.83  295.84
  -4   9   0  420.33  125.50
   4  -9   0  370.92  101.01
  -4   9   0  203.62   91.42
  -4   9   0  397.45  100.94
  -3   9   0 2141.71  511.63
  -3   9   0 2190.48  641.78
   3  -9   0 2256.44  544.16
  -2   9   0   20.17   46.88
  -2   9   0   59.48   26.31
  -2   9   0   45.78   31.25
  -2   9   0  124.22   89.49
   2  -9   0   30.21   56.91
   2  -9   0   74.94   34.78
   2  -9   0   98.92   23.17
  -1   9   0   96.32   84.74
  -1   9   0  152.23   32.64
   1  -9   0   56.96   29.95
   1  -9   0  136.91   47.44
  -1   9   0  135.49   40.67
  -1   9   0  144.95   55.20
   1  -9   0  158.93   69.86
   0  -9   0    1.62   14.48
   0   9   0   11.75   11.72
   0  -9   0  -12.80   49.93
   0  -9   0   16.20   44.94
   0  -9   0   -6.86   69.72
   0   9   0  -31.89   34.97
   0   9   0   54.82   83.96
   0   9   0    2.63   53.83
  -1  -9   0  102.01   50.65
   1   9   0   78.60   84.75
   1   9   0  156.44   67.20
   2   9   0   10.20   69.34
   2   9   0   56.37   82.70
  -2  -9   0   61.83   50.57
   3   9   0 2409.31  605.51
   4   9   0  324.27  114.55
  -6  10   0  220.66  118.07
  -5  10   0   12.59   95.19
  -5  10   0   56.12   58.70
   5 -10   0   50.85   64.55
  -4  10   0 1131.02  330.01
  -4  10   0 1850.39  420.43
   4 -10   0 1392.52  359.69
  -3  10   0   10.18   49.29
  -3  10   0   56.55  100.90
   3 -10   0   -3.05   62.16
   2 -10   0  663.81  174.77
  -2  10   0  782.08  160.10
  -2  10   0  466.54  207.72
  -1  10   0   56.28   57.08
  -1  10   0  120.39  101.32
   1 -10   0   44.66   73.29
   0 -10   0    3.73   49.19
   0  10   0   23.51   89.96
   0 -10   0  -27.38   83.82
   0  10   0   44.96   62.35
   1  10   0    8.80   88.08
   1  10   0   91.65   71.49
  -1 -10   0   79.39   94.96
  -1 -10   0   62.47   53.59
   2  10   0  557.19  184.90
   2  10   0  660.73  200.09
  -2 -10   0  655.56  166.69
   3  10   0    4.09   84.90
   4  10   0 1409.09  376.55
  -6  11   0  191.78  129.17
  -5  11   0  150.01   75.85
   5 -11   0  180.62   89.08
  -5  11   0  196.89  127.14
  -4  11   0   39.18   60.77
   4 -11   0   53.85   70.42
  -4  11   0  -17.95  117.02
  -3  11   0  471.80  167.53
  -3  11   0 1030.79  222.93
   3 -11   0  736.13  181.67
  -2  11   0   51.89  111.51
   2 -11   0   54.19   76.24
  -2  11   0  -11.54   61.50
   1 -11   0   -3.93   81.48
  -1  11   0   43.54  108.43
   1 -11   0  116.69   63.56
  -1  11   0  -12.18   65.89
   0 -11   0  -80.91   63.84
   0  11   0  -52.55  103.22
   0 -11   0   -4.44   98.33
   0  11   0  -47.28   73.80
  -1 -11   0    8.83   61.14
  -1 -11   0   19.89  104.20
   1  11   0    3.83   84.39
   1  11   0  -48.37  105.71
  -2 -11   0    9.63   66.68
   2  11   0  -16.93   92.89
   2  11   0  187.26  115.83
   3  11   0 1038.77  255.71
   3  11   0  999.01  240.18
   4  11   0   62.62  101.78
  -6  12   0  397.47  152.03
   6 -12   0  161.62  105.28
  -5  12   0   49.28  137.28
   5 -12   0  -30.80   85.54
  -5  12   0  -39.54   70.99
  -4  12   0  614.39  148.47
  -4  12   0  642.42  218.70
   4 -12   0  416.07  168.04
  -3  12   0   47.27  135.52
   3 -12   0  -27.31   81.32
  -3  12   0  -44.43   67.53
   2 -12   0    8.20   87.71
  -2  12   0 -253.58  136.69
  -2  12   0 -146.43   74.76
  -1  12   0  579.06  144.63
  -1  12   0  185.66   93.30
   1 -12   0   53.50  113.25
   1 -12   0   63.53   85.18
   0 -12   0  222.83   90.56
   0  12   0  257.63  105.76
   0  12   0  240.37  141.36
   0 -12   0  184.16  134.01
  -1 -12   0   39.76   84.37
  -1 -12   0  299.31  138.03
   1  12   0  153.28  104.64
   1  12   0  290.58  132.60
   2  12   0 -178.39  124.74
  -2 -12   0  -32.21   73.24
  -2 -12   0   42.11  129.22
   2  12   0  -51.31  102.55
  -3 -12   0  -69.07   80.09
   3  12   0  -70.73  107.85
   3  12   0   -4.35  130.90
   4  12   0  881.86  226.78
  -4  13   0   89.50   75.30
   4 -13   0  -26.73   88.83
  -3  13   0  930.04  167.34
  -3  13   0  102.60  100.41
   3 -13   0   96.60  121.38
  -2  13   0   42.67  150.24
  -2  13   0  164.55   83.51
   2 -13   0   69.08   82.95
   2 -13   0   92.30  101.18
   1 -13   0   72.10   83.32
  -1  13   0   96.69   88.81
  -1  13   0   41.15  140.51
   1 -13   0  -30.06  118.41
   0  13   0   33.83   97.35
   0 -13   0   44.22  124.71
   0  13   0   36.17  139.38
   0 -13   0  154.69   78.26
  -1 -13   0  271.99   93.77
   1  13   0  528.17  137.88
  -1 -13   0  141.14  150.18
   1  13   0    4.69  114.95
   2  13   0   30.87  112.58
  -2 -13   0   73.25  149.32
   5  13   0   -6.03  101.02
  -7  14   0   -5.27  177.11
  -6  14   0  476.73  180.07
  -6  14   0   17.95   92.28
   6 -14   0  -11.40  109.99
  -5  14   0   -8.43   83.93
  -5  14   0  166.32  172.59
   5 -14   0  -21.34  114.54
  -4  14   0  363.76   82.70
   4 -14   0   64.44  109.59
  -4  14   0 -227.61  175.37
  -3  14   0  130.41  166.45
   2 -14   0   -6.43   97.24
  -2  14   0  -42.07  157.82
  -1  14   0 -181.15  148.74
   1 -14   0   94.15   96.50
   0  14   0  136.05  152.19
   0 -14   0  212.12  104.68
  -1 -14   0    6.40   84.51
   1  14   0   -5.19   86.29
   1  14   0   31.36  149.03
   2  14   0 -130.58  149.21
  -2 -14   0    6.72   95.60
  -2 -14   0  324.10  168.64
   2  14   0  672.73  132.48
   3  14   0    5.14  147.07
  -3 -14   0   15.46  177.44
   3  14   0  168.92  135.07
  -3 -14   0   -7.09   97.12
   4  14   0   -6.40  140.82
  -4 -14   0  143.89  103.96
   4  14   0 -358.90  176.25
   5  14   0   -6.63  146.47
  -7  15   0  116.64  208.32
  -6  15   0  198.55  191.79
  -6  15   0   -4.83   92.87
   6 -15   0  -24.97  113.86
   5 -15   0   11.80  120.20
  -5  15   0  351.46  198.69
  -5  15   0    4.60   90.63
  -4  15   0   38.34  189.87
   4 -15   0   -5.53  114.00
  -4  15   0    4.36   86.77
   3 -15   0   33.14  119.45
   3 -15   0    7.54  125.54
  -3  15   0   69.94   92.37
  -3  15   0   47.90  186.42
  -2  15   0 -107.34  180.44
   2 -15   0  -58.15  110.95
   2 -15   0   -5.80  127.88
  -2  15   0  -18.30   98.10
   1 -15   0   99.07  105.23
   1 -15   0   31.42  139.59
  -1  15   0   -4.85  107.47
  -1  15   0 -218.56  168.26
   0  15   0   -4.83  157.34
   0  15   0   -5.23  118.76
   0 -15   0    6.81  158.65
   0 -15   0   -7.09  103.23
  -1 -15   0 -187.55  104.57
  -1 -15   0  -37.35  165.31
   1  15   0 -108.09  124.05
   1  15   0  139.98  174.05
   2  15   0  205.21  139.23
  -2 -15   0    7.48  105.94
  -2 -15   0 -805.93  189.79
   2  15   0   -5.32  170.09
  -3 -15   0   78.56  111.55
   3  15   0 -125.30  143.67
   3  15   0 -332.21  181.71
  -3 -15   0  322.13  188.25
   4  15   0   -5.88  171.87
  -4 -15   0    8.29  110.94
   4  15   0 -278.58  153.72
   5  15   0   65.31  156.13
  -7  16   0   -6.36  224.04
  -6  16   0   -6.25  208.13
   6 -16   0   -6.84  132.69
  -6  16   0  -41.81  114.04
   5 -16   0   13.04  132.61
  -5  16   0  -45.28  107.72
  -5  16   0 -104.50  213.98
  -4  16   0 -323.29  210.62
  -4  16   0   19.24   97.42
   4 -16   0  -18.52  123.70
   3 -16   0    8.37  121.09
  -3  16   0  162.25  199.89
  -3  16   0  -24.64  105.48
   3 -16   0  -43.25  132.77
  -2  16   0   56.48  111.43
   2 -16   0   -6.46  146.14
  -2  16   0   44.81  181.73
   2 -16   0   16.31  122.57
  -1  16   0   16.35  187.35
   1 -16   0    6.99  155.43
  -1  16   0   -5.40  115.34
   1 -16   0 -345.12  114.86
   0 -16   0    7.95  122.68
   0  16   0  195.36  180.43
   0 -16   0  -37.82  165.54
   0  16   0  -46.36  125.71
  -1 -16   0   65.21  187.98
   1  16   0    6.25  138.78
   1  16   0   -5.59  172.32
  -1 -16   0   16.39  126.32
  -2 -16   0  -33.34  122.44
   2  16   0    5.85  184.70
  -2 -16   0   -8.79  204.96
   2  16   0  101.27  145.39
   3  16   0   -7.19  158.53
  -3 -16   0 -148.81  216.18
  -3 -16   0 -209.70  119.25
   3  16   0 -337.41  193.04
   4  16   0  151.08  162.27
   4  16   0 -178.33  192.91
  -4 -16   0  136.54  122.22
  -4 -16   0 -124.79  222.89
   5  16   0    7.87  168.88
  -7  17   0 -265.38  237.04
   6 -17   0   22.51  147.81
  -6  17   0  -17.04  110.64
  -6  17   0 -322.75  242.56
  -5  17   0 -232.29  116.87
  -5  17   0   13.42  230.75
   5 -17   0    7.21  145.26
   4 -17   0    9.70  148.40
  -4  17   0 -130.13  219.45
  -4  17   0    5.32  112.13
   4 -17   0   -6.88  147.24
   3 -17   0   41.42  144.99
   3 -17   0   28.25  151.98
  -3  17   0  -49.17  115.36
  -3  17   0   25.24  219.59
   2 -17   0  -28.84  164.12
  -2  17   0 -210.68  138.17
   2 -17   0 -302.38  143.50
  -1  17   0 1671.95  333.68
  -1  17   0 1069.51  281.24
   0  17   0 2177.66  421.63
   0  17   0 1519.28  377.92
   1  17   0  143.93  176.71
  -1 -17   0   26.93  236.73
  -1 -17   0  138.45  162.46
   1  17   0  662.97  233.57
   2  17   0 -389.42  169.94
   2  17   0   -6.48  213.08
  -2 -17   0  187.77  132.54
  -2 -17   0   -9.57  223.25
   3  17   0 -102.28  165.58
  -3 -17   0  349.75  141.87
  -3 -17   0  -40.44  233.80
   3  17   0   -6.69  206.34
   4  17   0   83.04  205.62
  -4 -17   0 -170.29  138.56
  -4 -17   0  -52.42  240.38
   4  17   0 -164.36  178.36
  -5 -17   0 -247.78  243.68
  -5 -17   0   10.24  132.90
   5  17   0    8.52  186.26
  -7  18   0  260.28  272.18
   6 -18   0   33.05  203.53
  -6  18   0    6.20  133.40
  -6  18   0  717.49  279.26
   5 -18   0 -143.73  184.79
  -5  18   0   54.86  123.54
  -5  18   0  521.64  262.57
   5 -18   0    8.01  164.52
  -4  18   0  -66.07  123.29
   4 -18   0   10.76  169.25
  -4  18   0    7.07  234.12
   4 -18   0   -7.68  166.03
  -3  18   0  130.90  239.10
   3 -18   0   -7.71  165.70
  -3  18   0   -6.07  126.24
   3 -18   0 -220.79  167.88
   2 -18   0   93.24  162.61
   2 -18   0   24.12  177.35
  -2  18   0   51.08  140.51
  -2  18   0  300.76  228.51
  -1  18   0  181.73  152.12
   1 -18   0  -25.72  200.32
   1 -18   0  224.74  166.13
  -1  18   0  397.96  229.61
   0 -18   0  154.04  161.77
   0  18   0  -79.68  219.26
   0  18   0   77.99  151.36
   0 -18   0    9.20  211.10
  -1 -18   0   -9.79  217.12
   1  18   0  103.01  226.58
  -1 -18   0  -10.44  148.68
   1  18   0   52.85  166.43
   2  18   0 -152.16  180.23
  -2 -18   0   10.44  237.72
   2  18   0   35.61  228.40
  -2 -18   0 -471.40  137.16
   3  18   0  270.62  235.21
  -3 -18   0 -163.64  155.28
   3  18   0   42.47  186.95
  -3 -18   0   21.94  254.56
  -4 -18   0   22.78  270.96
  -4 -18   0   55.28  145.29
   4  18   0   89.32  194.14
   4  18   0  105.65  236.50
  -7  19   0   58.85  294.84
  -6  19   0   40.93  284.11
   6 -19   0   -9.11  178.11
  -6  19   0   61.13  132.14
   5 -19   0    8.90  180.44
  -5  19   0 -166.92  278.24
   5 -19   0   97.49  203.65
  -5  19   0   13.46  135.75
  -4  19   0    6.66  142.57
  -4  19   0  100.21  264.68
   4 -19   0   60.08  177.17
   4 -19   0   43.51  181.51
   3 -19   0   11.78  182.00
  -3  19   0   13.49  150.27
   3 -19   0   -8.63  203.75
  -3  19   0 -885.72  280.11
   2 -19   0  -89.68  247.54
   0 -19   0 1217.13  550.21
   1  19   0 3552.30  797.04
  -2 -19   0  -11.33  275.91
  -2 -19   0   11.89  164.30
  -3 -19   0 -109.47  180.69
   3  19   0 -680.23  218.04
  -3 -19   0  -47.52  295.23
   3  19   0 -768.37  267.13
   4  19   0  115.65  254.36
  -4 -19   0 -232.66  163.70
   4  19   0   -9.63  213.73
  -4 -19   0  -49.38  285.90
   6 -20   0  -20.15  201.87
  -6  20   0  -67.22  150.25
   5 -20   0  -13.56  187.52
  -5  20   0  -37.39  154.47
   5 -20   0   39.64  199.32
   4 -20   0   38.97  203.64
  -4  20   0    8.42  290.20
   4 -20   0 -147.52  218.24
  -4  20   0  -14.78  151.46
   3 -20   0  106.27  207.48
  -3  20   0 -388.99  284.24
  -3  20   0 -145.33  160.94
   3 -20   0    9.72  230.18
  -2  20   0  267.17  266.14
   2 -20   0  -10.00  217.15
  -2  20   0 -164.80  169.81
   2 -20   0  -13.12  197.79
  -1  20   0 -282.40  276.97
   1 -20   0  -62.80  244.14
  -1  20   0 -249.42  178.25
   1 -20   0  249.61  208.32
   0 -20   0  105.68  192.21
   0 -20   0   11.16  255.00
   0  20   0  761.28  286.25
   0  20   0 -122.52  188.86
   1  20   0    8.47  280.21
  -1 -20   0 -119.22  192.45
  -1 -20   0  -11.75  274.19
   1  20   0  -91.33  204.28
  -2 -20   0  389.03  194.07
  -2 -20   0   12.30  279.73
   2  20   0 -199.60  273.62
   2  20   0 -373.94  215.89
  -3 -20   0  -38.52  299.20
   3  20   0  -10.02  219.39
  -1   1  -1    0.28    0.47
  -1   1  -1   -0.35    1.13
   1  -1   1    2.95    1.78
   1  -1   1   -0.33    0.49
  -1   2  -1 1735.19  409.34
  -1   2  -1 1438.23  401.49
  -1   2  -1 2032.77  441.13
  -1   2  -1 1868.99  470.67
   1  -2  -1 1885.44  407.70
   1  -2   1 1597.26  406.97
   1  -2   1 1604.20  390.94
  -1   2   1 1540.61  413.84
   0   2  -1   -1.15   10.50
   0   2  -1   -1.11    5.79
   0  -2  -1   -3.04    7.00
   0   2   1   -0.50    6.05
   0  -2   1   -1.30    5.29
  -1  -2  -1 1869.92  431.45
   1   2   1 1726.25  498.62
   1   2   1 1793.96  433.26
  -2   3  -1    0.87   10.88
  -2   3  -1    4.87   16.26
  -2   3  -1    1.60    6.87
   2  -3  -1    4.00   11.44
   2  -3   1    2.52    5.58
  -2   3   1    4.42   15.40
   2  -3   1   -4.17   10.57
   1  -3  -1  497.13  142.09
  -1   3  -1  701.34  139.46
  -1   3  -1  553.12  165.30
  -1   3  -1  637.61  149.39
  -1   3  -1  564.80  139.46
  -1   3   1  477.25  167.64
   1  -3   1  652.24  144.78
  -1   3   1  589.83  142.34
   0  -3  -1  321.99   85.60
   0   3  -1  358.08   82.03
   0   3  -1  283.01   95.63
   0   3  -1  382.07   88.00
   0   3   1  335.23   80.44
   0  -3   1  311.34   79.80
   0  -3   1  349.15   92.35
   1   3  -1  643.52  182.97
  -1  -3  -1  623.82  143.25
   1   3   1  495.82  147.27
   1   3   1  488.77  166.10
  -1  -3   1  712.78  153.57
  -2  -3  -1    1.85   14.47
   2   3   1    2.81   24.72
  -3   4  -1   35.34   27.75
   3  -4   1   50.51   21.08
  -2   4  -1  622.87  220.01
   2  -4  -1  779.53  189.86
  -2   4  -1  812.37  187.44
  -2   4  -1  876.07  190.24
  -2   4  -1  771.16  209.71
  -2   4   1  881.54  219.41
   2  -4   1  627.60  187.72
  -2   4   1  918.36  187.91
   1  -4  -1   77.91   26.55
  -1   4  -1   71.98   34.33
  -1   4  -1  112.49   21.07
  -1   4  -1   58.31   23.54
  -1   4  -1   79.91   24.92
   1  -4   1   68.97   27.79
  -1   4   1  100.21   24.75
  -1   4   1  104.08   34.64
   1  -4   1   76.75   20.63
   0  -4  -1   10.27   20.70
   0   4  -1    1.11   17.42
   0   4  -1   -1.88   12.03
   0   4  -1   -3.34   25.11
   0   4  -1   -4.46    5.00
   0  -4   1   -2.53   12.86
   0   4   1    1.03   15.66
   0  -4   1    1.89   15.05
   1   4  -1   99.50   30.65
   1   4  -1   56.17   37.66
  -1  -4   1   70.09   26.15
   1   4   1   76.91   28.42
  -2  -4  -1  795.46  209.11
   2   4   1  864.49  209.40
   2   4   1  957.17  242.47
  -3   5  -1 1111.80  331.20
   3  -5   1 1668.24  336.93
  -2   5  -1  598.86  160.24
  -2   5  -1  553.33  148.74
  -2   5  -1  432.78  172.06
   2  -5  -1  689.21  148.14
   2  -5   1  709.87  148.40
   2  -5   1  642.72  142.06
  -2   5   1  715.96  145.24
  -1   5  -1 2413.09  519.54
  -1   5  -1 1919.94  554.50
  -1   5  -1 2442.56  608.50
  -1   5  -1 1707.21  526.96
   1  -5  -1 2297.23  541.03
   1  -5  -1 2108.90  501.42
   1  -5   1 2553.81  523.79
   1  -5   1 2222.35  585.39
  -1   5   1 2352.88  515.96
   1  -5   1 1916.77  549.86
  -1   5   1 2528.35  575.83
  -1   5   1 2296.60  619.45
   0   5  -1   77.83   39.77
   0   5  -1   78.10   28.82
   0  -5  -1   39.32   15.20
   0   5  -1   49.33   24.56
   0  -5  -1   81.25   21.93
   0   5  -1   62.93   15.68
   0  -5  -1  127.31   33.91
   0  -5   1   81.21   27.84
   0   5   1   57.64   26.15
   0   5   1   65.19   19.84
   0   5   1   63.54   15.39
   0  -5   1   80.32   23.16
   1   5  -1 1974.79  617.94
   1   5  -1 2153.86  551.30
   1   5  -1 2611.23  520.32
  -1  -5   1 2209.63  535.39
   1   5   1 1886.81  539.98
   2   5   1  447.04  137.96
  -4   6  -1  -16.01   47.38
  -4   6   1   18.47   45.40
   4  -6   1  -11.97   32.56
   3  -6  -1   28.80   31.87
  -3   6  -1   31.06   24.70
  -3   6  -1   -1.67   48.84
  -3   6   1   15.84   48.72
   3  -6   1   17.33   13.33
  -3   6   1   26.86   31.21
  -2   6  -1 3408.35  817.64
   2  -6  -1 4118.06  798.21
  -2   6  -1 2961.02  852.41
  -2   6   1 2642.76  774.10
  -2   6   1 3312.82  921.87
  -2   6   1 4126.19  929.64
  -1   6  -1  332.73   62.70
  -1   6  -1  260.17   67.72
   1  -6  -1  210.73   60.18
  -1   6   1  257.29   66.49
   1  -6   1  227.23   62.79
   1  -6   1  297.17   72.10
  -1   6   1  209.31   88.63
  -1   6   1  276.24   65.81
   0  -6  -1    1.61    7.06
   0   6  -1    7.51   23.41
   0   6  -1    1.57    8.83
   0  -6  -1   14.31   21.51
   0   6   1    0.75    6.87
   0  -6   1    5.08   30.22
   0   6   1    3.46   16.97
   0   6   1    6.98   53.23
   1   6  -1  298.46   91.31
   1   6  -1  285.88   68.29
  -1  -6   1  316.85   74.33
  -2  -6  -1 3611.86  849.76
   2   6  -1 3563.84  881.29
   2   6  -1 3144.24 1004.62
   2   6   1 4026.78  878.40
  -2  -6   1 4092.02  872.08
  -3  -6  -1   37.00   38.51
   3   6   1   56.52   66.37
   3   6   1    9.95   44.54
  -5   7  -1   67.32   66.42
  -4   7  -1  813.25  168.15
   4  -7  -1  425.84  175.07
  -4   7  -1  574.90  200.69
  -4   7   1  566.64  168.55
   4  -7   1  671.00  175.30
  -4   7   1  989.44  199.80
   3  -7  -1   55.23   40.41
  -3   7  -1    1.13   26.99
  -3   7  -1   21.48   33.27
  -3   7  -1  -55.77   58.89
  -3   7   1   38.72   36.26
  -3   7   1   52.66   59.66
   3  -7   1    1.99   36.89
   3  -7   1   18.99   14.17
  -2   7  -1  998.81  182.91
   2  -7  -1  900.92  191.27
  -2   7  -1  897.54  224.18
  -2   7  -1  631.53  197.12
   2  -7   1  725.34  193.52
  -2   7   1  539.53  224.40
  -2   7   1  829.03  183.09
   2  -7   1  842.85  187.66
  -2   7   1  722.60  208.05
   1  -7  -1  162.43   36.77
  -1   7  -1  140.72   44.75
  -1   7  -1  159.96   38.38
  -1   7  -1  149.09   71.75
   1  -7  -1  129.05   44.86
  -1   7  -1  131.75   49.24
   1  -7  -1  117.47   54.93
  -1   7   1  137.16   40.38
  -1   7   1  246.02   74.81
  -1   7   1  219.52   49.14
   1  -7   1  112.54   59.57
   1  -7   1  139.79   47.93
  -1   7   1   98.20   41.36
   1  -7   1  184.07   38.94
   0   7  -1   49.48   30.52
   0   7  -1   41.22   60.65
   0  -7  -1   34.71   14.31
   0   7  -1   54.73   14.75
   0   7  -1   30.29   40.74
   0  -7  -1   36.93   51.07
   0  -7  -1   27.77   31.51
   0   7   1   41.87   38.60
   0   7   1   77.00   25.93
   0  -7   1   58.69   32.82
   0   7   1   61.29   62.75
   0  -7   1   90.15   53.30
   0   7   1   41.64   14.06
   0  -7   1   66.25   38.75
   1   7  -1  235.04   63.19
   1   7  -1  127.14   74.05
   1   7  -1  187.21   41.21
   1   7   1  163.17   38.80
   1   7   1  138.57   58.42
  -1  -7   1  174.40   50.59
   2   7  -1 1030.34  215.92
   2   7  -1  697.95  242.62
   2   7   1  954.39  214.66
   3   7  -1  -32.63   53.26
  -3  -7  -1  -18.20   38.37
   3   7   1   25.46   74.41
   3   7   1   48.30   53.21
  -4  -7  -1  763.97  201.84
   4   7   1  951.36  202.75
   5  -8   1  475.15  178.85
  -4   8  -1  256.71   82.76
  -4   8  -1  171.12   51.70
   4  -8  -1  225.43   58.01
  -4   8  -1   -1.50   47.22
  -4   8   1  144.34   54.07
   4  -8   1  137.41   56.41
  -4   8   1  103.50   74.77
  -3   8  -1 1513.21  361.48
  -3   8  -1 1063.00  328.49
  -3   8  -1 1005.05  290.31
   3  -8  -1 1360.97  306.65
  -3   8   1 1311.98  355.71
  -3   8   1 1114.87  289.17
   3  -8   1 1389.51  306.61
  -2   8  -1  154.21   52.77
  -2   8  -1  113.40   43.56
  -2   8  -1  111.95   39.93
   2  -8  -1  152.89   57.31
  -2   8  -1   -2.31   91.77
  -2   8   1  136.30   87.85
  -2   8   1  133.49   49.94
  -2   8   1  178.36   42.05
   2  -8   1  153.38   59.69
   2  -8   1   95.66   37.83
   2  -8   1  164.88   47.75
   1  -8  -1   16.36   23.69
  -1   8  -1   14.82   15.65
  -1   8  -1   48.11   71.04
  -1   8  -1   26.51   42.40
   1  -8  -1   55.61   50.40
   1  -8  -1   18.97   12.38
  -1   8  -1    5.99   28.73
  -1   8   1   -2.00   39.83
  -1   8   1   54.44   16.75
   1  -8   1   81.02   53.35
  -1   8   1   36.75   22.50
   1  -8   1   37.85   16.30
  -1   8   1   11.85   71.93
   1  -8   1   57.82   33.13
   0  -8  -1   -4.15    9.66
   0  -8  -1   34.65   55.10
   0   8  -1  -11.76   49.74
   0   8  -1   20.30   69.75
   0  -8  -1  -13.02   35.16
   0   8  -1   14.20   33.05
   0  -8  -1   11.36   35.43
   0   8  -1   -0.65   10.95
   0   8   1   28.40   26.59
   0   8   1  -11.15   44.11
   0  -8   1    9.07   60.10
   0  -8   1   13.81   34.58
   0   8   1   -9.37   73.84
   0  -8   1   36.48   45.33
   0   8   1    0.58   10.76
   1   8  -1   21.65   14.79
   1   8  -1   27.73   64.65
   1   8  -1   76.63   54.24
   1   8   1   -7.71   54.40
  -1  -8   1   36.27   35.99
   1   8   1   29.03   10.60
   2   8  -1  203.09   76.32
   2   8  -1  106.55   93.53
   2   8  -1  167.00   46.05
   2   8   1  214.10   73.23
   2   8   1  188.96   44.32
  -2  -8   1  271.44   63.82
   3   8  -1 1520.75  394.79
  -3  -8  -1 1573.43  335.62
   3   8  -1 1424.22  348.60
   3   8   1 1494.87  350.41
   3   8   1 1246.27  385.89
  -3  -8   1 1448.53  344.27
  -4  -8  -1  137.98   66.79
   4   8   1  285.99   81.06
   4   8   1  213.90  101.98
  -6   9  -1  116.38   92.20
  -5   9  -1  279.19  104.37
  -5   9  -1  136.54   71.66
  -5   9  -1  204.51   74.61
   5  -9  -1   93.67   76.50
   5  -9   1  276.10   76.11
  -5   9   1  308.71  100.16
  -4   9  -1 2155.05  656.67
  -4   9  -1 2263.71  528.68
   4  -9  -1 2087.45  569.63
   4  -9   1 2493.04  568.65
  -4   9   1 2195.90  641.78
  -4   9   1 2306.75  529.65
   3  -9  -1   -5.44   51.04
  -3   9  -1  -32.90   87.31
  -3   9  -1    4.50   44.97
  -3   9   1  -44.20   45.93
   3  -9   1   -2.65   52.88
  -3   9   1 -102.57   81.98
  -3   9   1  -17.18   29.57
  -2   9  -1  617.57  152.51
  -2   9  -1  680.80  159.30
  -2   9  -1  994.25  195.06
   2  -9  -1  723.77  163.68
   2  -9   1  544.94  157.27
   2  -9   1  633.68  177.86
   2  -9   1  519.27  164.89
  -2   9   1  556.78  159.69
  -2   9   1  532.65  151.53
  -2   9   1  713.06  196.11
   1  -9  -1   -9.57   31.29
  -1   9  -1    3.00   16.68
  -1   9  -1    6.96   31.53
   1  -9  -1   20.67   59.30
  -1   9  -1   80.75   84.03
   1  -9  -1   12.37   13.41
  -1   9  -1   14.15   48.05
  -1   9   1    1.03   15.99
   1  -9   1    6.13   38.89
  -1   9   1  -13.90   49.01
   1  -9   1    4.24   15.23
  -1   9   1  -20.98   25.73
   1  -9   1   -6.05   62.68
  -1   9   1   48.91   86.83
   0   9  -1    1.47   37.36
   0  -9  -1  -19.65   42.74
   0   9  -1   -6.65   13.13
   0   9  -1  -15.41   81.28
   0   9  -1   48.62   53.77
   0  -9  -1   -5.45   44.83
   0  -9  -1    8.84   12.22
   0  -9  -1   20.14   70.42
   0  -9   1   76.63   70.56
   0   9   1  -37.38   80.81
   0  -9   1   16.01   40.97
   0  -9   1   32.81   54.74
   0   9   1  -12.90   54.21
   1   9  -1  -10.40   76.18
  -1  -9  -1   49.67   82.11
  -1  -9  -1   16.88   46.19
   1   9  -1   34.07   63.66
   1   9  -1  -16.32   14.93
   1   9   1   37.44   79.94
  -1  -9   1  -20.62   44.22
   1   9   1    8.80   60.05
   2   9  -1  900.33  195.87
   2   9  -1  648.16  212.33
   2   9  -1  658.08  177.35
  -2  -9   1  959.05  182.88
   2   9   1  925.38  194.41
  -3  -9  -1   17.17   52.95
   3   9  -1   73.51   95.89
   3   9  -1  -22.62   76.10
  -3  -9   1    9.25   54.35
   3   9   1  -14.50   75.48
   4   9  -1 2408.48  609.19
   4   9   1 2564.91  675.78
   4   9   1 2421.39  612.23
  -6  10  -1  252.03   89.45
  -6  10  -1  277.17  123.52
  -5  10  -1  571.29  142.17
   5 -10  -1  442.50  109.01
  -5  10  -1  252.96   99.11
  -5  10  -1  176.47  105.48
  -5  10   1  439.99  137.22
  -5  10   1  543.24  103.32
   5 -10   1  266.80  108.43
  -4  10  -1   48.81   54.54
  -4  10  -1   50.03   43.13
  -4  10  -1   82.62  101.99
   4 -10  -1   39.98   64.04
   4 -10   1  100.92   65.12
  -4  10   1   42.94   56.63
  -4  10   1   97.53  100.06
  -3  10  -1 1280.51  353.48
   3 -10  -1 1193.53  297.67
  -3  10  -1 1113.12  279.36
   3 -10   1 1475.22  298.74
   3 -10   1 1206.17  298.37
  -3  10   1 1264.87  351.82
  -3  10   1 1051.44  277.21
   2 -10  -1   21.99   64.22
  -2  10  -1   -5.05   50.08
  -2  10  -1    9.06   98.02
   2 -10   1   12.66   65.19
  -2  10   1  -12.43   96.02
   2 -10   1    8.15   37.28
  -2  10   1  -28.15   52.52
   1 -10  -1   75.01   72.03
  -1  10  -1   10.79   57.85
  -1  10  -1  178.63   94.45
   1 -10   1    3.49   74.92
  -1  10   1   61.75  102.68
   1 -10   1   73.77   49.89
  -1  10   1   29.21   56.39
   0 -10  -1  -22.71   53.59
   0 -10  -1  -57.49   76.57
   0  10  -1   15.41   64.36
   0  10  -1   69.22   88.15
   0  10   1    5.98   94.55
   0 -10   1   25.77   52.02
   0 -10   1   -3.98   82.87
   0  10   1   -2.93   60.20
  -1 -10  -1   50.50   52.93
   1  10  -1   14.56   89.87
  -1 -10  -1  -30.47   95.76
   1  10  -1   45.14   75.06
   1  10   1  -56.72   73.52
   1  10   1  -11.97   94.07
  -1 -10   1   46.71   51.12
   2  10  -1  -13.45   98.68
   2  10  -1   27.25   81.30
   2  10   1   18.60   75.91
  -2 -10   1   83.54   57.54
   3  10  -1 1410.34  366.00
   3  10  -1 1433.96  337.33
   3  10   1 1503.81  337.45
  -3 -10   1 1100.94  320.67
   4  10  -1  141.52   93.14
  -4 -10  -1   53.79   64.79
   4  10   1  108.39  113.23
   4  10   1  -25.76   89.05
  -6  11  -1   97.47  120.28
  -6  11   1   86.80  118.61
  -5  11  -1  -16.40   65.64
  -5  11  -1  171.01  125.39
   5 -11  -1   -4.09   75.77
   5 -11   1   46.99   79.68
  -5  11   1  -28.76  113.53
  -5  11   1    3.41   66.79
  -4  11  -1  703.35  238.49
   4 -11  -1  801.02  191.08
  -4  11  -1  665.39  170.70
  -4  11   1  442.15  170.50
  -4  11   1  734.82  233.54
   4 -11   1  795.49  189.32
  -3  11  -1   -2.84   60.98
  -3  11  -1   24.34  111.49
   3 -11  -1   20.93   68.15
  -3  11   1   63.91  111.61
   3 -11   1   -6.85   71.76
  -3  11   1   46.32   58.45
   2 -11  -1  -32.30   75.69
  -2  11  -1   62.94   61.15
  -2  11  -1    3.41  114.11
   2 -11   1  112.05   80.48
  -2  11   1  111.93  118.93
  -2  11   1   49.14   59.72
   1 -11  -1    7.81   81.92
  -1  11  -1   42.89   65.25
  -1  11  -1   16.34  112.45
   1 -11   1  139.36   87.60
  -1  11   1   -9.05   66.58
  -1  11   1   58.43  114.99
   1 -11   1  121.82   58.48
   0  11  -1   87.01  108.08
   0  11  -1  127.52   80.62
   0 -11  -1  116.79   66.02
   0 -11  -1   17.44   95.67
   0 -11   1   62.87   98.24
   0  11   1   62.98   76.80
   0  11   1  163.68  110.50
   0 -11   1  121.93   61.37
   1  11  -1  -16.29  101.32
  -1 -11  -1   48.56   64.52
   1  11  -1    3.88   79.02
  -1 -11  -1   29.36  107.06
  -1 -11   1   75.27  109.90
   1  11   1  123.52   83.29
  -1 -11   1   80.03   59.55
   1  11   1  148.40  107.82
   2  11  -1  187.88  114.80
   2  11  -1  134.26   97.52
   2  11   1   14.11  112.66
  -2 -11   1  117.06   67.28
   2  11   1  148.52   91.84
   3  11  -1   -8.16  121.39
   3  11  -1   50.76   97.14
   3  11   1  -26.96   97.96
  -3 -11   1   21.69   65.95
   4  11  -1  820.60  223.84
   4  11  -1  574.72  248.41
  -4 -11  -1  978.76  207.39
   4  11   1  794.41  244.93
  -4 -11   1  761.70  206.05
   4  11   1  920.54  224.07
  -5 -11  -1  -75.67   84.59
   5  11   1 -214.83  109.74
  -6  12  -1   29.11  139.28
  -6  12   1   85.94  129.76
   6 -12   1   28.07   90.10
  -5  12  -1  218.60  175.31
   5 -12  -1  437.38  131.68
  -5  12  -1  610.85  115.84
   5 -12   1  314.90  129.55
  -5  12   1  294.26  169.74
  -5  12   1  332.21  112.24
  -4  12  -1  -63.75  135.31
  -4  12  -1  -48.50   64.06
   4 -12  -1    4.12   81.88
  -4  12   1   86.93   65.47
   4 -12   1   70.64   78.41
  -4  12   1  134.00  132.45
  -3  12  -1  209.23   86.57
   3 -12  -1  283.31   99.96
  -3  12  -1  311.27  148.36
  -3  12   1  146.83  149.56
  -3  12   1  190.38   84.77
   3 -12   1  247.38  105.32
  -2  12  -1   45.17   72.04
   2 -12  -1   20.37   88.54
  -2  12  -1 -120.97  135.53
   2 -12   1   49.24   88.75
  -2  12   1  -31.36  134.07
  -2  12   1  -48.81   74.47
   1 -12  -1  -30.91   98.36
   1 -12  -1  -10.05   79.06
  -1  12  -1  295.00  122.77
  -1  12  -1  -31.22   76.45
   1 -12   1   43.14   72.63
   1 -12   1  -22.38  103.66
  -1  12   1  330.32  139.38
  -1  12   1   27.31   77.99
   0 -12  -1  200.23  135.66
   0 -12  -1  167.28   93.22
   0  12  -1  446.61  135.30
   0  12  -1   38.50   96.95
   0 -12   1  197.01  128.57
   0  12   1  512.47  153.98
   0 -12   1   -4.81   82.76
   0  12   1  313.19  105.80
   1  12  -1  152.78  120.50
  -1 -12  -1  -71.35  124.53
   1  12  -1   78.17   93.49
  -1 -12  -1   65.50   78.81
   1  12   1   29.04   93.75
  -1 -12   1    5.61  128.62
  -1 -12   1  -40.16   65.38
   1  12   1  361.56  131.98
   2  12  -1    4.04  122.01
  -2 -12  -1 -137.34  139.66
  -2 -12  -1  139.19   72.51
   2  12  -1   52.52   97.77
   2  12   1 -117.14  130.67
   2  12   1  -32.01  102.04
  -2 -12   1   48.69   69.95
   3  12  -1  364.70  135.79
   3  12  -1  264.47  151.76
   3  12   1  301.60  130.42
  -3 -12   1  284.24  102.49
  -4 -12  -1   -6.33   83.22
   4  12  -1    4.78  134.86
   4  12  -1  176.40  114.51
   4  12   1    5.23  114.37
  -4 -12   1   70.72   81.46
  -5 -12  -1  534.36  121.33
   5  12   1   21.86  149.04
  -7  13  -1   -4.72  171.21
  -6  13   1   -4.63  147.72
  -5  13  -1   80.22   78.12
   5 -13   1   38.00   97.74
  -4  13  -1  267.45   88.40
   4 -13  -1  -18.15  108.72
   4 -13   1  288.62  111.54
  -4  13   1   -3.68   96.16
   3 -13  -1  -17.71   93.66
  -3  13  -1   70.62   76.29
  -3  13  -1   86.85  148.69
  -3  13   1  150.85   77.88
   3 -13   1   13.05   95.57
  -2  13  -1   62.37  146.25
   2 -13  -1  -23.02   97.38
  -2  13  -1   61.67   80.68
   2 -13   1 -111.03  105.79
   2 -13   1 -146.10   89.41
  -2  13   1  211.86   81.56
   1 -13  -1  351.02   90.43
   1 -13  -1  114.76  114.34
  -1  13  -1  -81.78   92.83
  -1  13  -1   40.25  139.53
  -1  13   1  435.03  144.12
  -1  13   1   88.21   88.86
   1 -13   1  105.93  118.46
   1 -13   1   48.96   83.81
   0  13  -1   86.08  132.59
   0  13  -1  150.21  101.22
   0 -13  -1  214.22  128.53
   0 -13  -1  178.39   84.55
   0  13   1  552.82  142.26
   0  13   1   41.64   95.20
   0 -13   1   -5.61  125.81
   0 -13   1 -125.27   83.22
   1  13  -1   91.30  108.46
  -1 -13  -1  261.91  143.11
   1  13  -1  337.56  130.95
  -1 -13  -1   -5.67   74.80
  -1 -13   1  211.24  144.56
   1  13   1   -3.99  118.31
  -1 -13   1  152.79   83.54
   1  13   1  152.40  106.99
  -2 -13  -1  145.88  152.46
   2  13  -1  -47.13  113.49
  -2 -13   1 -120.46  153.48
   2  13   1    5.08  113.53
  -5 -13  -1  109.45   84.77
   5  13   1   -5.97   99.57
  -7  14  -1  210.02  188.21
  -6  14  -1  -88.48   92.48
  -6  14  -1 -113.57  179.25
   6 -14  -1   -5.80  107.52
  -6  14   1   20.57  171.97
   6 -14   1   28.00  108.01
  -5  14  -1  -29.03   86.30
  -5  14  -1  -70.39  172.22
   5 -14  -1  -43.55  117.89
  -5  14   1  -38.59   89.00
  -5  14   1    5.06  173.42
   5 -14   1   57.63  116.55
   4 -14  -1   10.10  112.00
  -4  14  -1 -428.32  178.13
  -4  14   1  -64.90   88.24
  -4  14   1 -198.74  169.23
  -3  14  -1  -42.96  165.21
   3 -14  -1   39.79  110.25
  -3  14   1  188.03   88.76
  -3  14   1   58.83  171.73
   2 -14  -1   -6.61  106.92
  -2  14   1 -113.69  163.38
   2 -14   1   -6.32   98.24
   1 -14  -1    6.39  101.70
   1 -14   1   -6.16   98.31
  -1  14   1  323.39  169.38
   0  14  -1   34.53  137.18
   0 -14  -1 -183.99   85.62
   0 -14   1    6.20   90.60
   0  14   1  239.08  154.38
  -1 -14  -1   89.12   98.51
   1  14  -1    4.52  148.91
   1  14   1  120.02  153.48
  -1 -14   1   70.76   99.90
  -2 -14  -1   67.24  105.19
   2  14  -1  471.33  130.73
  -2 -14  -1   65.63  174.78
   2  14  -1  290.93  156.06
  -2 -14   1   -6.67   95.66
  -2 -14   1  944.57  168.22
   2  14   1   72.56  130.62
   2  14   1  -71.89  162.71
   3  14  -1  240.20  130.45
  -3 -14  -1   -7.02   89.28
  -3 -14  -1  161.92  173.51
   3  14  -1    5.17  153.53
   3  14   1  196.98  127.95
  -3 -14   1    7.14   94.00
   3  14   1    5.13  153.18
   4  14  -1  -71.17  140.05
   4  14   1 -163.31  143.42
  -4 -14   1  -45.44   97.68
  -5 -14  -1   15.81  102.03
   5  14   1  276.44  144.77
  -7  15  -1  209.20  203.16
  -6  15  -1   61.92   95.80
  -6  15  -1  510.12  198.42
   6 -15  -1   25.41  122.87
  -6  15   1 -142.17  189.09
   6 -15   1  -12.26  120.87
  -5  15  -1  -27.15   92.49
  -5  15  -1  -77.72  189.57
   5 -15  -1    6.01  119.85
  -5  15   1    4.66   92.26
  -5  15   1   33.49  190.92
   5 -15   1   -5.78  114.55
  -4  15  -1   -8.69   91.35
   4 -15  -1  -33.78  115.09
  -4  15  -1    5.40  183.83
  -4  15   1   35.76   93.34
  -4  15   1  109.91  191.03
   4 -15   1  -27.11  119.62
   3 -15  -1  -27.88  118.17
  -3  15  -1  208.44  182.46
  -3  15  -1   21.83   92.23
   3 -15   1   36.99  115.96
  -3  15   1   53.28   92.62
  -3  15   1   53.74  185.74
   3 -15   1    5.46  127.54
   2 -15  -1   -7.37  114.67
  -2  15  -1   77.75  101.88
   2 -15  -1  -23.19  129.81
  -2  15  -1    5.02  168.14
  -2  15   1  -27.58  102.24
   2 -15   1  -49.87  108.54
  -2  15   1   88.16  183.99
   2 -15   1   11.56  132.35
   1 -15  -1   12.53  138.99
  -1  15  -1  -24.39  171.02
  -1  15  -1   24.27  108.50
   1 -15  -1   21.63  103.85
  -1  15   1   28.93  103.19
   1 -15   1  -49.03   99.19
   1 -15   1  -31.40  145.46
  -1  15   1    5.07  178.62
   0 -15  -1  -67.99  163.62
   0  15  -1    4.73  157.84
   0 -15  -1  271.58  108.21
   0  15  -1   57.90  119.18
   0  15   1  108.78  118.30
   0 -15   1    6.96  105.48
   0  15   1  245.33  171.40
   0 -15   1    6.88  158.71
   1  15  -1   95.88  160.10
  -1 -15  -1    7.27  101.53
  -1 -15  -1 -274.82  172.82
   1  15  -1    5.77  131.36
   1  15   1  -72.96  122.90
   1  15   1    4.97  171.53
  -1 -15   1 -325.65  111.08
  -1 -15   1  -37.71  168.84
   2  15  -1 -101.05  169.75
   2  15  -1 -119.53  138.41
  -2 -15  -1   45.51  105.60
  -2 -15  -1  119.78  178.75
  -2 -15   1    7.48  102.79
   2  15   1    6.08  135.05
  -2 -15   1  -72.70  187.31
   2  15   1  -47.56  174.67
  -3 -15  -1    8.47  186.91
   3  15  -1 -258.22  180.45
  -3 -15  -1  116.52  101.52
   3  15  -1   60.30  145.85
  -3 -15   1 -195.29  201.22
   3  15   1    6.52  139.21
   3  15   1   56.10  173.06
  -3 -15   1    7.87  104.51
   4  15  -1  236.30  177.22
   4  15  -1   28.13  148.20
  -4 -15   1    8.25  113.25
   4  15   1    6.82  144.02
   5  15   1  315.94  168.67
  -7  16  -1   57.23  217.24
  -7  16   1   38.28  213.42
   6 -16  -1   -6.97  137.51
  -6  16  -1 -112.37  223.31
  -6  16  -1  102.97  109.19
  -6  16   1 -312.55  216.20
   6 -16   1   -6.68  142.18
  -6  16   1    5.31  105.14
  -5  16  -1  -14.86  105.54
   5 -16  -1   -6.65  132.62
  -5  16  -1   85.76  211.68
  -5  16   1   73.79  211.54
  -5  16   1   25.51  100.92
   5 -16   1   -6.39  130.16
  -4  16  -1  -23.92  102.87
   4 -16  -1  -18.85  131.78
  -4  16  -1    5.94  194.83
  -4  16   1  145.64  197.72
   4 -16   1   24.16  125.23
   4 -16   1   68.69  132.06
  -4  16   1  -49.44  102.72
  -3  16  -1    5.69  187.50
   3 -16  -1   25.68  126.11
   3 -16  -1  -12.49  125.76
  -3  16  -1   -4.85  104.33
   3 -16   1   18.32  130.08
  -3  16   1   44.40  106.21
   3 -16   1    8.26  129.42
  -3  16   1  216.47  201.30
   2 -16  -1   19.49  138.72
   2 -16  -1 -389.72  131.75
  -2  16  -1   -5.10  112.43
  -2  16  -1  215.13  186.41
  -2  16   1  -66.50  112.10
   2 -16   1  -12.89  143.94
  -2  16   1   -5.69  193.19
   2 -16   1    8.01  117.60
  -1  16  -1 -360.24  178.99
  -1  16  -1   92.09  115.61
   1 -16  -1    8.11  118.36
   1 -16  -1    6.99  150.38
   1 -16   1  236.54  121.47
   1 -16   1   -6.98  154.11
  -1  16   1   21.53  120.03
  -1  16   1    5.54  181.85
   0 -16  -1    7.53  161.08
   0  16  -1   -5.29  171.74
   0  16  -1   40.86  122.11
   0 -16  -1   40.54  123.09
   0  16   1  107.67  183.01
   0  16   1    5.75  127.20
   0 -16   1    7.56  174.02
   0 -16   1 -269.98  113.35
  -1 -16  -1  -16.27  190.87
   1  16  -1  -94.89  143.82
  -1 -16  -1   32.81  119.76
   1  16  -1  -89.29  177.99
   1  16   1  -55.54  138.37
   1  16   1 -150.04  177.90
  -1 -16   1   24.72  186.19
  -1 -16   1 -243.84  118.15
  -2 -16  -1   -8.77  191.65
  -2 -16  -1 -261.84  127.55
   2  16  -1  -35.21  180.22
   2  16  -1  232.15  152.52
  -2 -16   1    8.80  197.12
   2  16   1 -158.53  195.95
   2  16   1  245.46  149.48
  -2 -16   1   83.17  120.60
   3  16  -1  152.61  182.58
   3  16  -1 -642.51  164.80
  -3 -16  -1   35.02  121.64
  -3 -16  -1  258.69  211.46
   3  16   1  135.20  154.59
  -3 -16   1  -37.18  212.98
   3  16   1 -472.44  189.14
  -3 -16   1  157.98  123.64
  -4 -16  -1 -191.80  221.89
   4  16  -1    6.39  190.54
   4  16  -1    7.62  168.83
  -4 -16   1    9.03  115.73
   4  16   1 -513.16  166.45
   5  16   1 -288.31  171.38
  -7  17  -1   20.96  243.35
  -7  17   1  349.41  243.90
  -6  17  -1 -106.17  110.68
   6 -17  -1   -7.66  147.59
  -6  17  -1   34.34  239.56
  -6  17   1  -63.45  115.38
  -6  17   1  -61.84  232.47
   6 -17   1  -21.96  150.70
  -5  17  -1   38.07  111.21
   5 -17  -1    7.37  149.55
  -5  17  -1   -6.68  229.72
   5 -17   1  -28.24  144.35
  -5  17   1  106.90  118.33
  -5  17   1   60.98  229.52
   4 -17  -1    7.10  149.24
  -4  17  -1  121.60  108.81
   4 -17  -1 -157.31  145.89
  -4  17  -1    6.45  220.67
   4 -17   1   13.48  146.71
  -4  17   1  270.79  230.62
   4 -17   1  -56.98  143.78
  -4  17   1  -10.94  113.16
   3 -17  -1  -13.99  149.57
  -3  17  -1    6.22  206.51
  -3  17  -1    5.37  114.59
   3 -17  -1   19.06  155.40
   3 -17   1  -18.51  145.05
  -3  17   1 -311.88  224.28
   3 -17   1   -6.81  145.85
  -3  17   1   10.97  111.66
   2 -17  -1  -14.54  167.19
   2 -17  -1   -9.30  148.77
  -2  17  -1 -433.71  131.97
  -2  17   1 -701.90  228.58
   2 -17   1 -288.15  130.72
   2 -17   1  -21.45  166.47
  -1  17  -1  708.10  216.83
  -1  17  -1   90.12  144.59
   1 -17  -1    9.18  151.22
   1 -17  -1   -7.76  184.05
   1 -17   1 -304.10  143.85
  -1  17   1  617.89  223.19
   1 -17   1   15.47  186.00
  -1  17   1  634.79  146.68
   0 -17  -1   33.33  233.66
   0 -17  -1  -36.32  199.07
   0  17  -1  741.31  198.87
   0 -17   1  179.64  188.62
   0 -17   1   25.05  234.31
   0  17   1 1158.93  199.55
  -1 -17  -1    9.33  146.81
   1  17  -1  124.76  162.14
   1  17  -1  438.76  212.04
  -1 -17  -1   -8.90  211.73
  -1 -17   1   -9.17  130.78
  -1 -17   1    8.97  220.64
   1  17   1  245.31  160.13
   1  17   1  360.65  210.19
  -2 -17  -1  -19.08  221.09
   2  17  -1   14.94  166.32
  -2 -17  -1    9.43  141.28
   2  17  -1  -77.31  208.59
  -2 -17   1   38.52  229.10
   2  17   1  -86.90  162.65
   2  17   1    6.47  205.34
  -2 -17   1   18.51  122.68
  -3 -17  -1   10.04  230.26
  -3 -17  -1   58.67  134.91
   3  17  -1 -516.56  174.98
   3  17  -1    6.64  209.71
  -3 -17   1  155.50  132.99
  -3 -17   1   20.21  236.34
   3  17   1  101.21  204.08
   3  17   1 -277.04  166.29
   4  17  -1    8.29  178.79
   4  17  -1 -713.64  211.31
  -4 -17  -1 -161.83  127.90
  -4 -17  -1  146.95  243.33
   4  17   1  129.55  180.42
  -4 -17   1   52.35  253.59
  -4 -17   1    9.91  126.55
   4  17   1 -540.59  221.09
  -5 -17  -1  603.09  260.01
   5  17   1  101.29  188.58
  -7  18  -1  -76.60  271.21
  -7  18   1   15.33  259.54
   6 -18  -1   16.87  202.00
  -6  18  -1  127.93  137.02
  -6  18  -1  448.53  274.17
  -6  18   1  128.46  281.32
  -6  18   1  157.52  137.08
   6 -18   1    8.04  191.43
  -5  18  -1  441.75  254.42
   5 -18  -1   40.92  158.89
  -5  18  -1  -11.98  122.94
   5 -18   1  -10.93  169.66
  -5  18   1   51.64  256.88
   5 -18   1   54.80  172.45
  -5  18   1 -123.99  120.53
  -4  18  -1   98.15  241.95
   4 -18  -1  184.44  164.50
  -4  18  -1   81.62  120.19
   4 -18  -1   31.75  168.13
   4 -18   1  -15.04  153.41
   4 -18   1 -159.73  172.63
  -4  18   1  401.19  256.50
  -4  18   1   36.36  122.77
  -3  18  -1   90.66  131.01
   3 -18  -1   -7.83  168.29
  -3  18  -1 -163.27  234.96
   3 -18  -1  -10.67  168.40
  -3  18   1  -67.10  123.18
  -3  18   1  597.58  237.49
   3 -18   1   10.37  153.30
   3 -18   1    7.59  167.15
   2 -18  -1  -16.25  179.86
   2 -18  -1 -250.51  164.71
  -2  18  -1    6.53  213.53
  -2  18  -1   88.47  130.96
  -2  18   1  -44.68  128.20
   2 -18   1 -203.80  159.42
   2 -18   1   23.87  177.22
  -2  18   1 -271.19  239.23
  -1  18  -1    6.72  146.88
   1 -18  -1  -42.98  191.77
   1 -18  -1  -10.31  160.05
  -1  18  -1 -601.88  220.66
   1 -18   1 -160.52  156.52
  -1  18   1   -6.72  143.80
  -1  18   1 -255.92  221.30
   1 -18   1  -17.11  195.74
   0 -18  -1  -45.99  210.63
   0 -18  -1 -165.93  154.38
   0  18  -1 -391.70  161.88
   0  18  -1  -60.11  220.09
   0  18   1 -462.14  219.06
   0  18   1   42.46  151.70
   0 -18   1  -36.68  208.25
   0 -18   1   51.16  156.93
   1  18  -1    7.61  158.74
  -1 -18  -1   29.42  223.65
  -1 -18  -1   84.14  148.72
   1  18  -1   41.30  225.48
   1  18   1   -6.89  220.12
  -1 -18   1  -41.03  150.14
   1  18   1    7.50  167.26
  -1 -18   1  -19.68  233.96
  -2 -18  -1  -74.52  156.59
   2  18  -1    8.09  175.09
  -2 -18  -1   31.08  241.82
   2  18  -1    7.08  224.65
  -2 -18   1   52.20  243.39
   2  18   1  277.02  179.53
   2  18   1    7.13  224.75
  -2 -18   1   10.50  149.55
  -3 -18  -1   32.80  138.21
  -3 -18  -1   32.91  249.68
   3  18  -1   21.75  227.41
   3  18  -1    8.58  184.10
   3  18   1  199.33  223.78
   3  18   1 -359.60  182.99
  -3 -18   1   10.79  136.22
  -3 -18   1   54.80  261.55
   4  18  -1 -757.28  202.41
   4  18  -1  143.40  226.10
  -4 -18  -1  -56.08  157.24
  -4 -18  -1  524.07  265.65
   4  18   1 -565.62  204.64
  -4 -18   1   76.35  138.22
   4  18   1  454.13  242.51
  -4 -18   1  -34.33  268.36
  -5 -18  -1 -670.21  264.64
   5  18   1    9.17  201.13
  -7  19  -1  532.76  304.72
  -7  19   1   75.76  307.71
  -6  19  -1   33.34  138.48
  -6  19  -1  185.90  273.94
   6 -19  -1    9.32  176.85
  -6  19   1  296.17  293.14
   6 -19   1   24.65  179.91
   6 -19   1   -8.89  177.53
   5 -19  -1   12.36  200.75
  -5  19  -1  -13.24  137.07
  -5  19  -1    7.85  275.76
   5 -19  -1   18.35  195.49
   5 -19   1   12.10  184.48
  -5  19   1  -13.71  138.92
   5 -19   1   26.08  182.57
  -5  19   1 -383.98  281.82
   4 -19  -1   26.69  189.63
  -4  19  -1  -22.90  266.98
  -4  19  -1 -118.67  142.65
   4 -19  -1   12.15  194.65
  -4  19   1    7.77  263.40
  -4  19   1   -6.73  135.34
   4 -19   1  -83.14  192.49
   4 -19   1  -25.20  184.08
   3 -19  -1   35.37  191.87
  -3  19  -1 -954.89  272.66
  -3  19  -1    6.69  151.46
   3 -19  -1 -143.14  198.12
   3 -19   1  -35.13  185.29
  -3  19   1  -48.42  147.42
   3 -19   1  -33.90  197.34
   2 -19  -1  -94.26  197.05
  -2  19  -1 -459.99  212.29
   2 -19  -1  -81.71  242.12
   2 -19   1 -115.07  250.30
   2 -19   1 -507.78  184.61
  -1 -19  -1  690.18  637.44
   1  19  -1 2773.13  620.13
   1  19   1 3306.86  618.12
  -2 -19  -1  -79.50  281.16
  -2 -19  -1 -368.99  180.33
  -2 -19   1 -330.22  193.29
  -2 -19   1   56.51  284.04
  -3 -19  -1   23.76  268.55
   3  19  -1 -349.10  252.24
   3  19  -1 -390.66  207.40
  -3 -19  -1 -452.16  183.24
  -3 -19   1  -35.83  283.02
  -3 -19   1   12.01  158.70
   3  19   1    9.08  211.38
   3  19   1 -469.00  263.16
  -4 -19  -1   49.41  291.12
  -4 -19  -1  111.96  171.46
   4  19  -1   49.16  213.93
   4  19   1 -305.01  217.03
   4  19   1    8.29  254.24
  -4 -19   1   62.01  291.53
  -4 -19   1  216.93  159.91
  -5 -19  -1  -63.85  311.98
   5  19   1 -358.85  222.07
  -6  20  -1  -65.90  149.00
  -6  20  -1  105.11  270.51
   6 -20   1    9.82  196.71
  -5  20  -1  -21.97  153.25
  -5  20  -1    8.54  288.54
   5 -20  -1   20.45  208.74
   5 -20   1  -48.32  215.69
   5 -20   1   67.32  214.30
   4 -20  -1   39.81  213.02
  -4  20  -1   -8.31  280.58
  -4  20  -1   -7.31  150.61
   4 -20   1   13.26  213.62
   4 -20   1   28.50  216.75
  -4  20   1 -561.46  162.84
  -4  20   1  364.73  285.53
  -3  20  -1  320.52  277.50
   3 -20  -1   80.03  214.40
  -3  20  -1 -111.60  155.31
   3 -20  -1   59.55  223.94
   3 -20   1 -249.09  193.13
  -3  20   1 -148.75  284.24
   3 -20   1   28.36  209.85
  -3  20   1  115.28  160.58
  -2  20  -1 -581.44  273.75
  -2  20  -1  320.81  170.10
   2 -20  -1   10.14  232.59
   2 -20  -1 -453.46  215.17
   2 -20   1    9.85  221.12
  -2  20   1 -319.36  173.22
   2 -20   1   25.83  196.66
  -2  20   1  -24.07  274.43
   1 -20  -1   10.57  239.89
  -1  20  -1 -355.36  265.55
  -1  20  -1    8.31  181.89
   1 -20  -1   13.27  202.39
   1 -20   1   10.39  239.90
  -1  20   1 -224.18  177.21
  -1  20   1    8.03  268.26
   1 -20   1  -65.60  189.15
   0 -20  -1   22.33  249.94
   0  20  -1    8.69  187.15
   0  20  -1 -331.93  277.17
   0 -20  -1  -13.39  209.33
   0  20   1  432.15  267.21
   0 -20   1  -11.08  247.08
   0  20   1  227.50  194.18
   0 -20   1  -13.07  179.73
  -1 -20  -1   13.34  188.95
   1  20  -1   93.00  273.76
  -1 -20  -1  -58.94  272.07
   1  20  -1   -9.17  197.62
   1  20   1   -8.52  277.95
  -1 -20   1   13.01  189.16
  -1 -20   1  -23.38  267.89
   1  20   1  218.85  203.08
   2  20  -1 -135.13  207.88
  -2 -20  -1  -12.35  288.67
   2  20  -1 -335.03  275.12
   2  20   1  295.08  221.38
  -2 -20   1 -145.84  203.61
   2  20   1  -78.45  275.17
  -2 -20   1   12.35  289.08
  -3 -20  -1  -64.33  319.50
   3  20  -1   40.36  217.51
   3  20  -1  -43.64  227.06
   3  20   1  168.39  218.64
  -3 -20   1   51.66  306.72
   0   1  -2   -8.74    1.88
  -1   0  -2   -0.27    0.90
   0   1  -2    0.89    2.11
  -1   0  -2    0.30    1.44
  -1   0  -2    0.58    1.84
   1   0   2   -0.26    0.55
   0  -1   2    1.82    2.48
   1   0   2   -0.57    1.10
   0  -1   2   -1.32    1.66
  -1   1  -2    2.53    3.41
  -1   2  -2  110.15   38.07
  -1   2  -2  151.47   33.69
   1  -2  -2  137.09   33.26
  -1   2  -2  140.86   32.02
   1  -2   2  152.04   33.23
  -1   2   2   80.83   33.86
   1  -2   2  128.07   30.39
   0  -2  -2 1270.78  265.04
   0   2  -2 1178.19  278.64
   0   2  -2 1134.80  321.73
   0   2  -2 1162.65  257.27
   0   2  -2 1321.00  270.80
   0   2   2 1150.32  301.55
   0  -2   2  753.01  290.34
   0   2   2 1075.76  257.80
   0  -2   2  948.54  275.10
  -1  -2  -2  166.29   32.22
   1   2   2  140.33   33.53
   1   2   2   71.99   39.48
  -2   2  -2  206.77   46.36
  -2  -2  -2  194.42   50.75
  -2   2  -2  170.00   53.85
   2  -2   2  193.28   43.89
  -2   3  -2  975.06  293.97
  -2   3  -2 1083.50  252.10
  -2   3  -2 1006.24  246.32
  -2   3  -2  979.21  272.30
   2  -3   2 1119.03  238.18
   2  -3   2 1052.98  248.79
  -1   3  -2   27.14   13.17
   1  -3  -2   31.84   13.84
  -1   3  -2   25.68    8.46
  -1   3  -2   21.55   19.98
  -1   3  -2   31.85   12.28
  -1   3   2   39.75   14.10
   1  -3   2   38.48   15.41
   0   3  -2    3.36   11.12
   0  -3  -2   -3.63   12.59
   0   3  -2   -1.73   17.58
   0   3  -2    1.54    5.32
   0   3  -2  -10.56   12.63
   0   3   2    6.09   18.22
   0   3   2    0.75   10.96
   0  -3   2    1.04    9.88
   0  -3   2    6.17   12.58
  -1  -3  -2   49.58   14.56
   1   3  -2   59.29   25.36
  -1  -3   2   45.75   16.50
   1   3   2   51.48   17.57
   1   3   2   26.90   23.43
  -2  -3  -2 1398.85  282.62
   2   3   2 1012.05  324.55
   3  -3   2   -0.90    6.79
  -3   4  -2 1194.53  299.53
  -3   4  -2 1157.00  257.40
  -3   4  -2 1097.97  262.74
   3  -4   2  897.11  260.52
   3  -4   2 1080.41  242.40
  -2   4  -2  436.65  101.92
  -2   4  -2  367.26  111.92
   2  -4  -2  390.68   97.62
  -2   4  -2  422.26   93.37
  -2   4  -2  365.08   95.30
  -2   4   2  381.40   96.94
   2  -4   2  352.30   95.72
   2  -4   2  409.18   91.22
  -2   4   2  394.79  112.01
  -1   4  -2   -6.15   27.67
  -1   4  -2   10.13   15.48
  -1   4  -2    4.47   12.20
   1  -4  -2   13.49   16.77
  -1   4  -2   12.20    6.34
   1  -4   2    1.14   19.83
   1  -4   2    7.92   11.96
  -1   4   2   10.32   16.42
   0   4  -2   57.10   19.62
   0  -4  -2   87.36   22.25
   0   4  -2   46.40   30.53
   0   4  -2   29.82   12.22
   0   4  -2   17.21   21.30
   0   4   2   71.21   19.89
   0  -4   2   35.92   17.23
   0  -4   2   58.33   22.21
   1   4  -2    1.49   20.64
   1   4  -2    7.68   31.81
  -1  -4  -2   11.40   14.46
   1   4   2   -2.47   27.66
   1   4   2   -4.90   19.86
  -1  -4   2   19.00   15.90
  -2  -4  -2  311.80   96.37
   2   4   2  312.84  115.79
   2   4   2  465.61   98.75
  -3  -4  -2  908.14  253.22
  -3   5  -2  356.81   93.31
  -3   5  -2  324.96   82.91
  -3   5  -2  292.93   75.77
  -3   5  -2  284.82   74.31
   3  -5   2  200.23   76.99
   3  -5   2  328.33   70.00
  -2   5  -2 1520.89  334.66
  -2   5  -2 1652.87  312.61
  -2   5  -2 1055.07  309.88
  -2   5  -2  970.86  368.15
   2  -5   2 1539.34  309.00
   2  -5   2 1261.13  319.29
  -1   5  -2  117.36   33.17
  -1   5  -2  109.90   27.88
  -1   5  -2   96.14   47.72
   1  -5  -2  158.89   37.73
  -1   5  -2  134.27   35.07
  -1   5   2   88.46   34.27
   1  -5   2  137.98   34.50
   1  -5   2   93.65   39.87
   1  -5   2  124.02   28.81
   0   5  -2   -2.89   23.90
   0   5  -2   -6.15    8.73
   0   5  -2    1.40   36.81
   0   5  -2   -4.78   19.12
   0  -5  -2   16.06   26.93
   0   5   2   -8.95   22.50
   0  -5   2    1.02   25.75
   0  -5   2   -9.91   17.63
   1   5  -2  114.48   39.29
   1   5  -2  116.37   26.09
  -1  -5  -2   -1.77   27.51
   1   5  -2   80.04   48.75
  -1  -5   2  100.92   32.81
   1   5   2  122.65   35.76
   1   5   2   -1.52   39.15
   2   5   2   -1.85  244.02
  -4   6  -2  115.82   38.81
  -4   6  -2   45.57   55.25
   4  -6   2   92.75   38.98
   3  -6  -2 1811.20  471.06
  -3   6  -2 1914.97  507.90
  -3   6  -2 1934.27  536.98
  -3   6  -2 2080.30  467.73
  -3   6   2 1767.45  531.10
  -3   6   2 2051.50  455.28
   2  -6  -2  112.46   41.36
  -2   6  -2   88.86   29.08
  -2   6  -2  122.98   34.60
  -2   6   2  111.77   38.53
  -2   6   2  117.72   56.13
   2  -6   2  103.66   28.62
   1  -6  -2   -1.76   50.66
  -1   6  -2  174.70   39.83
  -1   6  -2  136.15   46.86
  -1   6   2  224.07   47.30
   1  -6   2  159.95   40.85
  -1   6   2  169.07   69.51
  -1   6   2  196.55   44.98
   1  -6   2  172.65   50.31
   0   6  -2  121.12   46.21
   0   6  -2  137.19   33.61
   0  -6   2  166.39   53.91
   1   6  -2  159.35   43.87
  -1  -6  -2  251.29   49.00
   1   6  -2   88.23   71.18
   1   6   2  110.06   70.57
  -1  -6   2  156.31   53.46
   1   6   2  252.26   55.73
  -2  -6  -2  168.64   43.70
   2   6  -2   60.74   69.27
   2   6  -2  171.74   53.18
   2   6   2   82.68   62.73
  -2  -6   2  116.30   46.43
   2   6   2  127.43   51.03
  -3  -6  -2 2291.66  498.88
   3   6   2 1808.77  570.53
   3   6   2 2252.03  506.73
  -4  -6  -2   99.24   47.12
  -5   7  -2  -34.43   65.22
   4  -7  -2   -2.52   37.65
  -4   7  -2   -6.18   39.12
  -4   7  -2  -28.23   61.23
  -4   7   2  -10.85   55.72
   4  -7   2  -15.53   40.14
   3  -7  -2  375.54  100.45
  -3   7  -2  466.26   93.94
  -3   7  -2  336.93  100.33
  -3   7  -2  301.08  122.10
   3  -7   2  390.05   97.99
  -3   7   2  395.62   94.56
  -3   7   2  331.74  117.18
   2  -7  -2   48.74   43.01
  -2   7  -2  112.90   25.96
  -2   7  -2   25.14   68.67
  -2   7  -2   27.68   33.74
  -2   7  -2   72.24   39.87
  -2   7   2   83.94   60.66
   2  -7   2   83.01   24.84
  -2   7   2  100.85   31.58
   2  -7   2   69.86   48.03
  -2   7   2   78.23   39.19
   2  -7   2   90.60   34.58
  -1   7  -2  -13.12   26.18
  -1   7  -2   13.42   58.95
   1  -7  -2    6.34   41.54
  -1   7  -2    1.77   34.60
  -1   7  -2   -3.14   12.77
  -1   7   2   18.89   33.81
  -1   7   2   18.77   59.39
   1  -7   2   14.25   14.13
   1  -7   2   -1.92   27.69
  -1   7   2   -4.70   15.19
   1  -7   2   -8.99   47.84
   0   7  -2    3.93   31.54
   0   7  -2    6.24   42.47
   0  -7  -2    0.38    5.61
   0  -7  -2    7.04   21.07
   0   7  -2   29.22   57.71
   0  -7  -2   14.38   47.80
   0   7  -2   -0.72   11.65
   0  -7   2  -20.43   40.11
   0   7   2   -0.57   16.33
   0   7   2    7.97    7.79
   0   7   2   16.71   36.79
   0  -7   2   -7.10   30.42
   1   7  -2   -4.88   16.14
   1   7  -2   14.58   47.43
  -1  -7  -2   36.19   52.74
   1   7  -2   -4.36   61.33
  -1  -7   2  -16.69   31.91
   1   7   2   12.95   42.75
   2   7  -2   55.22   55.09
  -2  -7  -2  101.97   43.77
   2   7  -2  142.36   76.35
   2   7   2  164.78   57.06
   2   7   2   97.10   26.17
   2   7   2   86.14   65.22
  -2  -7   2   99.31   45.85
  -3  -7  -2  266.91   98.51
   3   7   2  378.11  107.73
  -3  -7   2  466.71  104.62
   3   7   2  387.19  129.84
  -4  -7  -2  -16.63   43.65
   4   7   2  -12.05   58.51
   4   7   2  -50.60   81.58
  -5   8  -2 1055.07  218.42
  -5   8  -2  717.41  207.97
   5  -8   2  582.19  193.48
  -4   8  -2 1750.72  455.39
   4  -8  -2 1501.05  400.30
  -4   8  -2 1806.27  377.88
   4  -8   2 1516.98  399.18
  -4   8   2 1661.41  379.74
  -4   8   2 1582.08  443.29
   3  -8  -2   34.73   54.41
  -3   8  -2 -274.94   95.71
  -3   8  -2  -88.86   52.91
  -3   8   2   -6.61   51.17
  -3   8   2   18.95   80.63
   3  -8   2  -54.49   54.76
  -2   8  -2   81.54   27.31
  -2   8  -2    1.91   56.89
  -2   8  -2   71.85   38.27
   2  -8  -2   61.42   50.64
  -2   8  -2  -88.11   95.74
   2  -8   2  107.71   26.48
  -2   8   2   65.76   87.34
  -2   8   2   30.09   45.38
   2  -8   2   92.12   62.29
  -2   8   2  119.60   31.67
   2  -8   2   46.23   40.46
  -1   8  -2  -49.59   43.26
  -1   8  -2   13.26   69.61
  -1   8  -2   -2.69   13.99
   1  -8  -2   15.00   50.61
  -1   8  -2  -10.47   31.62
   1  -8  -2   -6.75   19.37
   1  -8   2    1.19   35.12
  -1   8   2  -19.27   71.71
  -1   8   2   -4.57   18.35
   1  -8   2   14.72   15.95
   1  -8   2    2.65   55.29
   1  -8   2  -26.83   37.42
  -1   8   2    5.99   41.53
   0  -8  -2  118.25   64.36
   0   8  -2   45.73   54.43
   0   8  -2  124.28   44.89
   0  -8  -2   87.65   25.69
   0   8  -2  113.93   27.36
   0   8  -2  122.62   70.77
   0  -8  -2  112.05   43.36
   0  -8   2   76.77   69.56
   0   8   2  150.16   51.26
   0   8   2  139.63   35.17
   0  -8   2  160.25   44.96
   0   8   2  106.60   28.12
   0  -8   2   71.38   57.45
   1   8  -2    4.81   16.32
   1   8  -2  -46.07   71.23
   1   8  -2  -28.01   53.39
  -1  -8  -2    1.97    6.78
  -1  -8  -2   -3.25   65.68
   1   8   2   -2.81    5.93
   1   8   2   20.01   50.97
  -1  -8   2   22.02   36.28
   2   8  -2  134.16   88.76
  -2  -8  -2  125.71   49.43
   2   8  -2  118.67   35.54
   2   8  -2  107.42   67.12
   2   8   2  149.15   66.63
   2   8   2  114.08   82.08
   2   8   2  108.77   28.51
  -2  -8   2  159.01   53.38
   3   8  -2   20.09   93.33
   3   8  -2  177.04   67.17
  -3  -8  -2   30.35   50.75
  -3  -8   2  135.14   49.38
   3   8   2   66.44   68.76
   3   8   2   59.38   83.71
  -4  -8  -2 1007.09  370.56
   4   8   2 1514.10  380.82
   4   8   2 1625.23  431.63
  -6   9  -2  347.29  145.05
  -6   9  -2  459.35  121.60
  -5   9  -2  552.25  144.29
  -5   9  -2  694.24  162.43
  -5   9  -2  608.88  183.24
   5  -9   2  498.21  153.37
  -5   9   2  446.54  175.99
   4  -9  -2   31.33   53.35
  -4   9  -2   -9.34   38.97
  -4   9  -2   33.06   84.62
  -4   9  -2   51.03   46.47
  -4   9   2   32.94   82.86
   4  -9   2   27.58   51.61
  -4   9   2   29.86   49.96
  -3   9  -2 1037.45  258.70
   3  -9  -2 1036.26  252.72
  -3   9  -2 1118.17  239.45
  -3   9  -2 1222.14  297.55
   3  -9   2 1020.26  253.16
  -3   9   2 1148.03  293.89
   3  -9   2 1204.14  252.68
  -3   9   2  906.42  283.98
  -3   9   2  885.11  237.40
  -2   9  -2  -19.82   43.48
   2  -9  -2   43.63   54.90
  -2   9  -2   33.84   85.71
  -2   9   2  -11.41   46.16
   2  -9   2   -1.13   33.71
   2  -9   2  -44.03   56.27
  -2   9   2    5.60   83.97
   1  -9  -2   11.66   60.31
  -1   9  -2  -14.65   35.93
  -1   9  -2   17.51   16.89
   1  -9  -2   16.17   26.69
  -1   9  -2   31.10   52.79
  -1   9  -2  -70.97   78.46
   1  -9   2   21.56   46.08
   1  -9   2   -6.16   63.14
   1  -9   2   16.33   18.18
  -1   9   2   43.80   47.72
   1  -9   2   -9.39   40.98
  -1   9   2  -19.32   85.73
   0  -9  -2  -78.62   66.27
   0   9  -2  -16.63   39.32
   0   9  -2   -2.54   14.50
   0   9  -2    2.53   75.74
   0   9  -2  -38.63   57.79
   0  -9  -2   -3.38   45.58
   0  -9   2   26.72   59.92
   0   9   2    5.03   53.83
   0  -9   2   53.12   75.26
   0  -9   2   -3.19   43.36
   0   9   2  -13.59   87.00
   1   9  -2   40.43   17.56
   1   9  -2   25.47   62.79
   1   9  -2  108.11   81.22
  -1  -9  -2  -37.52   75.90
  -1  -9   2   14.21   47.32
   1   9   2   -2.88   59.52
   2   9  -2    1.39   22.88
  -2  -9  -2  -21.90   44.48
   2   9  -2  -10.60   69.42
   2   9  -2    3.18   85.22
  -2  -9   2    8.16   47.47
   2   9   2  -25.90   65.68
   3   9  -2 1069.08  306.16
   3   9  -2  965.33  271.58
  -3  -9  -2 1333.30  255.37
   3   9   2 1175.90  271.20
   3   9   2  952.02  295.16
  -3  -9   2  929.06  263.03
  -4  -9  -2   19.53   59.52
   4   9   2    3.67   99.88
   4   9   2   -3.82   77.94
   5   9   2  663.40  173.21
  -6  10  -2  -22.96   55.29
  -6  10  -2  -15.95  101.43
  -5  10  -2  391.98  110.79
  -5  10  -2  564.27  153.30
  -5  10  -2  425.10  118.52
   5 -10  -2  254.13  119.82
  -5  10   2  562.77  149.87
   5 -10   2  359.41  120.79
   4 -10  -2  483.20  164.85
  -4  10  -2  484.59  148.26
  -4  10  -2  427.89  163.93
  -4  10  -2  604.63  205.48
  -4  10   2  971.28  196.93
  -4  10   2  491.54  149.54
   4 -10   2  855.45  162.83
  -3  10  -2  123.32   42.95
  -3  10  -2  112.36   36.71
  -3  10  -2  209.49  106.26
  -3  10  -2   49.89   55.44
   3 -10  -2  128.25   63.59
   3 -10   2  104.64   64.50
  -3  10   2  114.87  103.94
   3 -10   2   38.64   48.88
  -3  10   2   65.47   54.35
   3 -10   2   97.37   33.11
  -2  10  -2   75.43   57.69
  -2  10  -2  106.88  100.47
   2 -10  -2  100.17   68.74
   2 -10   2  101.55   68.55
  -2  10   2   81.83  106.76
  -2  10   2  103.21   59.80
  -1  10  -2  -19.13   55.90
   1 -10  -2   53.86   70.01
  -1  10  -2   91.19   91.08
  -1  10   2    7.91   55.45
   1 -10   2   90.07   52.31
   1 -10   2   23.03   55.56
   1 -10   2  -42.49   75.64
  -1  10   2  -93.96  103.12
   0  10  -2   37.55   65.84
   0  10  -2  173.24   88.50
   0 -10  -2   60.29   82.43
   0 -10  -2   27.16   53.43
   0  10   2   83.34   62.21
   0  10   2  141.16   96.92
   0 -10   2   36.86   48.74
   0 -10   2   68.44   89.45
  -1 -10  -2  -55.40   88.55
   1  10  -2   -3.57   73.61
   1  10  -2   15.04   89.87
  -1 -10   2   51.93   53.99
   1  10   2   19.54   64.51
   2  10  -2   89.38  102.98
   2  10  -2   66.95   83.68
  -2 -10   2  175.41   64.26
   2  10   2  130.27   80.92
   3  10  -2   30.76  105.75
   3  10  -2   21.36   88.71
  -3 -10  -2  129.93   65.28
  -3 -10   2  143.57   65.29
   3  10   2  142.19  112.83
   3  10   2   83.83   89.42
  -4 -10  -2  810.23  195.90
   4  10   2  782.48  210.33
   4  10   2  969.89  229.79
  -5 -10  -2  260.94  112.22
   5  10   2  458.04  128.71
  -7  11  -2  -62.55  123.89
  -6  11  -2  215.59  124.17
   6 -11   2   33.52   80.01
  -5  11  -2  321.87  126.05
   5 -11  -2  301.29  139.60
  -5  11  -2  473.78  181.39
   5 -11   2  556.38  143.51
  -5  11   2  739.04  128.95
  -5  11   2  487.83  174.45
  -4  11  -2   70.58  119.95
  -4  11  -2   17.45   62.01
   4 -11  -2   15.13   75.34
  -4  11   2    9.52   65.96
   4 -11   2   44.54   71.12
  -4  11   2   61.37  116.21
   3 -11  -2  176.35   83.85
  -3  11  -2  156.81   69.42
  -3  11  -2  181.48  123.77
  -3  11   2  157.12   71.02
   3 -11   2  149.32   83.63
  -3  11   2   46.79  118.11
   2 -11  -2   39.28   74.95
  -2  11  -2  -39.84  109.38
  -2  11  -2   11.42   61.56
   2 -11   2  105.01   81.97
  -2  11   2   78.65   61.64
  -2  11   2   56.63  110.18
   1 -11  -2  107.93   83.41
  -1  11  -2  -37.24   69.46
  -1  11  -2    6.41  102.91
  -1  11   2    2.99   63.84
   1 -11   2   56.00   86.27
   1 -11   2    8.26   57.96
  -1  11   2   94.37  113.93
   0  11  -2   -7.07   76.86
   0 -11  -2   68.23   92.39
   0 -11  -2  -35.32   65.70
   0  11  -2  -62.74   96.74
   0  11   2  -22.78   67.25
   0  11   2   13.63  111.18
   0 -11   2    8.39   59.62
   0 -11   2  -63.75   99.45
   1  11  -2   90.22  108.47
   1  11  -2  -43.59   85.55
  -1 -11  -2  173.68  101.50
  -1 -11   2   31.47   57.89
   1  11   2   18.20   80.07
  -1 -11   2  -45.52  108.03
   2  11  -2    4.39   90.23
  -2 -11  -2   63.60  114.31
   2  11  -2  168.47  110.93
  -2 -11   2   69.47   64.50
   2  11   2   52.82   89.09
   3  11  -2  218.94  131.98
   3  11  -2  313.16  108.51
  -3 -11  -2  226.16   86.00
   3  11   2  116.70  130.14
  -3 -11   2   94.52   85.93
   3  11   2  274.97  110.45
   4  11  -2  -74.69  102.64
  -4 -11  -2   28.56   73.47
   4  11   2  175.29  125.68
   4  11   2  -46.67   99.52
  -4 -11   2   90.37   67.65
  -5 -11  -2  491.91  124.05
   5  11   2  132.37  153.80
  -7  12  -2  -20.89  138.87
  -6  12  -2    4.19  139.99
  -6  12   2   -4.06  102.85
   6 -12   2 -101.33   90.56
  -5  12  -2   10.41   69.69
   5 -12  -2  -78.07   86.39
  -5  12  -2  -49.02  139.13
  -5  12   2  -40.88   71.42
   5 -12   2   67.69   81.62
  -5  12   2 -151.65  134.54
  -4  12  -2   15.78  138.43
  -4  12  -2   67.36   70.26
   4 -12  -2  151.41   90.50
  -4  12   2  225.05  142.85
  -4  12   2  141.83   71.18
   4 -12   2   76.48   84.27
  -3  12  -2   46.11  136.33
   3 -12  -2   27.80   83.56
  -3  12  -2  -40.64   67.39
  -3  12   2  132.57   71.55
  -3  12   2  103.86  128.68
   3 -12   2   19.16   81.51
   2 -12  -2  -77.08   88.54
  -2  12  -2  -80.81  126.60
  -2  12  -2   16.14   69.52
   2 -12   2   16.42   87.62
   2 -12   2   33.88   77.39
  -2  12   2 -221.59  139.40
  -2  12   2  -95.02   73.04
  -1  12  -2    3.56  122.26
  -1  12  -2  -94.13   73.93
   1 -12  -2  -39.46  106.15
   1 -12  -2   41.23   83.13
   1 -12   2   56.51   64.22
  -1  12   2 -132.61   78.62
   1 -12   2  -63.35  102.65
  -1  12   2 -136.16  149.34
   0  12  -2  282.19  129.36
   0  12  -2   70.62   98.07
   0 -12  -2  120.87  125.54
   0 -12  -2  160.42   95.83
   0 -12   2  132.27  129.98
   0  12   2  179.47  102.21
   0  12   2  736.02  165.77
   0 -12   2  152.33   83.63
  -1 -12  -2   50.52   73.32
   1  12  -2  -66.82  118.93
  -1 -12  -2 -177.98  133.64
   1  12  -2  -17.61   97.87
   1  12   2   12.23   98.54
  -1 -12   2   30.57   65.97
   1  12   2   25.94  121.59
  -1 -12   2    5.64  126.89
  -2 -12  -2  -23.68  123.67
   2  12  -2   24.18  106.20
   2  12  -2   20.41  118.47
   2  12   2   72.11   99.72
  -2 -12   2  -38.35   71.41
   3  12  -2   84.55  134.86
   3  12  -2  -56.97  117.39
  -3 -12  -2  159.42   79.16
  -3 -12   2   -6.05   74.58
   3  12   2   -4.88  102.53
   4  12  -2  125.39  121.70
  -4 -12  -2   18.71   84.40
   4  12   2  242.58  118.76
   4  12   2  434.58  147.96
  -4 -12   2   19.42   80.15
  -5 -12  -2  477.70   89.76
   5  12   2   -5.01  127.95
   5  12   2  -69.67  118.64
   6 -13   2   -5.04  100.99
  -6  13   2  292.26  159.07
  -5  13  -2   -4.51  137.35
  -5  13  -2  289.39   88.70
   5 -13   2  232.88  103.57
  -4  13  -2   76.36   72.71
  -4  13  -2 -382.07  151.85
   4 -13   2   76.81   90.52
   3 -13  -2    8.93   93.80
  -3  13  -2  -16.98  144.40
  -3  13  -2   24.39   75.74
  -3  13   2   28.79   77.19
   3 -13   2   12.93   91.14
   2 -13  -2   18.35   98.88
  -2  13  -2   52.75  138.22
  -2  13  -2    3.63   77.05
   2 -13   2  -83.08  103.97
   2 -13   2   27.32   77.47
  -2  13   2   54.97   79.42
  -1  13  -2   51.24  131.61
  -1  13  -2  246.88   85.75
   1 -13  -2   64.34  107.21
   1 -13  -2   -5.81   72.05
   1 -13   2  -95.95  117.88
   1 -13   2   42.78   78.00
  -1  13   2  237.02   81.15
  -1  13   2   -4.28  131.90
   0  13  -2   60.98  128.42
   0 -13  -2   -5.68   69.18
   0 -13  -2   48.63  116.92
   0  13  -2   -4.35   95.09
   0  13   2 -107.08   94.21
   0 -13   2  -28.40  127.86
   0  13   2   -4.18  127.62
   0 -13   2   -5.42   80.02
   1  13  -2  136.23  104.18
   1  13  -2 -161.13  128.54
  -1 -13  -2   41.95  131.48
  -1 -13   2   34.33   80.18
   1  13   2  -58.70  101.13
  -1 -13   2  125.46  150.45
   2  13  -2  -21.18  112.96
   2  13  -2   -4.48  108.11
  -2 -13  -2  -32.74  147.38
   2  13   2    4.98  109.85
  -5 -13  -2  116.62   91.32
   5  13   2   -5.91  109.52
   5  13   2   26.78  159.87
  -7  14  -2  116.42  181.91
   6 -14  -2   -5.89  110.21
  -6  14  -2   39.25   89.43
  -6  14  -2  394.51  180.03
  -6  14   2  196.34  174.40
   6 -14   2   43.87  109.71
  -5  14  -2  138.94   81.61
  -5  14  -2   50.08  168.41
   5 -14  -2  -33.47  113.98
  -5  14   2  -17.38   86.62
  -5  14   2 -305.17  176.04
  -4  14  -2  243.88  175.37
   4 -14  -2  -10.40  111.83
  -4  14   2  -69.42   89.57
  -4  14   2    4.99  166.73
   3 -14  -2  -25.10  107.44
  -3  14   2    4.00   82.99
  -3  14   2    9.86  164.98
   2 -14  -2  641.54  164.52
  -2  14   2  652.45  146.77
   1 -14  -2  557.45  166.38
  -1  14   2  741.75  152.20
   0 -14  -2  -32.06  136.83
   0 -14  -2  818.44  160.29
   0  14   2    4.59  181.14
   0  14   2  741.31  134.32
  -1 -14  -2  155.45  105.98
  -1 -14  -2  379.56  155.49
   1  14  -2  -22.84  156.55
  -1 -14   2    6.41  100.68
   1  14   2  -98.02  159.54
   1  14   2  659.53  124.46
   2  14  -2    4.89  161.75
  -2 -14  -2  216.04  175.82
   2  14   2    4.76  154.44
  -2 -14   2    6.70  101.01
   2  14   2   70.78  133.10
  -2 -14   2   88.69  184.40
  -3 -14  -2 -107.52  165.01
   3  14  -2  -36.21  151.74
   3  14  -2  -80.91  128.78
   3  14   2   -5.87  127.57
  -3 -14   2  -65.02   91.28
   4  14  -2  183.83  149.16
  -4 -14  -2   -7.51   99.20
   4  14   2 -515.46  171.92
   4  14   2  149.15  132.87
  -4 -14   2    7.56   88.64
  -5 -14  -2   31.72  104.54
   5  14   2  408.57  144.92
   5  14   2 -143.87  166.93
  -7  15  -2   23.11  210.46
  -6  15  -2   60.79   96.59
   6 -15  -2   -6.46  118.90
  -6  15  -2  -67.83  187.82
   6 -15   2   23.94  123.96
  -6  15   2   57.17  192.87
  -5  15  -2  -35.66   91.82
  -5  15  -2  198.99  195.51
   5 -15  -2   55.40  121.09
  -5  15   2   14.21   92.17
  -5  15   2   50.32  180.94
   5 -15   2   11.09  114.47
  -4  15  -2    5.35  187.77
  -4  15  -2   30.14   88.76
   4 -15  -2   63.80  120.61
  -4  15   2   16.53  181.11
   4 -15   2   31.74  117.10
  -4  15   2  -36.03   95.38
  -3  15  -2   21.80   92.74
   3 -15  -2    5.63  117.56
  -3  15  -2    5.10  175.17
  -3  15   2   92.74  191.98
   3 -15   2    7.20  113.57
   3 -15   2   10.80  122.12
  -3  15   2    8.89   99.45
   2 -15  -2   17.46  123.46
  -2  15  -2    4.93  163.55
  -2  15  -2   91.29  101.49
   2 -15  -2    7.56  114.07
   2 -15   2   23.12  132.66
  -2  15   2 -242.61  182.79
  -2  15   2   36.55   99.55
   2 -15   2   13.97  110.44
   1 -15  -2   -7.34  107.18
  -1  15  -2   -4.87  108.99
  -1  15  -2   52.12  158.14
   1 -15  -2  -12.51  134.84
   1 -15   2   12.54  146.74
  -1  15   2 -101.44  109.18
   1 -15   2   27.51   99.68
  -1  15   2   10.28  180.84
   0 -15  -2 -114.62  147.67
   0  15  -2  -53.20  120.53
   0  15  -2   -4.76  156.95
   0 -15  -2  101.78  110.97
   0 -15   2  -68.78  152.95
   0  15   2 -151.03  172.93
   0  15   2   71.81  112.92
   0 -15   2    6.97  104.18
  -1 -15  -2    7.26  107.46
   1  15  -2  -90.82  163.46
  -1 -15  -2  454.19  167.10
   1  15  -2   87.92  129.35
  -1 -15   2    7.18  109.64
  -1 -15   2   15.11  171.40
   1  15   2  116.01  127.96
   1  15   2 -271.73  173.39
  -2 -15  -2   22.77  104.07
   2  15  -2   58.80  169.90
  -2 -15  -2 -174.73  184.09
   2  15  -2  242.88  142.04
   2  15   2    5.29  161.52
  -2 -15   2   66.75  102.00
   2  15   2  -41.97  136.74
  -2 -15   2  -16.25  189.20
  -3 -15  -2  134.54  197.19
   3  15  -2   -5.60  157.55
   3  15  -2  108.23  147.11
  -3 -15   2   -8.49  189.23
   3  15   2   -6.41  141.26
  -3 -15   2   95.17  112.05
  -4 -15  -2   61.32  201.61
   4  15  -2  344.02  159.33
  -4 -15  -2  200.36  118.37
   4  15   2  263.59  151.96
  -4 -15   2    8.22  100.90
  -5 -15  -2  129.64  114.09
   5  15   2   86.88  185.87
   5  15   2  295.99  152.62
  -7  16  -2 -279.30  227.30
  -6  16  -2 -379.42  228.70
  -6  16  -2  -85.87  118.35
   6 -16  -2  -28.37  141.87
   6 -16   2  -45.75  139.86
  -6  16   2 -268.95  222.99
   5 -16  -2  -20.45  138.59
  -5  16  -2    4.88  101.71
  -5  16  -2 -447.10  219.42
  -5  16   2   25.93  105.70
  -5  16   2   73.97  210.32
   5 -16   2  -12.25  129.92
  -4  16  -2  -52.40  200.16
  -4  16  -2  -28.54  100.16
   4 -16  -2   19.44  130.53
  -4  16   2   19.90  104.87
   4 -16   2  -16.84  135.38
  -4  16   2 -419.76  220.04
   4 -16   2    5.89  133.25
  -3  16  -2   22.41  191.52
  -3  16  -2  -72.41  100.84
   3 -16  -2   -6.32  130.75
   3 -16  -2  -69.64  141.36
  -3  16   2  182.93  101.93
   3 -16   2   48.22  132.75
   3 -16   2   16.20  126.65
  -3  16   2 -107.03  201.31
   2 -16  -2  -26.13  145.92
   2 -16  -2   -8.44  120.44
  -2  16  -2    5.40  185.73
  -2  16  -2  -25.43  109.12
  -2  16   2   61.86  112.66
  -2  16   2   -5.75  191.01
   2 -16   2  -51.25  145.39
   2 -16   2   39.33  123.87
  -1  16  -2    5.41  120.77
   1 -16  -2   34.82  150.57
  -1  16  -2  291.79  176.32
   1 -16  -2   65.98  123.87
   1 -16   2   13.92  159.66
  -1  16   2  366.28  199.77
   1 -16   2    7.81  112.47
  -1  16   2    5.41  119.24
   0 -16  -2  335.38  123.33
   0  16  -2 -129.40  134.22
   0 -16  -2    7.50  172.03
   0  16  -2  -90.78  178.23
   0 -16   2   15.21  175.38
   0  16   2  330.59  129.85
   0  16   2   -5.46  182.80
   0 -16   2    7.87  121.09
  -1 -16  -2 -462.13  187.35
  -1 -16  -2    8.29  122.66
   1  16  -2  -32.01  140.59
   1  16  -2 -505.32  178.40
   1  16   2   33.15  179.23
  -1 -16   2   24.24  116.24
   1  16   2    6.11  133.54
  -1 -16   2   -8.25  182.71
  -2 -16  -2 -408.05  197.09
   2  16  -2  202.20  155.58
   2  16  -2  374.38  189.77
  -2 -16  -2  -51.08  119.26
  -2 -16   2    8.23  107.64
  -2 -16   2   17.71  201.03
   2  16   2  124.32  146.69
   2  16   2  251.10  197.45
   3  16  -2    6.07  181.49
   3  16  -2    7.37  163.16
  -3 -16  -2 -294.91  208.57
  -3 -16   2    9.28  217.30
  -3 -16   2  -43.66  109.75
   3  16   2 -146.19  154.96
  -4 -16  -2  239.82  212.50
   4  16  -2    7.77  160.66
   4  16   2    7.36  159.67
  -4 -16   2    8.96  111.57
  -5 -16  -2 -216.92  219.97
  -5 -16  -2   -9.46  120.04
   5  16   2   20.15  200.48
   5  16   2   -7.64  170.38
  -7  17  -2  146.21  249.36
  -6  17  -2    6.84  242.48
   6 -17  -2  -31.23  153.62
  -6  17  -2   38.35  111.61
   6 -17   2  -14.31  144.02
  -6  17   2    6.88  223.15
  -5  17  -2  242.80  228.95
  -5  17  -2  112.34  115.36
   5 -17  -2    7.56  151.96
   5 -17   2 -592.20  162.10
   5 -17   2   60.89  141.92
  -5  17   2  -17.10  112.77
  -5  17   2    6.78  229.76
   4 -17  -2   -7.24  154.16
  -4  17  -2 -208.88  220.06
  -4  17  -2   36.75  106.13
   4 -17   2  -19.79  146.85
  -4  17   2    5.51  110.18
   4 -17   2    9.38  137.18
  -4  17   2  311.89  231.71
   3 -17  -2   96.27  140.62
  -3  17  -2 -263.28  214.03
  -3  17  -2 -144.41  112.26
   3 -17  -2   21.24  151.63
   3 -17   2 -254.79  155.23
  -3  17   2   95.32  114.52
  -3  17   2   45.20  230.38
   3 -17   2  -60.47  148.58
  -2  17  -2 -101.79  133.64
   2 -17  -2 -132.29  141.44
   2 -17  -2   -7.32  163.15
   2 -17   2    7.11  166.57
   2 -17   2    8.90  138.19
  -1  17  -2   80.08  191.17
   1 -17  -2    7.75  181.58
   1 -17  -2  129.62  131.01
  -1  17  -2  -30.10  143.54
   1 -17   2    7.69  177.75
  -1  17   2  178.35  215.04
   1 -17   2    8.76  131.93
  -1  17   2  -42.16  139.33
   0 -17  -2 -138.84  141.21
   0  17  -2   32.41  146.65
   0 -17  -2   16.62  194.75
   0  17  -2  371.24  202.24
   0 -17   2 -232.93  148.86
   0 -17   2   33.28  200.68
   0  17   2  717.47  149.55
   1  17  -2    6.20  206.26
   1  17  -2   14.01  154.58
  -1 -17  -2  -53.34  205.02
  -1 -17  -2    9.36  139.39
  -1 -17   2    9.02  128.97
   1  17   2 -148.28  153.00
  -1 -17   2   27.09  214.52
   1  17   2    6.18  205.08
   2  17  -2 -727.73  214.41
   2  17  -2   98.02  167.31
  -2 -17  -2  -18.88  218.80
  -2 -17  -2  124.60  128.91
  -2 -17   2   19.25  229.78
   2  17   2    7.16  164.35
   2  17   2 -454.71  221.23
  -2 -17   2  -65.23  127.45
  -3 -17  -2  100.29  232.14
   3  17  -2 -297.06  208.56
   3  17  -2    8.02  177.84
  -3 -17   2   20.30  257.39
   3  17   2 -520.15  218.70
   3  17   2    7.61  167.52
  -3 -17   2   19.29  126.40
   4  17  -2    8.41  178.24
  -4 -17  -2 -427.77  253.71
  -4 -17   2    9.82  121.04
  -4 -17   2   10.47  264.37
   4  17   2    8.01  171.28
  -5 -17  -2 -355.03  251.05
  -5 -17  -2   41.56  125.20
   5  17   2    8.31  178.42
  -7  18  -2 -313.19  272.86
  -6  18  -2  571.70  294.73
  -6  18  -2   77.54  151.61
   6 -18  -2   34.45  227.84
  -6  18   2 1421.25  305.07
   6 -18   2   -7.85  213.07
   5 -18  -2  -25.22  167.48
  -5  18  -2   -7.17  245.18
  -5  18  -2 -253.01  120.22
  -5  18   2  -50.28  124.64
   5 -18   2  -10.71  161.69
   5 -18   2    7.64  159.18
  -5  18   2  266.33  260.50
   4 -18  -2 -143.42  167.71
  -4  18  -2  283.33  245.52
   4 -18  -2   -8.11  163.41
  -4  18  -2  185.04  120.48
   4 -18   2   36.78  153.35
  -4  18   2    7.20  245.36
  -4  18   2  -18.33  126.34
   4 -18   2  272.41  171.70
   3 -18  -2   24.02  177.05
  -3  18  -2   11.84  127.99
  -3  18  -2 -307.56  226.60
   3 -18  -2  -32.40  171.29
  -3  18   2  199.85  126.97
  -3  18   2   70.14  242.11
   3 -18   2 -499.76  151.59
   3 -18   2   22.43  170.51
   2 -18  -2  296.43  173.35
   2 -18  -2   57.42  175.72
  -2  18  -2  147.83  216.35
  -2  18  -2 -126.21  137.71
   2 -18   2  -23.59  180.62
  -2  18   2  223.00  137.94
  -2  18   2   -6.86  230.29
   2 -18   2 -474.82  154.69
   1 -18  -2   10.47  147.63
  -1  18  -2    6.67  141.60
  -1  18  -2 -392.33  214.28
   1 -18  -2   17.25  186.61
  -1  18   2  101.14  142.92
  -1  18   2   -6.65  222.02
   1 -18   2   10.03  151.58
   1 -18   2   17.01  190.63
   0 -18  -2   64.50  203.54
   0  18  -2 -172.80  217.81
   0 -18  -2   62.23  156.47
   0  18  -2    7.14  158.24
   0  18   2  256.45  230.67
   0 -18   2  111.15  151.94
   0 -18   2   -9.12  213.69
   0  18   2   14.08  150.42
   1  18  -2  145.22  174.01
  -1 -18  -2  -10.65  150.28
   1  18  -2 -239.39  212.35
  -1 -18  -2    9.77  213.77
  -1 -18   2    9.81  227.67
   1  18   2   13.83  218.90
  -1 -18   2  -20.39  156.99
   1  18   2   22.32  166.48
   2  18  -2  211.49  223.98
  -2 -18  -2  160.67  159.82
   2  18  -2    8.18  173.98
  -2 -18  -2   20.72  232.77
   2  18   2 -273.71  170.31
   2  18   2  294.03  239.19
  -2 -18   2  -31.32  148.41
  -2 -18   2  -10.44  253.20
   3  18  -2   57.69  221.65
   3  18  -2   52.52  195.19
  -3 -18  -2  827.45  255.28
  -3 -18  -2   22.05  155.40
   3  18   2 -148.05  243.22
  -3 -18   2  -11.01  263.52
   3  18   2  165.14  184.79
  -3 -18   2  -64.13  149.67
   4  18  -2 -127.96  199.84
  -4 -18  -2  237.76  271.57
   4  18   2    8.65  190.31
  -4 -18   2  -11.41  267.64
  -4 -18   2   64.78  134.71
  -5 -18  -2  -11.45  139.85
  -5 -18  -2 -541.39  289.26
   5  18   2 -334.38  201.93
  -7  19  -2 -819.54  340.57
   6 -19  -2   19.06  186.91
  -6  19  -2   39.23  135.17
  -6  19  -2 -176.47  282.43
   6 -19   2   60.59  196.97
  -6  19   2 -315.91  286.80
   6 -19   2    8.63  182.81
   5 -19  -2  -99.76  206.18
  -5  19  -2   38.96  131.94
  -5  19  -2 -388.83  272.08
   5 -19  -2   37.50  192.51
  -5  19   2 -208.68  141.34
  -5  19   2  104.34  271.99
   5 -19   2  -16.93  180.34
   5 -19   2  226.98  201.01
  -4  19  -2   -7.54  254.70
   4 -19  -2   97.86  202.87
  -4  19  -2   63.79  135.17
   4 -19  -2   -9.08  186.14
   4 -19   2   35.11  193.29
   4 -19   2    8.20  172.01
  -4  19   2   -6.98  144.50
  -4  19   2   -7.82  272.44
   3 -19  -2  -27.01  206.66
  -3  19  -2  -26.58  141.30
   3 -19  -2   24.10  193.72
  -3  19  -2 -433.26  249.82
  -3  19   2 -574.04  265.52
   3 -19   2  -34.52  180.51
   3 -19   2  -24.96  188.91
  -3  19   2 -159.59  139.76
  -2  19  -2 -530.13  205.99
   2 -19  -2  -36.71  252.84
   2 -19  -2 -698.93  188.64
   2 -19   2  -52.39  241.23
   2 -19   2 -282.73  188.60
  -1  19  -2  245.69  218.47
   1 -19  -2   94.82  238.15
   1 -19  -2   28.74  281.41
   1 -19   2  378.18  237.61
   1 -19   2  196.19  268.36
  -1 -19  -2   21.50  301.88
  -1 -19  -2   72.01  231.70
   1  19  -2 1283.83  254.52
   1  19   2  992.16  251.32
  -1 -19   2  106.60  306.72
  -2 -19  -2 -302.79  187.23
  -2 -19  -2  -33.84  281.96
  -2 -19   2  -11.35  271.91
   2  19   2 -921.22  215.64
  -2 -19   2 -175.02  167.13
  -3 -19  -2  153.08  281.33
   3  19  -2 -311.15  203.37
  -3 -19  -2  -12.37  178.74
   3  19  -2   47.37  244.16
  -3 -19   2   11.85  163.92
  -3 -19   2  -23.83  286.27
   3  19   2  -97.95  274.88
   3  19   2 -332.66  211.95
  -4 -19  -2  -37.05  301.68
   4  19  -2   19.85  217.67
   4  19   2  225.20  211.01
  -4 -19   2  -24.75  291.02
  -4 -19   2   23.86  145.60
  -5 -19  -2   12.77  299.77
   5  19   2   -9.87  216.50
  -6  20  -2    7.17  143.76
  -6  20  -2  268.89  300.25
   6 -20   2  -53.97  203.14
   6 -20   2   28.66  190.57
  -5  20  -2 -135.29  300.03
  -5  20  -2  129.41  155.54
   5 -20   2  -37.63  195.64
   5 -20   2 -186.27  218.69
  -4  20  -2   24.60  285.79
   4 -20  -2   10.39  221.94
  -4  20  -2  158.52  154.07
  -4  20   2    8.53  249.56
   4 -20   2   36.57  200.09
   4 -20   2  184.44  207.13
  -4  20   2 -140.28  162.15
  -3  20  -2  426.69  271.56
   3 -20  -2  -20.27  215.95
  -3  20  -2  103.03  155.82
  -3  20   2 -138.88  160.79
   3 -20   2  -27.80  204.22
   3 -20   2 -130.11  198.66
  -3  20   2 -842.05  286.63
  -2  20  -2   85.68  166.35
   2 -20  -2   13.38  202.79
   2 -20  -2  -10.27  241.68
  -2  20  -2 -632.03  271.45
  -2  20   2 -250.99  284.32
  -2  20   2   31.98  172.49
   2 -20   2  -38.77  224.28
   2 -20   2 -154.84  206.45
  -1  20  -2  -16.48  180.04
   1 -20  -2   13.25  199.86
  -1  20  -2  372.60  260.25
   1 -20  -2  -10.67  234.86
   1 -20   2 -724.59  204.08
  -1  20   2  150.59  185.24
  -1  20   2 -335.31  270.20
   1 -20   2  -71.96  246.35
   0  20  -2  338.14  274.87
   0  20  -2 -260.83  192.56
   0 -20  -2   40.64  207.29
   0 -20  -2  -33.63  271.75
   0  20   2 -239.80  274.80
   0  20   2  -87.30  188.79
   0 -20   2   12.83  191.24
   0 -20   2   87.88  255.68
  -1 -20  -2 -176.43  212.24
   1  20  -2 -125.70  268.14
  -1 -20  -2   47.25  278.06
   1  20  -2   -9.19  201.58
   1  20   2    8.57  290.25
  -1 -20   2  -12.98  193.59
  -1 -20   2  -46.67  278.05
   1  20   2 -335.78  204.06
   2  20  -2 -716.01  218.88
  -2 -20  -2  -40.70  176.00
  -2 -20  -2  -49.30  278.77
   2  20  -2  127.36  267.52
  -2 -20   2   13.18  172.34
  -2 -20   2  -12.29  284.17
   2  20   2 -535.77  283.85
   2  20   2 -481.83  216.06
  -3 -20  -2  128.85  297.05
   3  20  -2 -427.79  230.27
   3  20  -2 -208.24  262.82
  -3 -20   2   13.17  148.60
  -3 -20   2 -102.99  289.40
   3  20   2    9.84  219.81
   0   0  -3   -2.63    4.78
   0   0  -3   -0.54    3.74
   0   0   3   -1.17    3.24
  -1   0  -3 3916.36  666.68
   0   1  -3 3627.85  667.27
  -1   0  -3 3942.19  664.10
   0  -1   3 3961.28  668.67
   0   1   3 3982.66  669.91
   0   1   3 3661.20  666.50
  -1   1  -3    3.82    6.24
  -1  -1  -3   -0.60    4.91
  -1  -1  -3    0.75    2.28
   1   1   3    1.15    1.98
   1   1   3    2.26    2.45
  -1   2  -3  819.15  224.10
  -1   2  -3  835.93  235.69
  -1   2  -3  933.89  213.53
  -1   2  -3  989.12  259.66
   1  -2   3 1005.06  234.11
   2   1   3 1041.00  217.55
   1  -2   3  990.76  240.67
  -2   0  -3    2.55    4.41
   0   2  -3   -3.89    5.67
   0   2  -3   -0.73   13.19
   0   2  -3   -2.22    9.16
   0  -2  -3    9.07    7.88
   0  -2   3    0.94    7.87
   0  -2   3   -3.02   12.52
   2   0   3    1.08    4.03
   0   2   3    4.55    7.63
   0   2   3   -2.42   12.62
  -1  -2  -3  495.44  209.68
  -2   1  -3 1112.79  240.02
   1   2   3  903.02  216.94
   1   2   3 1025.77  253.76
  -2   2  -3   10.96    6.60
  -2  -2  -3    3.97   10.82
  -2   2  -3   -0.68    9.82
  -2   2  -3    3.38   11.22
   2   2   3   10.11   20.82
   2  -2   3    5.57    7.22
   2  -2   3    3.37    5.59
  -2   3  -3  129.59   27.42
  -2   3  -3  116.22   30.03
  -2   3  -3  116.42   31.19
  -2   3  -3   85.58   36.60
   2  -3   3  103.31   29.65
   2  -3   3   96.54   27.10
  -1   3  -3  349.69  116.96
  -1   3  -3  354.03  104.77
   1  -3  -3  399.59  102.41
  -1   3  -3  350.96   99.36
   1  -3   3  500.05  108.30
  -1   3   3  407.02  119.59
   1  -3   3  379.73  105.46
  -1   3   3  523.86  102.55
   0   3  -3  187.70   41.48
   0   3  -3  161.96   40.10
   0   3  -3  109.06   49.72
   0  -3  -3  189.73   38.95
   0  -3   3  118.50   44.34
   0   3   3  190.94   37.55
   0  -3   3  117.80   40.29
   0   3   3  116.92   46.58
  -1  -3  -3  437.82  101.72
   1   3   3  427.81  105.14
   1   3   3  454.00  121.34
  -3   2  -3  119.40   31.71
  -2  -3  -3  113.49   34.15
   2   3   3  143.42   36.84
   3  -2   3  126.24   29.48
   2   3   3  143.26   44.82
  -3   3  -3    5.62   10.39
  -3   3  -3   -5.81   15.94
  -3   3  -3   -7.27   18.15
   3  -3   3   10.56    9.03
  -3   4  -3   12.91   27.96
  -3   4  -3    1.05   20.59
  -3   4  -3   33.36   12.90
  -3   4  -3   -2.29   18.41
   3  -4   3   11.41   11.11
   3  -4   3   -7.93   18.90
  -2   4  -3 1177.25  307.81
  -2   4  -3 1161.99  292.08
  -2   4  -3 1226.65  340.61
   2  -4  -3 1300.66  300.73
  -2   4  -3 1086.27  284.21
  -2   4   3 1169.34  299.28
   2  -4   3 1450.89  283.24
   2  -4   3 1152.09  296.40
   1  -4  -3  155.24   46.09
  -1   4  -3  152.46   40.95
  -1   4  -3  183.42   45.03
  -1   4  -3  172.71   55.86
  -1   4  -3  194.29   46.45
  -1   4   3  174.57   45.59
   1  -4   3  163.84   49.64
   1  -4   3  201.81   48.64
   0  -4  -3    4.85   19.35
   0   4  -3   -1.16   27.52
   0   4  -3    5.79    8.50
   0   4  -3    2.98   17.12
   0   4  -3    9.75   19.60
   0   4   3   10.73   29.68
   0  -4   3   -2.89   15.06
   0  -4   3   11.41   21.84
   0   4   3    7.98   17.19
   1   4  -3  246.60   65.28
   1   4  -3  120.77   43.94
  -1  -4  -3  203.52   44.93
  -1  -4   3  259.41   51.49
   1   4   3  140.60   47.59
   1   4   3  145.28   57.41
  -2  -4  -3 1515.35  303.39
   2   4   3 1101.29  346.40
   2   4   3 1229.08  313.77
  -3  -4  -3   15.14   24.99
   3   4   3   -3.80   43.69
  -3   5  -3 1359.16  361.43
  -3   5  -3 1617.07  357.35
  -3   5  -3 1717.44  423.55
   3  -5   3 1331.54  365.82
  -2   5  -3 3499.48 1182.07
  -2   5  -3 4724.52 1019.18
  -2   5  -3 4679.36 1080.39
   2  -5   3 4915.64 1055.45
   2  -5   3 4958.30 1019.17
  -1   5  -3  183.68   45.97
   1  -5  -3  193.98   46.99
  -1   5  -3  114.51   39.02
  -1   5  -3  166.38   59.54
  -1   5  -3  198.27   46.09
  -1   5   3  189.16   45.63
   1  -5   3  145.42   48.24
   1  -5   3  175.52   51.89
   0   5  -3  120.79   30.76
   0   5  -3   59.12   42.35
   0   5  -3   59.74   32.59
   0   5  -3   65.88   20.64
   0  -5  -3   65.14   33.07
   0  -5   3   76.65   26.68
   0  -5   3   77.69   36.16
   0   5   3   85.33   29.65
   1   5  -3  238.30   70.58
   1   5  -3  185.75   56.41
   1   5  -3   97.60   45.78
  -1  -5  -3  241.34   58.30
   1   5   3  218.94   52.12
  -1  -5   3  295.12   53.58
   2   5   3   -1.75  745.66
  -5   6  -3   36.33   52.46
  -4   6  -3  271.53   80.79
  -4   6  -3  360.95  103.74
   4  -6   3  335.91   76.19
  -3   6  -3   69.76   34.44
   3  -6  -3   70.99   37.59
  -3   6   3   89.81   52.05
  -3   6   3   92.33   38.83
   2  -6  -3   52.13   34.15
  -2   6  -3   36.35   15.12
  -2   6  -3   42.42   25.66
  -2   6   3   24.81   31.52
   2  -6   3   29.75   16.28
   2  -6   3   28.70   25.15
  -1   6  -3   21.63   12.12
  -1   6  -3   16.51   24.96
   1  -6  -3   61.38   34.61
   1  -6   3    7.62   26.75
  -1   6   3   37.56   30.07
   0  -6  -3   57.99   37.94
   0   6  -3   -1.33   28.65
   0   6  -3    0.82   11.89
   0  -6   3   -4.29   38.57
   0   6   3  -14.42   52.85
   0   6   3   78.02   30.44
  -1  -6  -3   70.32   45.40
   1   6  -3    7.17   16.82
  -1  -6  -3  -21.33   29.21
   1   6  -3   16.77   59.14
  -1  -6   3  -15.73   32.43
   1   6   3    3.66   53.78
   1   6   3   47.64   34.50
  -2  -6  -3   41.27   31.84
   2   6  -3   70.56   63.27
   2   6   3   25.02   43.00
   2   6   3    7.64   53.19
  -2  -6   3   64.96   37.26
  -3  -6  -3   91.26   43.35
   3   6   3  119.08   69.55
   3   6   3   85.57   51.24
  -4  -6  -3  420.54   92.58
   4   6   3  245.76  117.21
   4   6   3  322.11   94.67
  -5   7  -3   54.88   64.26
  -5   7  -3   -1.83   37.70
  -4   7  -3  -13.99   43.60
  -4   7  -3   50.35   24.56
  -4   7  -3   60.03   35.02
  -4   7  -3    3.96   66.65
   4  -7   3   22.35   21.45
   4  -7   3  -43.12   49.28
  -3   7  -3  351.68   74.23
  -3   7  -3  292.12   99.70
   3  -7  -3  253.74   80.48
  -3   7   3  290.76   75.96
  -3   7   3  255.02   96.38
   3  -7   3  189.72   79.30
  -2   7  -3   40.30   16.94
  -2   7  -3   21.22   28.61
  -2   7  -3  -29.29   33.30
   2  -7  -3   39.28   38.49
  -2   7  -3  -26.41   63.90
  -2   7   3   40.96   61.22
   2  -7   3   66.19   17.31
   2  -7   3    3.93   29.08
   2  -7   3   -4.00   44.23
  -2   7   3   16.52   36.08
  -1   7  -3   25.00   37.24
  -1   7  -3   41.27   16.38
  -1   7  -3   56.49   29.11
  -1   7  -3   58.02   63.47
   1  -7  -3   61.00   39.93
  -1   7   3   64.20   35.80
   1  -7   3   20.07   30.51
   1  -7   3   27.41   47.49
   1  -7   3   48.89   34.43
  -1   7   3   28.47   16.26
   0   7  -3  668.84  153.06
   0   7  -3  647.27  167.16
   0   7  -3  560.18  139.34
   0   7  -3  521.59  169.57
   0  -7  -3  670.98  156.92
   0  -7   3  574.11  186.82
   0  -7   3  592.09  146.42
   0   7   3  663.27  144.89
   1   7  -3   46.73   20.59
   1   7  -3   -5.02   48.71
   1   7  -3   55.45   64.14
  -1  -7  -3   29.78   53.05
  -1  -7  -3   38.05   32.59
   1   7   3   93.55   66.64
   1   7   3   46.12   43.01
  -1  -7   3   23.70   37.65
   2   7  -3   33.19   69.58
  -2  -7  -3   53.25   33.36
   2   7  -3   -2.83   50.85
   2   7   3   24.33   49.59
  -2  -7   3   -3.60   41.00
   2   7   3   26.22   63.84
  -3  -7  -3  268.19   78.13
   3   7   3  240.04   89.67
   3   7   3  299.64  106.82
  -4  -7  -3   28.49   48.90
   4   7   3   88.44   62.11
   4   7   3   73.43   84.87
  -6   8  -3  554.78  172.85
  -6   8  -3  591.19  158.47
  -5   8  -3  253.25   83.45
  -5   8  -3  327.38   80.24
  -5   8  -3  358.61  106.64
   5  -8   3  182.75   82.98
  -4   8  -3   97.23   46.85
  -4   8  -3  102.40   44.40
  -4   8  -3   79.65   34.74
  -4   8  -3   95.63   76.75
   4  -8  -3   81.71   53.38
   4  -8   3  142.47   52.47
   4  -8   3   84.65   31.32
  -4   8   3  114.53   51.54
  -4   8   3   62.51   75.05
  -3   8  -3  505.43  113.02
  -3   8  -3  508.34  145.79
  -3   8  -3  326.82  112.62
   3  -8  -3  540.53  121.00
   3  -8   3  328.97  112.11
   3  -8   3  416.85  120.05
  -3   8   3  525.82  112.95
  -3   8   3  643.43  143.62
   2  -8  -3  377.61   76.98
  -2   8   3  176.00   69.74
  -2   8   3  257.12  101.01
  -2   8   3  194.26   69.54
   2  -8   3  431.15   91.02
  -1   8  -3   81.48   24.51
   1  -8  -3   44.60   53.70
   1  -8  -3   97.83   27.17
  -1   8  -3    4.32   76.55
  -1   8  -3  -50.44   55.19
  -1   8  -3   74.71   41.08
   1  -8   3   78.73   40.72
  -1   8   3   73.83   25.29
   1  -8   3    5.44   53.26
   1  -8   3  140.43   26.82
  -1   8   3   62.23   46.20
   1  -8   3   80.56   66.58
   0   8  -3   -9.89   51.51
   0   8  -3  -31.74   38.73
   0   8  -3   -6.59   65.14
   0  -8  -3  -41.02   56.05
   0   8  -3  -14.76   14.62
   0   8   3   14.92   43.27
   0  -8   3   11.77   55.83
   0  -8   3  -22.50   35.58
  -1  -8  -3   41.08   67.90
  -1  -8  -3   74.46   43.98
   1   8  -3   51.32   60.38
   1   8  -3   86.84   77.73
   1   8  -3   92.46   26.95
   1   8   3    9.73   56.18
   1   8   3   99.90   78.08
  -1  -8   3   95.49   44.09
   2   8  -3  252.26   62.26
   2   8  -3  187.34  109.73
   2   8  -3  205.52   89.83
  -2  -8  -3  195.88   68.24
   2   8   3  255.82   84.51
   2   8   3  319.12  103.00
  -2  -8   3  199.24   74.85
  -3  -8  -3  500.59  133.72
   3   8  -3  573.56  145.18
   3   8   3  856.51  143.49
  -3  -8   3  653.79  138.64
   3   8   3  367.81  159.89
  -4  -8  -3   83.80   57.65
   4   8   3  181.08   74.71
   4   8   3   43.21   90.64
   5   8   3  159.25   87.72
  -6   9  -3   67.94   91.82
  -6   9  -3  -25.31   52.96
  -5   9  -3 1070.15  225.94
  -5   9  -3 1089.50  273.90
  -5   9  -3  764.28  249.30
   5  -9   3  908.55  239.99
  -4   9  -3  887.44  190.58
  -4   9  -3  453.15  159.48
  -4   9  -3  562.25  151.95
  -4   9  -3  779.45  146.45
   4  -9  -3  603.95  157.98
  -4   9   3  840.63  181.29
  -4   9   3  493.01  147.74
   4  -9   3  630.15  156.82
   4  -9   3  456.91  147.24
  -3   9  -3  154.57   52.82
   3  -9  -3  166.15   64.81
  -3   9  -3  137.06   45.85
  -3   9  -3  238.25   91.15
  -3   9  -3  208.86   56.86
  -3   9   3  119.03   93.44
   3  -9   3  149.50   44.29
   3  -9   3  173.41   65.42
   3  -9   3  124.58   58.52
  -3   9   3  176.02   60.87
  -2   9  -3   22.00   45.12
  -2   9  -3  135.44   84.14
   2  -9  -3   49.41   55.95
   2  -9   3   -1.44   23.53
  -2   9   3   62.42   48.30
  -2   9   3   98.44   84.49
   2  -9   3   41.46   57.17
  -1   9  -3   19.49   51.08
   1  -9  -3   17.32   57.74
  -1   9  -3    9.89   78.31
  -1   9   3    9.22   46.97
   1  -9   3    9.37   66.03
   1  -9   3    9.22   42.57
   0  -9  -3  -12.76   66.70
   0   9  -3   39.45   57.57
   0   9  -3    7.44   75.35
   0   9  -3   63.86   17.27
   0   9  -3  -26.00   44.08
   0  -9   3  -11.45   63.47
   0   9   3  -36.93   53.20
   0  -9   3    3.23   45.13
   0  -9   3   -3.58   75.88
   1   9  -3 -104.39   82.65
  -1  -9  -3  103.24   45.77
   1   9  -3   20.77   18.45
   1   9  -3   42.30   67.07
  -1  -9  -3   73.14   74.32
   1   9   3  -11.03   85.99
  -1  -9   3  -40.54   49.95
   1   9   3   44.83   59.61
  -2  -9  -3   -3.66   51.03
   2   9  -3  115.25   72.77
   2   9  -3 -131.36   94.90
   2   9  -3   99.17   28.52
   2   9   3    9.42   66.78
  -2  -9   3  106.41   51.43
   2   9   3   25.00   83.03
   3   9  -3  131.51   87.47
   3   9  -3  229.87  110.00
  -3  -9  -3  127.77   66.12
  -3  -9   3  260.12   69.51
   3   9   3  192.73  103.66
   3   9   3  202.85   83.50
  -4  -9  -3  712.34  166.89
   4   9   3  847.53  201.17
   4   9   3  535.28  177.42
  -5  -9  -3  941.95  227.76
   5   9   3  887.73  238.29
  -7  10  -3   62.74  109.28
  -6  10  -3  324.33  109.03
  -6  10  -3  425.36  142.79
  -5  10  -3  340.44   91.18
  -5  10  -3  328.43   87.67
  -5  10  -3  367.33  136.82
   5 -10  -3  197.14   95.38
   5 -10   3  279.18   97.30
  -5  10   3  192.79  124.77
  -4  10  -3  232.83  108.12
  -4  10  -3   74.89   51.39
  -4  10  -3  133.18   43.55
   4 -10  -3  135.40   70.34
  -4  10  -3   78.31   59.40
  -4  10   3  105.06   62.70
  -4  10   3   93.98  101.69
   4 -10   3  138.47   38.73
   4 -10   3   75.12   67.26
  -3  10  -3   77.50   99.75
  -3  10  -3  104.94   44.32
   3 -10  -3  131.48   64.06
  -3  10  -3  101.74   55.53
  -3  10  -3   71.25   35.44
  -3  10   3  150.01  104.18
   3 -10   3   84.35   33.97
   3 -10   3  109.98   65.89
  -3  10   3  113.11   54.62
   3 -10   3   43.58   51.30
   2 -10  -3  175.89   71.45
  -2  10  -3  158.48   64.14
  -2  10  -3  179.42   44.84
  -2  10  -3  141.20  104.15
  -2  10  -3   86.29   56.08
  -2  10   3  261.39  109.67
  -2  10   3   82.56   61.55
   2 -10   3  165.71   64.52
   2 -10   3  188.12   46.58
   2 -10   3  196.51   78.72
   1 -10  -3  256.55   80.49
  -1  10  -3  144.04   68.95
  -1  10  -3  156.31   94.10
   1 -10   3  124.82   91.38
  -1  10   3  298.06  114.35
  -1  10   3  139.51   66.64
   1 -10   3  170.34   65.35
   0 -10  -3   22.09   76.78
   0  10  -3   86.29   86.63
   0  10  -3  -19.14   69.22
   0  10   3  -16.88   59.38
   0 -10   3   36.68   85.27
   0 -10   3  -14.87   46.11
  -1 -10  -3   91.49   93.45
   1  10  -3  183.65  100.56
   1  10  -3  153.40   84.41
  -1 -10  -3   -3.95   63.14
   1  10   3  186.27   76.66
  -1 -10   3  148.14   66.54
  -2 -10  -3  161.42   67.27
  -2 -10  -3  246.38  108.94
   2  10  -3  171.71   92.57
   2  10  -3   67.16  108.64
  -2 -10   3  139.22   68.50
   2  10   3  145.77   84.15
   2  10   3  196.23  101.06
  -3 -10  -3   82.57   61.60
   3  10  -3   13.00   87.11
   3  10  -3  224.97  111.04
   3  10   3  105.73   85.24
  -3 -10   3   62.68   60.69
   3  10   3   86.81  105.91
  -4 -10  -3  113.61   70.00
   4  10   3  223.80   95.62
   4  10   3  129.12  113.98
  -5 -10  -3  189.12   94.89
   5  10   3  237.81  112.33
   5  10   3  379.10  138.91
  -7  11  -3  -25.85  118.96
  -7  11  -3  -51.42   67.58
  -6  11  -3  -55.57  132.23
   6 -11   3   28.84   75.73
  -5  11  -3   66.39   61.77
  -5  11  -3   -3.64  121.69
   5 -11  -3   51.22   77.51
   5 -11   3   30.10   73.28
  -5  11   3   60.88  110.07
  -4  11  -3   76.51  116.89
  -4  11  -3   76.32   59.32
   4 -11  -3   86.75   75.09
   4 -11   3   47.17   71.67
  -4  11   3   25.38  120.85
  -4  11   3    6.47   64.44
  -3  11  -3   57.23  117.21
  -3  11  -3  -13.93   61.19
   3 -11  -3   71.52   73.33
  -3  11   3  145.47  117.89
   3 -11   3   16.89   73.37
  -3  11   3   95.62   59.99
  -2  11  -3   28.95  106.66
   2 -11  -3  -17.90   71.86
  -2  11  -3   37.13   62.67
  -2  11   3  -25.03  117.27
   2 -11   3   53.90   63.42
  -2  11   3   29.02   60.85
   2 -11   3   21.70   79.69
  -1  11  -3   12.53   67.43
  -1  11  -3  -12.53  103.91
   1 -11  -3  -76.34   80.42
  -1  11   3   29.88   62.47
   1 -11   3   20.33   57.91
  -1  11   3    3.57  116.31
   1 -11   3   36.46   86.86
   0  11  -3  414.17  148.25
   0  11  -3  368.87  130.28
   0 -11  -3  391.37  142.92
   0  11   3  548.46  121.87
   0 -11   3  380.49  152.52
   0 -11   3  404.31  118.07
   1  11  -3  -12.17   86.36
   1  11  -3  140.62  106.07
  -1 -11  -3  103.84  103.28
   1  11   3   49.95   78.74
  -1 -11   3  -41.38   58.36
  -2 -11  -3    4.66   64.04
   2  11  -3   -8.93   93.84
  -2 -11  -3  125.55  112.66
   2  11  -3   68.99  110.03
   2  11   3   98.85  111.72
   2  11   3   -3.97   85.85
  -2 -11   3   55.16   62.64
  -3 -11  -3  132.68   74.56
   3  11  -3  138.38   99.01
   3  11  -3  185.33  124.54
   3  11   3   26.01   96.70
   3  11   3    3.82  115.01
  -3 -11   3   79.20   68.11
  -4 -11  -3  -45.05   82.29
   4  11   3 -364.90  130.42
   4  11   3    4.63  109.00
  -5 -11  -3   80.48   76.87
   5  11   3   77.41  105.97
   5  11   3 -427.62  150.60
  -7  12  -3  140.07  154.18
  -6  12  -3  -56.33   75.14
  -6  12  -3  187.00  145.98
   6 -12   3   45.30   84.34
  -5  12  -3  185.08  137.85
  -5  12  -3  -23.91   68.34
   5 -12  -3  -65.74   87.12
   5 -12   3   32.54   80.69
  -5  12   3  -60.66   73.39
  -5  12   3  157.91  132.92
   4 -12  -3  192.61   89.73
  -4  12  -3  -31.15  133.66
  -4  12  -3    3.12   65.31
   4 -12   3   64.06   81.06
  -4  12   3    3.52   73.87
  -4  12   3  199.68  133.22
   3 -12  -3   80.38   80.89
  -3  12  -3  -18.72   64.78
  -3  12  -3    7.49  127.28
  -3  12   3   92.81   70.31
   3 -12   3   38.12   85.60
  -3  12   3 -217.26  133.40
  -2  12  -3   96.56   76.06
  -2  12  -3   39.30  122.06
   2 -12  -3  134.06   85.95
   2 -12   3  147.39   93.86
  -2  12   3  143.71  133.64
   2 -12   3   51.72   69.98
  -2  12   3  153.07   72.82
   1 -12  -3   86.92  116.74
  -1  12  -3  243.11   90.32
  -1  12  -3  292.23  126.70
  -1  12   3  241.02  150.81
  -1  12   3   20.25   92.52
   1 -12   3  180.81   85.90
   1 -12   3  353.45  118.40
   0 -12  -3   -5.12   77.60
   0  12  -3  -13.68  102.24
   0  12  -3    7.94   86.39
   0  12   3 -271.37   99.16
   0 -12   3  -52.26   74.43
   0 -12   3   -5.14  117.49
   1  12  -3  124.66  129.15
  -1 -12  -3 -243.01  148.36
   1  12  -3  667.45  117.74
   1  12   3   71.52  118.59
  -1 -12   3  231.18   89.82
  -1 -12   3  640.30  147.63
  -2 -12  -3  -26.25   73.91
  -2 -12  -3 -180.67  131.64
   2  12  -3  108.68  106.81
   2  12  -3   58.18  123.96
  -2 -12   3   44.08   77.57
   2  12   3  105.93   98.51
  -3 -12  -3  175.18  141.18
   3  12  -3   -4.50  127.32
  -3 -12  -3  131.71   87.79
   3  12  -3   78.48  110.01
   3  12   3 -294.10  140.36
   3  12   3   90.63  106.70
  -3 -12   3   61.26   76.32
  -4 -12  -3  -24.71   82.56
   4  12  -3  -44.22  119.95
   4  12   3  164.78  140.67
   4  12   3    5.11  113.15
  -5 -12  -3  201.33   81.87
   5  12   3   -4.93  122.51
   5  12   3   42.44  116.97
  -6  13  -3 -144.41   82.86
  -6  13   3   96.26  149.09
   6 -13   3   -4.93   98.05
  -5  13  -3  -18.04   73.73
  -5  13   3   92.01  156.26
   5 -13   3   49.31   98.20
  -4  13  -3  -82.43  152.79
  -4  13  -3  106.70   76.18
   4 -13   3   79.81   91.73
  -3  13  -3  153.36   77.24
  -3  13  -3 -119.62  141.85
   3 -13   3  -27.88   87.66
   3 -13   3   55.51   96.89
  -2  13  -3   59.59  132.43
  -2  13  -3  -65.30   78.68
   2 -13  -3   59.77   98.40
  -2  13   3  -18.23   77.73
   2 -13   3 -133.64   79.79
   2 -13   3   50.67  103.29
  -1  13  -3   -3.85  129.21
  -1  13  -3   31.47   85.41
   1 -13  -3  -24.61  103.96
  -1  13   3   22.81   81.74
   1 -13   3  -30.52  116.82
   1 -13   3 -105.91   79.82
   0 -13  -3  246.42  123.87
   0  13  -3  225.66  100.02
   0  13  -3   84.27  122.30
   0 -13   3   51.26  128.02
   0  13   3   -4.07   94.60
   0 -13   3  -32.52   82.70
  -1 -13  -3 -147.86  132.85
   1  13  -3 -120.69  128.27
   1  13  -3  138.46  110.49
  -1 -13   3    5.78   76.61
  -1 -13   3   18.85  142.63
   1  13   3  -39.83   98.06
   2  13  -3   -5.41  117.19
   2  13  -3  433.16  130.23
  -2 -13   3   -6.06   66.90
  -5 -13  -3  -58.38   91.01
   5  13   3    5.30  158.85
   5  13   3   -5.84  114.72
  -7  14  -3   36.83  182.72
  -6  14  -3  193.71  184.91
  -6  14  -3  171.22   92.42
  -6  14   3  108.99  173.82
   6 -14   3   48.41  114.29
   5 -14  -3  -28.35  110.80
  -5  14  -3  -64.38  179.80
  -5  14   3  -44.13   89.74
  -5  14   3   97.16  174.38
   4 -14  -3   10.58  115.45
  -4  14   3   -5.00  169.99
  -4  14   3  -32.90   87.61
   3 -14  -3    5.07  108.87
  -3  14   3  -44.14   86.93
  -3  14   3    4.95  158.84
   2 -14  -3   62.24  115.74
  -2  14   3  115.54   95.81
  -2  14   3  346.64  174.28
   1 -14  -3   66.35  107.73
   1 -14  -3  382.57  134.61
  -1  14   3  283.71  101.35
  -1  14   3   57.35  178.67
   0 -14  -3   45.74  111.82
   0 -14  -3  269.76  132.26
   0  14   3  404.94  108.57
   0  14   3  -98.23  165.56
   1  14  -3   55.40  147.03
  -1 -14  -3   -6.54  146.38
   1  14   3    4.91  113.28
  -1 -14   3    6.43   94.93
  -2 -14  -3 -164.37  157.38
   2  14  -3    4.91  148.88
   2  14  -3  194.82  126.57
  -2 -14   3   -7.40  146.42
  -2 -14   3   47.57   97.05
   2  14   3    5.36  119.23
   3  14  -3 -177.62  134.90
  -3 -14  -3  183.61  171.22
  -3 -14  -3  141.50   97.69
   3  14  -3   25.99  153.51
   3  14   3  117.47  163.39
  -3 -14   3 -145.06   98.39
   3  14   3 -380.52  130.30
  -4 -14  -3  270.81  178.34
  -4 -14  -3   60.03  105.25
   4  14   3  176.61  141.53
   4  14   3    5.44  170.25
  -4 -14   3   98.82   96.53
  -5 -14  -3 -111.43  104.61
   5  14   3   74.32  177.02
   5  14   3    6.36  131.89
  -8  15  -3  -11.84  212.18
  -7  15  -3 -155.40  199.08
  -6  15  -3   41.37   92.60
   6 -15  -3   19.68  124.04
  -6  15  -3  112.46  191.43
   6 -15   3   -5.86  116.68
  -6  15   3  -63.25  191.22
   5 -15  -3  -37.60  120.80
  -5  15  -3    5.48  190.16
  -5  15  -3   47.09   89.07
   5 -15   3   16.31  110.13
  -5  15   3   -5.60  195.35
  -5  15   3  -72.05   94.24
   4 -15  -3    5.90  119.83
  -4  15  -3 -344.23  188.98
  -4  15  -3   83.68   91.15
   4 -15   3  -44.23  120.32
  -4  15   3   18.14   94.72
   4 -15   3  -15.60  112.44
  -4  15   3 -259.99  183.43
  -3  15  -3 -105.02  176.46
   3 -15  -3  -39.85  119.99
  -3  15  -3   42.90   92.59
   3 -15   3   21.34  118.73
  -3  15   3   -4.55   97.26
  -3  15   3 -114.96  182.54
   3 -15   3  -84.51  104.40
   2 -15  -3  -38.47  118.49
  -2  15  -3 -105.91  160.68
  -2  15  -3  -58.76  100.40
   2 -15  -3   35.05  128.43
   2 -15   3    6.84   99.86
  -2  15   3  -41.43   96.62
   2 -15   3    5.75  128.84
  -2  15   3  122.46  180.44
   1 -15  -3 -232.03  121.03
  -1  15  -3   53.79  108.61
  -1  15  -3   78.99  157.33
   1 -15  -3  136.51  139.66
  -1  15   3   78.21  188.32
   1 -15   3  109.00  104.49
  -1  15   3  221.67  107.71
   1 -15   3  -18.82  149.61
   0  15  -3  -21.49  122.20
   0  15  -3  177.57  162.75
   0 -15  -3 -261.40  153.49
   0 -15  -3    7.35  110.30
   0 -15   3   -6.92  101.38
   0  15   3 -215.12  177.03
   0 -15   3  -13.86  158.17
   0  15   3 -142.16  115.96
  -1 -15  -3 -101.89  170.28
  -1 -15  -3   51.82  106.85
   1  15  -3   17.76  138.80
   1  15  -3   35.59  167.06
   1  15   3   -4.97  169.72
   1  15   3    5.46  120.56
  -1 -15   3   30.22  172.27
  -1 -15   3    7.16  103.21
   2  15  -3    6.45  144.59
   2  15  -3 -510.42  175.72
  -2 -15  -3  -39.20  177.10
   2  15   3   23.48  130.90
  -2 -15   3 -225.48  107.95
  -2 -15   3    8.11  186.71
  -3 -15  -3    8.37  190.18
  -3 -15  -3  125.92  111.76
   3  15  -3  110.35  148.62
   3  15  -3  201.98  173.11
   3  15   3 -152.14  142.98
  -3 -15   3  -39.67  101.16
  -4 -15  -3  -83.11  101.80
  -4 -15  -3   87.33  197.21
   4  15  -3   21.72  153.73
  -4 -15   3    8.23  103.00
   4  15   3  100.64  180.46
   4  15   3    6.65  147.54
  -5 -15  -3   26.15  115.46
   5  15   3  202.33  153.66
   5  15   3  203.93  185.45
  -8  16  -3  548.82  280.79
  -7  16  -3    6.34  221.83
   7 -16   3  -40.42  128.95
   6 -16  -3  -21.66  133.88
  -6  16  -3 -133.86  112.79
  -6  16   3 -438.85  225.32
   6 -16   3  -44.78  141.59
  -5  16  -3 -117.00  103.69
   5 -16  -3  -20.83  140.14
  -5  16   3   37.01  204.60
   5 -16   3  -23.96  137.24
  -5  16   3  -94.56  101.91
   4 -16  -3   -6.58  133.87
  -4  16  -3  -46.19   96.81
  -4  16  -3    5.70  193.71
   4 -16   3 -360.66  127.66
   4 -16   3   23.08  124.13
  -4  16   3    5.01   99.72
  -4  16   3  195.12  206.53
   3 -16  -3    6.39  136.61
  -3  16  -3   19.23  105.99
  -3  16  -3  -87.66  200.25
   3 -16   3  158.74  131.67
  -3  16   3   85.90  107.08
  -3  16   3 -179.51  205.05
   3 -16   3  -23.77  129.16
  -2  16  -3 -392.31  176.86
   2 -16  -3   39.40  138.78
  -2  16  -3    5.07  115.47
   2 -16  -3    8.54  142.42
   2 -16   3   38.32  142.01
  -2  16   3 -210.21  203.53
  -2  16   3  -87.16  111.99
   2 -16   3   69.82  121.32
   1 -16  -3    8.38  132.87
  -1  16  -3   92.23  122.67
   1 -16  -3   -6.93  152.77
  -1  16  -3 -153.22  173.25
  -1  16   3 -102.18  113.28
  -1  16   3   -5.70  197.27
   1 -16   3   34.64  152.02
   1 -16   3   -7.65  115.32
   0  16  -3    5.38  169.59
   0  16  -3    5.91  131.45
   0 -16  -3   -7.47  162.62
   0 -16  -3   -8.31  120.58
   0  16   3  -33.25  185.10
   0 -16   3 -369.94  122.98
   0  16   3 -187.32  124.14
   0 -16   3   -7.58  178.10
  -1 -16  -3  160.27  179.63
   1  16  -3   52.00  147.94
  -1 -16  -3  281.89  126.22
   1  16  -3   61.55  179.01
  -1 -16   3    8.29  185.43
   1  16   3   22.04  192.02
  -1 -16   3    7.98  109.76
   1  16   3  120.75  137.41
   2  16  -3   -7.03  158.07
  -2 -16  -3    8.63  194.13
   2  16  -3  339.54  178.58
   2  16   3 -206.46  145.12
  -2 -16   3   44.22  198.29
  -2 -16   3  -25.07  111.67
   3  16  -3  560.97  164.61
  -3 -16  -3 -319.59  209.41
   3  16  -3  -36.45  182.32
  -3 -16   3   46.38  212.41
  -3 -16   3  261.16  124.35
   3  16   3    6.87  156.58
  -4 -16  -3    9.22  122.34
  -4 -16  -3 -190.55  216.14
   4  16  -3   -7.85  168.85
   4  16   3    6.44  192.36
  -4 -16   3    8.95  109.00
   4  16   3 -195.69  161.97
  -5 -16  -3   57.40  134.20
  -5 -16  -3  383.98  230.68
   5  16   3  136.17  162.99
   5  16   3 -187.68  211.05
  -8  17  -3 -382.32  266.82
  -7  17  -3  152.81  239.66
   7 -17   3   58.42  138.00
   6 -17  -3    7.95  151.39
  -6  17  -3  181.98  239.12
  -6  17  -3   85.97  113.27
   6 -17   3   -6.99  148.46
  -6  17   3 -137.84  243.03
   5 -17  -3  -53.95  147.76
  -5  17  -3  194.61  227.59
  -5  17  -3   51.25  106.52
  -5  17   3  -98.16  109.46
   5 -17   3   -9.54  152.20
   5 -17   3   13.22  140.33
  -5  17   3   27.13  233.96
   4 -17  -3   -7.36  150.34
  -4  17  -3 -411.34  221.88
  -4  17  -3   -5.19  108.83
  -4  17   3  142.62  117.45
   4 -17   3    9.20  148.90
   4 -17   3   19.23  134.78
  -4  17   3   -6.66  235.08
   3 -17  -3 -500.33  155.26
  -3  17  -3    6.00  200.71
  -3  17  -3  -85.07  118.22
   3 -17  -3    7.23  162.07
   3 -17   3   46.28  148.00
   3 -17   3   44.58  129.47
  -3  17   3   -6.50  223.82
  -3  17   3   61.91  116.65
   2 -17  -3   -7.37  162.57
   2 -17  -3    9.57  153.36
  -2  17  -3 -123.83  125.32
  -2  17  -3 -689.53  209.32
  -2  17   3  -25.41  224.66
  -2  17   3 -148.67  127.52
   2 -17   3   35.21  158.23
   2 -17   3  104.83  129.36
   1 -17  -3  -54.26  180.27
  -1  17  -3 -580.38  213.18
   1 -17  -3  -47.05  142.98
  -1  17   3 -585.20  225.17
   1 -17   3  -61.20  185.68
  -1  17   3 -537.05  143.82
   1 -17   3  113.65  132.63
   0 -17  -3 -261.66  151.94
   0  17  -3  -71.68  152.01
   0 -17  -3   -8.30  184.01
   0  17  -3 -381.19  205.39
   0 -17   3   -8.87  125.62
   0 -17   3  -33.13  199.53
   0  17   3 -672.93  214.62
   1  17  -3 -297.63  208.29
  -1 -17  -3    9.45  149.10
  -1 -17  -3  310.41  205.31
   1  17  -3  -14.10  158.06
  -1 -17   3   35.95  137.65
  -1 -17   3  -36.03  216.43
   1  17   3    6.68  151.73
   1  17   3 -246.44  222.98
   2  17  -3   -7.61  172.11
   2  17  -3   70.26  203.06
  -2 -17  -3 -254.16  213.61
  -2 -17   3   19.20  218.55
   2  17   3 -466.13  223.87
   2  17   3    7.05  159.77
  -2 -17   3 -557.30  143.66
  -3 -17  -3    9.94  221.37
   3  17  -3   26.39  218.80
   3  17  -3    8.13  176.36
   3  17   3 -605.13  160.34
  -3 -17   3 -161.97  284.08
  -3 -17   3    9.58  128.80
   4  17  -3 -127.34  184.25
  -4 -17  -3  247.85  150.98
  -4 -17  -3  354.15  241.46
  -4 -17   3  -41.80  309.28
  -4 -17   3   58.72  127.59
   4  17   3  117.63  179.37
   4  17   3  119.49  214.36
  -5 -17  -3   21.05  127.42
  -5 -17  -3  807.18  248.28
   5  17   3 -153.11  221.44
   5  17   3    8.23  179.99
  -8  18  -3    7.74  268.38
  -7  18  -3 -535.59  271.09
   7 -18   3   -7.92  154.19
  -6  18  -3 1320.17  304.57
  -6  18  -3  233.78  159.19
   6 -18  -3  123.07  228.08
   6 -18   3   68.92  195.94
   6 -18   3  184.72  222.75
   5 -18  -3   25.71  171.50
  -5  18  -3  -21.10  251.25
  -5  18  -3   -5.78  116.19
   5 -18   3    7.30  159.10
  -5  18   3 -493.12  270.05
   5 -18   3  -10.59  168.64
  -5  18   3  -95.63  123.64
   4 -18  -3  -11.15  169.97
  -4  18  -3 -169.88  229.73
  -4  18  -3    5.73  120.08
   4 -18  -3  -16.49  168.56
   4 -18   3  -57.42  159.99
  -4  18   3  408.53  245.19
   4 -18   3   51.49  172.57
  -4  18   3  190.21  126.25
  -3  18  -3 -105.91  129.35
  -3  18  -3  419.56  229.48
   3 -18  -3   43.51  178.71
   3 -18  -3   48.87  170.67
  -3  18   3 -249.82  126.39
   3 -18   3    7.35  159.53
   3 -18   3  -10.07  154.83
  -3  18   3  247.20  245.24
   2 -18  -3  -42.83  174.70
  -2  18  -3  287.48  213.18
   2 -18  -3   24.81  179.74
  -2  18  -3  -81.62  131.84
  -2  18   3 -103.21  143.15
   2 -18   3 -108.57  152.51
  -2  18   3    6.93  234.97
   2 -18   3  -38.96  182.81
  -1  18  -3 -161.02  205.16
  -1  18  -3   33.28  140.50
   1 -18  -3   95.63  157.85
   1 -18  -3  -17.26  187.66
  -1  18   3 -100.46  142.33
   1 -18   3   39.61  139.31
  -1  18   3 -434.62  230.07
   1 -18   3    8.43  198.85
   0  18  -3   19.96  209.53
   0  18  -3   21.48  159.46
   0 -18  -3 -411.17  164.89
   0 -18  -3  -36.82  203.45
   0  18   3  -70.59  149.97
   0 -18   3   90.10  150.91
   0  18   3    6.58  210.44
   0 -18   3    9.10  208.54
  -1 -18  -3   -9.75  214.74
   1  18  -3   34.12  218.65
   1  18  -3   76.98  163.90
  -1 -18  -3   21.37  148.96
   1  18   3   -7.37  160.19
  -1 -18   3 -430.91  150.80
  -1 -18   3   19.53  230.79
   1  18   3  268.33  234.24
  -2 -18  -3 -152.59  162.64
  -2 -18  -3  -71.86  234.46
   2  18  -3  698.29  230.01
   2  18  -3    8.30  186.53
   2  18   3 -165.86  232.35
  -2 -18   3  -10.47  242.69
   2  18   3  163.17  174.70
  -2 -18   3   41.70  149.13
  -3 -18  -3  -10.85  257.79
   3  18  -3  107.86  215.13
   3  18  -3  247.10  190.02
  -3 -18   3 -284.83  141.63
  -3 -18   3   10.98  261.74
   3  18   3   32.60  178.62
  -4 -18  -3  181.00  260.60
  -4 -18  -3  137.77  162.32
   4  18  -3  -82.98  198.99
  -4 -18   3   34.14  269.55
   4  18   3    8.56  186.78
  -5 -18  -3  -11.62  148.02
  -5 -18  -3  304.00  271.46
   5  18   3 -420.36  200.74
   5  18   3 -246.63  244.80
  -7  19  -3 -301.10  290.59
   7 -19   3   36.61  192.85
   7 -19   3  -17.22  163.18
  -6  19  -3   63.84  129.80
  -6  19  -3  110.41  281.66
   6 -19  -3  -19.47  186.50
   6 -19   3   -8.40  175.89
  -6  19   3  216.46  286.66
   6 -19   3  -35.96  192.16
  -5  19  -3  -44.57  131.95
   5 -19  -3   57.43  191.47
  -5  19  -3  466.85  268.54
   5 -19   3   -8.25  173.55
   5 -19   3 -211.86  184.60
  -5  19   3   -7.07  143.42
  -5  19   3    8.12  280.54
  -4  19  -3 -237.05  256.57
   4 -19  -3   18.89  191.68
   4 -19  -3  -12.30  191.91
  -4  19  -3  113.65  132.96
  -4  19   3   -7.91  282.72
  -4  19   3    7.07  143.51
   4 -19   3   31.97  178.88
   4 -19   3  -92.00  183.51
  -3  19  -3  -78.05  244.29
   3 -19  -3  -18.33  182.64
  -3  19  -3  -32.99  143.97
   3 -19  -3  194.91  195.60
  -3  19   3 -207.95  274.52
   3 -19   3   67.79  179.11
  -3  19   3 -361.68  146.01
   3 -19   3    8.16  188.92
  -2  19  -3 -409.51  178.00
   2 -19  -3   12.00  190.05
   2 -19  -3  -74.17  216.51
   2 -19   3 -157.68  176.94
   2 -19   3   -8.60  215.90
   1 -19  -3  -67.46  254.95
  -1  19  -3 -237.08  204.26
  -1  19  -3 -831.53  260.00
   1 -19   3  -46.40  256.45
   1 -19   3 -813.67  205.98
   0 -19  -3  -10.15  255.93
   0 -19  -3   71.99  183.52
   0  19  -3  538.45  260.11
   0  19  -3 -173.25  191.78
   0 -19   3   59.68  259.25
   0 -19   3   44.88  176.65
   1  19  -3   -8.43  199.82
  -1 -19  -3   21.47  265.30
  -1 -19  -3 -279.75  193.49
  -1 -19   3  -11.40  177.59
  -1 -19   3   10.68  270.73
  -2 -19  -3  -12.20  174.08
  -2 -19  -3   11.29  273.46
   2  19  -3 -923.47  210.94
  -2 -19   3  -11.62  169.06
  -2 -19   3   33.98  269.10
   2  19   3 -708.60  212.92
   3  19  -3   28.53  205.46
  -3 -19  -3   70.67  275.09
   3  19  -3 -236.11  240.95
  -3 -19   3   11.88  274.85
   3  19   3   -8.88  200.70
  -3 -19   3   11.68  151.64
  -4 -19  -3  282.02  291.81
  -4 -19   3   12.35  295.20
   4  19   3  222.32  217.45
  -5 -19  -3 -202.89  299.35
  -5 -19  -3  205.72  182.81
   5  19   3  569.60  230.42
   5  19   3  226.38  266.00
  -6  20  -3  -59.94  312.17
  -6  20  -3  -56.11  146.03
   6 -20   3   -9.24  196.73
   6 -20   3  -93.15  219.92
  -5  20  -3 -116.45  284.64
  -5  20  -3  -14.08  148.55
   5 -20   3   -9.13  196.25
   5 -20   3   78.62  218.37
   4 -20  -3   21.21  226.31
  -4  20  -3   55.70  148.72
  -4  20  -3  319.46  278.68
  -4  20   3  -23.73  162.79
   4 -20   3   -8.91  194.79
   4 -20   3  427.10  198.38
  -3  20  -3  363.52  273.61
   3 -20  -3  -30.97  223.87
  -3  20  -3  262.30  159.86
  -3  20   3   87.08  165.81
   3 -20   3 -203.68  204.79
   3 -20   3    9.07  208.14
  -3  20   3   -8.42  248.75
  -2  20  -3 -360.05  175.49
   2 -20  -3 -460.34  224.80
  -2  20  -3 -221.15  269.48
   2 -20  -3   10.40  222.25
   2 -20   3   50.95  193.28
  -2  20   3 -106.04  273.90
   2 -20   3    9.53  211.63
  -2  20   3 -312.05  175.17
  -1  20  -3  -72.34  261.30
  -1  20  -3   57.45  173.43
   1 -20  -3   10.77  243.43
  -1  20   3 -709.62  185.32
   1 -20   3  -61.03  248.56
   1 -20   3  -12.84  184.43
  -1  20   3  183.25  280.01
   0 -20  -3   22.48  245.43
   0  20  -3    8.69  186.79
   0  20  -3  131.54  263.24
   0  20   3  -57.72  272.92
   0  20   3  113.77  192.49
   0 -20   3   10.90  258.45
   0 -20   3  152.45  191.88
  -1 -20  -3 -318.20  209.16
  -1 -20  -3  -11.84  263.76
   1  20  -3  691.16  275.08
   1  20  -3  175.16  211.57
   1  20   3 -406.16  204.34
  -1 -20   3   11.58  264.59
  -1 -20   3  115.63  173.06
   2  20  -3   67.10  262.00
   2  20  -3  136.40  215.74
  -2 -20  -3  -49.36  292.52
  -2 -20   3   12.22  281.50
   2  20   3   -9.38  210.52
  -2 -20   3 -376.46  193.93
   3  20  -3   51.45  227.79
  -3 -20   3 -478.85  154.27
  -3 -20   3   12.85  290.88
   0   0  -4 3279.21  829.74
   0   0   4 3356.72  888.28
  -1   0  -4    2.13    7.50
   0   1  -4    4.06   10.30
   0  -1  -4   -0.64    5.83
  -1   0  -4    1.19    3.76
   0  -1   4    2.57   11.95
   1   0   4   -4.13    7.04
   0   1   4   -6.94   11.20
  -1  -1  -4   39.96   11.16
  -1  -1  -4   26.18   10.29
  -1   1  -4   33.40   12.04
  -1  -1  -4   25.83   12.45
  -1  -1  -4   27.05    8.02
   1   1   4   18.26   14.83
   1   1   4   32.64    9.87
   1   1   4   35.80   10.63
   1  -1   4   37.63   11.74
  -1   2  -4   13.83    6.40
  -1   2  -4   11.96   13.59
  -2  -1  -4   22.44    8.46
  -1   2  -4   16.86    8.35
  -1   2  -4   16.59   11.30
  -2  -1  -4    9.64    6.24
  -2  -1  -4   20.98    9.66
   1  -2   4    9.85   10.93
   2   1   4   13.51    5.90
   1  -2   4   20.33    7.80
  -2   0  -4  883.87  197.46
  -2   0  -4  923.49  210.95
   0  -2  -4 1041.52  199.12
   0   2  -4  940.73  195.27
   0   2   4  726.43  227.24
   0   2   4  977.28  201.41
  -2   1  -4   15.91   10.82
  -1  -2  -4   10.61   11.60
  -1  -2  -4   14.83    8.55
  -1  -2  -4   13.52    4.54
   1   2   4   11.61   10.32
   1   2   4   12.13    7.51
   1   2   4    6.15   18.02
  -2  -2  -4  453.02  103.02
  -2   2  -4  312.14  111.99
  -2   2  -4  355.12   91.01
  -2   2  -4  347.30   99.38
  -2  -2  -4  515.65  100.21
  -2   2  -4  417.59   98.47
   2   2   4  471.84   99.26
   2  -2   4  401.10   89.46
   2  -2   4  368.76   95.52
   2   2   4  371.14  117.13
  -2   3  -4  387.73  138.97
  -2   3  -4  352.58  123.81
  -2   3  -4  553.16  121.14
   2  -3   4  579.89  119.64
  -1   3  -4  105.96   40.60
  -1   3  -4  194.73   43.77
  -1   3  -4  177.58   37.68
  -1   3  -4  158.35   50.99
   1  -3  -4  139.36   42.94
  -1   3   4  141.91   50.41
  -1   3   4  125.79   42.99
   1  -3   4  196.95   40.46
   1  -3   4  159.64   44.78
   0   3  -4   -0.86    8.64
   0   3  -4   -8.70   23.13
   0  -3  -4   -4.52   12.81
  -3   0  -4   -3.13    9.22
   0   3  -4    1.05   15.48
   0   3   4   -0.91   20.69
   3   0   4   -1.65    6.84
   0  -3   4   -1.08   18.68
   0  -3   4   -4.08   12.07
   0   3   4   -5.74   12.92
  -1  -3  -4  257.87   48.92
   1   3   4  167.60   45.51
   1   3   4  148.41   54.76
  -3   2  -4  595.95  138.87
  -2  -3  -4  575.04  129.52
  -3   2  -4  657.92  127.84
   2   3   4  450.83  133.63
   3  -2   4  507.78  123.64
   2   3   4  504.36  148.70
  -3  -3  -4 1137.47  271.86
  -3   3  -4 1083.73  272.20
  -3   3  -4 1098.26  247.22
  -3   3  -4  970.74  301.78
   3   3   4 1027.21  308.83
   3  -3   4 1093.27  241.76
  -3   4  -4  581.36  140.09
  -3   4  -4  585.65  144.83
  -3   4  -4  588.83  132.16
  -3   4  -4  484.95  161.92
   3  -4   4  626.86  139.17
  -2   4  -4  328.12   78.15
  -2   4  -4  340.75   82.09
   2  -4  -4  257.46   81.78
  -2   4  -4  314.92   93.20
   2  -4   4  342.75   80.93
  -2   4   4  331.29   91.95
   1  -4  -4   14.56   17.57
  -1   4  -4   -6.63   18.36
  -1   4  -4   10.30   17.23
  -1   4  -4    7.07   27.67
  -1   4  -4   19.74    8.48
   1  -4   4    4.86   18.39
  -1   4   4    7.07   18.49
   1  -4   4    9.30   14.07
   1  -4   4   15.33   22.99
  -1   4   4    2.42   26.72
   0   4  -4 1624.21  411.67
   0   4  -4 1591.63  364.04
   0  -4  -4 1307.55  379.23
   0   4  -4 1691.31  469.47
   0   4  -4 1901.50  389.71
   0   4   4 1550.35  364.89
   0  -4   4 1818.75  400.64
   0   4   4 1561.87  437.07
   0  -4   4 1339.38  434.01
  -1  -4  -4   14.07   22.83
  -1  -4   4    2.13   18.11
   1   4   4   29.31   32.78
   1   4   4   -5.62   20.01
  -2  -4  -4  394.00   79.97
   2   4   4  283.44   95.25
   2   4   4  439.69   84.65
   4  -2   4  221.06   75.12
  -3  -4  -4  435.78  139.05
   3   4   4  722.65  164.68
   3   4   4  434.63  140.36
  -4   4  -4  341.86  102.63
  -4   5  -4  138.83   35.41
  -4   5  -4   92.55   53.88
   4  -5   4   82.30   40.06
   4  -5   4  134.56   32.50
  -3   5  -4   39.18   42.80
  -3   5  -4   44.16   28.95
  -3   5  -4   68.08   30.40
   3  -5   4   71.86   29.44
  -2   5  -4  355.35  133.38
  -2   5  -4  458.85  110.32
  -2   5  -4  397.18  117.73
  -2   5  -4  526.23  107.09
   2  -5   4  437.97  116.60
   2  -5   4  472.10  124.07
  -1   5  -4  657.70  146.54
  -1   5  -4  793.18  155.62
  -1   5  -4  721.64  183.93
   1  -5   4  721.19  175.68
   1  -5   4  506.64  153.45
   1  -5   4   83.13  169.30
   0   5  -4   15.18   41.23
   0   5  -4    7.81   29.90
   0   5  -4   -2.70   26.43
   0   5  -4    2.81   12.21
   0  -5  -4  -16.79   26.51
   0   5   4   -6.29   23.05
   0  -5   4   -8.57   33.21
   0  -5   4   19.01   21.49
   1   5  -4  838.51  180.49
  -1  -5  -4  825.53  196.21
   1   5  -4  861.79  195.78
   1   5  -4  880.08  231.16
   1   5   4  723.45  183.96
  -4  -5  -4  164.83   49.33
  -5   5  -4  115.04   45.57
   5  -5   4  116.73   32.91
  -5   6  -4   77.81   45.60
  -5   6  -4  137.72   62.65
   5  -6   4  112.11   32.46
  -4   6  -4   29.41   32.22
  -4   6  -4    6.86   20.98
   4  -6   4   21.63   16.36
   3  -6  -4    6.55   33.20
  -2   6  -4 1564.23  367.96
   2  -6  -4 1776.18  362.30
   2  -6   4 1613.30  386.66
  -2   6   4 1708.57  351.71
  -1   6  -4   -9.63   28.02
  -1   6  -4   -9.49   12.51
   1  -6  -4   28.10   33.37
  -1   6   4    1.79   49.34
   1  -6   4    7.92   30.74
  -1   6   4   21.59   29.37
   0   6  -4  266.70   97.17
   0   6  -4  377.51   79.51
   0  -6  -4  296.38   90.97
   0  -6   4  282.65  108.20
   0   6   4  388.45   84.42
   0   6   4  360.96  109.86
   1   6  -4   24.05   18.39
  -1  -6  -4   17.49   41.60
   1   6  -4  -31.22   58.53
   1   6   4  -17.13   35.03
  -1  -6   4   16.88   33.27
   1   6   4   20.62   59.42
  -2  -6  -4 2041.66  372.50
   2   6   4 1970.24  386.76
   2   6   4 1428.69  407.51
  -3  -6  -4   55.69   37.60
   3   6   4   -9.25   46.46
   3   6   4   11.39   61.31
  -4  -6  -4   87.41   43.03
   4   6   4   10.91   71.38
   4   6   4   12.71   52.60
  -6   7  -4  237.85   82.64
  -6   7  -4  314.71  100.53
  -5   7  -4  298.90   80.39
  -5   7  -4  135.25   60.28
  -5   7  -4  122.04   47.53
   5  -7   4  186.83   44.95
  -4   7  -4   69.17   39.25
  -4   7  -4 -131.47   81.94
  -4   7  -4 -108.05   53.59
  -4   7  -4   51.18   23.23
   4  -7   4   38.41   27.61
   4  -7   4 -133.66   62.10
  -3   7  -4   41.64   34.49
  -3   7  -4   26.75   64.43
  -3   7  -4   21.16   20.64
   3  -7  -4   29.40   40.75
   3  -7   4   -1.89   41.47
   3  -7   4   44.69   20.91
  -3   7   4   33.13   40.27
  -3   7   4   51.73   57.91
  -2   7  -4  -16.18   32.80
  -2   7  -4  -62.82   62.88
   2  -7  -4  -21.22   39.50
   2  -7   4   33.88   44.07
  -2   7   4   15.30   35.52
  -1   7  -4   34.67   40.75
  -1   7  -4   34.99   58.43
   1  -7  -4   48.07   39.80
  -1   7  -4   73.56   18.71
  -1   7  -4   27.06   34.32
  -1   7   4   95.70   38.95
   1  -7   4   60.11   39.99
   1  -7   4    6.66   31.98
   1  -7   4   62.60   50.95
  -1   7   4   65.41   20.83
   0   7  -4   10.05   35.55
   0   7  -4  -21.86   43.03
   0   7  -4    9.76   56.97
   0  -7  -4  -20.30   44.42
   0   7  -4   13.37   16.16
   0   7   4  -36.00   36.08
   0   7   4   45.50   66.01
   0  -7   4   17.60   30.63
   0  -7   4    1.91   49.63
   1   7  -4   69.09   23.11
   1   7  -4   36.26   51.83
   1   7  -4   17.19   68.18
  -1  -7  -4   67.46   36.73
  -1  -7  -4   57.63   55.89
   1   7   4   44.78   43.06
   1   7   4   32.59   66.07
  -1  -7   4   40.25   38.25
  -2  -7  -4    2.76   34.55
   2   7  -4  -11.60   52.77
   2   7  -4   11.49   70.87
  -2  -7   4  -36.99   39.70
   2   7   4  -25.84   49.47
   2   7   4    4.42   65.59
  -3  -7  -4   52.06   43.13
   3   7   4   -5.06   74.83
   3   7   4  140.19   53.13
  -4  -7  -4   75.26   53.84
   4   7   4  149.33   93.81
   4   7   4  232.63   67.73
   5   7   4  102.55   68.36
  -6   8  -4   95.02   85.02
  -6   8  -4  112.89   58.14
  -5   8  -4  187.61   62.09
  -5   8  -4  293.03   91.44
  -5   8  -4  182.53   62.17
  -5   8  -4  136.35   52.21
   5  -8   4  253.52   67.87
   5  -8   4  128.56   47.71
  -4   8  -4  152.28   40.80
  -4   8  -4  102.31   50.14
  -4   8  -4  164.66   50.62
   4  -8  -4  120.12   55.81
  -4   8  -4  175.34   83.49
   4  -8   4   90.39   37.37
  -4   8   4  133.03   79.99
   4  -8   4   93.06   54.41
  -3   8  -4  -46.56   73.80
  -3   8  -4   47.63   35.99
  -3   8  -4   21.06   39.37
   3  -8  -4   19.06   47.49
  -3   8  -4   -3.05   20.97
   3  -8   4    6.44   36.30
  -3   8   4    2.43   69.34
   3  -8   4   55.57   46.64
  -3   8   4   -2.38   44.17
   3  -8   4   -1.56   20.42
  -2   8  -4  264.58  103.00
  -2   8  -4  177.16   35.20
   2  -8  -4   58.21   53.91
  -2   8  -4  -13.30   57.04
  -2   8   4   12.60   51.86
   2  -8   4 -163.09   81.37
   1  -8  -4   22.12   51.91
  -1   8   4  -73.32   47.11
   1  -8   4 -106.19   76.16
   1  -8   4  -96.88   45.35
  -1   8   4   -2.62   13.64
   0   8  -4  -68.36   92.06
   0  -8  -4  248.09   62.53
   0   8  -4  269.38   62.70
   0   8  -4  -38.94   59.72
   0   8   4  119.93   51.49
   0   8   4  -10.02   95.29
   0  -8   4   37.61   79.83
   0  -8   4   77.84   45.77
  -1  -8  -4    9.18   60.99
   1   8  -4  -35.17   63.99
  -1  -8  -4   12.05   41.72
  -1  -8   4  -58.11   45.46
   1   8   4  -44.70   56.12
   1   8   4 -109.76   96.88
  -2  -8  -4  111.25   51.27
   2   8  -4   71.74   79.50
   2   8  -4   96.35  105.00
   2   8   4  137.05   85.04
   2   8   4  193.62   68.82
  -2  -8   4  183.23   70.18
  -3  -8  -4    3.64   46.47
   3   8   4    9.10   61.54
   3   8   4   16.82   81.13
  -4  -8  -4  102.33   55.71
   4   8   4   98.57   74.61
   4   8   4  143.39  100.07
  -5  -8  -4  214.20   66.42
   5   8   4   76.46   78.25
  -6   9  -4  570.66  196.75
  -6   9  -4  959.47  218.91
  -5   9  -4   53.27   36.32
  -5   9  -4  136.27   53.99
  -5   9  -4   62.17   51.61
  -5   9  -4   44.51   93.29
   5  -9   4   72.18   61.33
   5  -9   4   43.90   31.27
   4  -9  -4  935.99  214.39
  -4   9  -4 1123.06  251.79
  -4   9  -4  860.26  207.07
  -4   9  -4  980.12  199.68
  -4   9  -4  620.32  217.34
  -4   9   4  795.83  240.51
   4  -9   4 1036.31  212.53
  -4   9   4  626.33  200.48
   4  -9   4  770.43  205.81
   3  -9  -4   56.61   58.97
  -3   9  -4  177.47   53.03
  -3   9  -4  138.07   93.38
  -3   9  -4   99.47   48.25
  -3   9  -4  110.20   37.83
   3  -9   4  103.32   37.29
   3  -9   4  216.47   63.82
   3  -9   4  126.92   52.69
  -3   9   4   68.11   54.40
  -3   9   4  176.47   91.29
  -2   9  -4  215.48   61.03
  -2   9  -4  314.34   93.63
  -2   9  -4   80.23   57.22
  -2   9  -4  202.24   46.53
   2  -9  -4  174.76   67.52
   2  -9   4  173.59   62.02
   2  -9   4  176.96   48.89
  -2   9   4  183.74   62.14
   2  -9   4  138.02   64.74
   2  -9   4  187.54   74.63
  -1   9  -4   36.92   50.21
   1  -9  -4   -2.87   58.25
  -1   9  -4  -72.86   76.38
  -1   9  -4   -3.38   17.91
   1  -9   4   30.50   40.65
  -1   9   4   -4.65   47.77
   1  -9   4  -34.56   67.19
   0   9  -4  -48.61   57.94
   0  -9  -4  -40.49   64.84
   0   9  -4  -44.63   76.44
   0   9   4   -9.72   51.97
   0  -9   4   -3.28   42.54
   0   9   4  -17.17   91.82
   1   9  -4  -67.60   86.62
  -1  -9  -4   10.66   74.83
   1   9  -4  -19.78   65.78
  -1  -9  -4  -31.51   48.56
   1   9   4   10.84   54.91
   1   9   4   16.87   88.03
  -1  -9   4   15.19   45.75
   2   9  -4  154.83   84.76
  -2  -9  -4  218.20   64.49
   2   9  -4  120.97  103.45
  -2  -9  -4  208.86   98.82
   2   9   4  226.30   77.08
   2   9   4  117.72   99.36
  -2  -9   4  155.26   70.26
   3   9  -4  141.99   80.37
  -3  -9  -4   81.38   59.52
  -3  -9   4   39.40   58.07
   3   9   4  133.49   95.53
   3   9   4   51.41   76.54
  -4  -9  -4  977.94  219.13
   4   9   4  988.53  257.38
   4   9   4  809.18  234.94
  -5  -9  -4   73.51   63.55
   5   9   4   43.30  107.40
   5   9   4  148.60   84.85
  -7  10  -4  137.57  117.84
  -7  10  -4  181.00   79.83
  -6  10  -4   45.57   59.20
  -6  10  -4 -190.09  109.99
   6 -10   4  -32.87   64.56
  -5  10  -4  245.15  116.06
  -5  10  -4  703.58  158.29
  -5  10  -4  481.05  112.57
   5 -10   4  480.02  120.98
   5 -10   4  386.49  102.63
   4 -10  -4   33.01   64.15
  -4  10  -4   99.84  108.65
  -4  10  -4   24.91   48.12
  -4  10  -4   91.01   54.11
  -4  10  -4   22.80   35.57
   4 -10   4   97.49   51.98
   4 -10   4  118.18   35.13
   4 -10   4  124.10   63.41
  -4  10   4   73.65   59.75
  -4  10   4   60.00   96.38
  -3  10  -4   51.11   33.18
  -3  10  -4   81.63  100.31
  -3  10  -4  114.93   53.19
   3 -10  -4  121.64   66.27
  -3  10  -4   82.09   45.25
   3 -10   4   88.50   32.48
   3 -10   4  109.26   67.10
  -3  10   4   94.33   58.65
   3 -10   4   45.96   50.53
  -3  10   4   54.68  102.44
   2 -10  -4  126.49   66.11
  -2  10  -4  -25.11  105.84
  -2  10  -4  102.20   30.89
  -2  10  -4   67.96   58.85
  -2  10  -4   68.36   47.55
  -2  10   4  112.36   56.40
   2 -10   4   50.56   55.92
   2 -10   4  125.29   34.53
   2 -10   4   49.34   53.22
   2 -10   4  104.82   77.15
  -2  10   4  100.41  104.96
  -1  10  -4   13.14   47.55
  -1  10  -4   34.73   19.98
  -1  10  -4   95.65   88.78
  -1  10  -4  -39.40   59.33
   1 -10  -4   23.15   64.85
   1 -10   4   61.84   64.48
   1 -10   4   10.54   50.84
   1 -10   4  -28.83   80.33
   1 -10   4   46.37   25.48
  -1  10   4   21.15   57.46
   0  10  -4  627.21  198.00
   0 -10  -4 1122.40  206.59
   0  10  -4  804.30  215.49
   0 -10   4  767.42  220.79
   0  10   4  623.37  184.41
   0 -10   4  656.29  188.53
   1  10  -4    3.22   93.90
  -1 -10  -4   48.13   54.28
   1  10  -4   -3.71   77.97
  -1 -10  -4  114.06   85.24
   1  10  -4   26.95   25.13
   1  10   4   -3.07   66.43
   1  10   4  -12.63  102.39
  -1 -10   4   50.61   55.89
  -2 -10  -4  260.87   66.62
   2  10  -4   18.13  108.57
  -2 -10  -4  205.51  102.45
   2  10  -4   77.60   90.03
   2  10   4  176.85   79.67
  -2 -10   4  119.67   64.03
   3  10  -4  127.17   89.72
  -3 -10  -4  150.20   68.09
   3  10   4   37.76  101.89
   3  10   4   76.39   87.57
  -3 -10   4  100.65   67.00
  -4 -10  -4   45.04   65.17
   4  10   4   65.65   90.43
   4  10   4   99.93  114.42
  -5 -10  -4  341.01  112.81
   5  10   4  551.90  155.85
   5  10   4  164.27  126.17
  -7  11  -4   78.26  131.52
  -7  11  -4  133.00   78.41
  -6  11  -4   52.04   68.30
  -6  11  -4  100.11  125.45
  -6  11  -4   29.29   60.09
   6 -11   4    4.05   75.21
  -5  11  -4   74.99  121.58
   5 -11  -4   21.76   71.45
  -5  11  -4   -9.32   63.63
  -5  11   4   75.38  113.54
   5 -11   4  -17.64   30.68
   5 -11   4   39.77   74.85
   4 -11  -4  282.11  101.14
  -4  11  -4  254.79   84.17
  -4  11  -4  191.18  142.82
   4 -11   4  288.20   69.14
  -4  11   4  369.58  133.65
   4 -11   4  228.85   92.43
   4 -11   4  186.36   89.64
  -4  11   4  195.43   88.27
  -3  11  -4  147.12  113.85
  -3  11  -4   44.00   59.28
   3 -11  -4   51.39   74.39
   3 -11   4  120.75   77.18
  -3  11   4  -21.79  121.70
  -3  11   4   23.99   62.79
  -2  11  -4   48.56   68.99
  -2  11  -4  187.22  110.64
   2 -11  -4  143.74   79.19
  -2  11   4  198.49  123.28
  -2  11   4  137.84   68.05
   2 -11   4  141.26   85.20
   2 -11   4  104.80   68.33
  -1  11  -4  437.83  188.57
   1 -11  -4  836.30  170.24
  -1  11  -4  456.76  159.99
   1 -11   4  650.95  157.53
   1 -11   4  638.33  181.38
  -1  11   4  635.50  153.57
   0  11  -4   21.85   74.49
   0  11  -4   59.15   98.70
   0 -11  -4   12.36   84.86
   0 -11   4  -51.23   58.12
   0  11   4    9.48   68.49
   0 -11   4  -50.89  106.47
  -1 -11  -4  681.54  163.74
  -1 -11  -4  478.95  192.21
   1  11  -4  600.19  178.57
   1  11  -4  549.79  197.26
   1  11   4  684.04  168.19
  -1 -11   4  533.57  162.19
   1  11   4  677.78  199.18
  -2 -11  -4   89.84   67.94
  -2 -11  -4  266.61  118.38
   2  11  -4  117.24  100.99
   2  11  -4  -35.22  117.97
   2  11   4   42.68   87.20
   2  11   4  201.51  117.31
  -2 -11   4  161.79   72.35
   3  11  -4   63.30  102.40
   3  11  -4   82.17  118.57
  -3 -11  -4  -10.19   70.12
   3  11   4   12.68   94.72
  -3 -11   4   97.19   68.86
   3  11   4   26.55  112.00
  -4 -11  -4  297.27   99.24
   4  11   4  629.23  125.30
   4  11   4 -213.34  163.68
  -5 -11  -4    6.15   77.87
   5  11   4   -4.75  101.49
   5  11   4    4.53  126.01
   6  11   4 -285.38  111.85
  -7  12  -4  338.70  176.22
  -6  12  -4   -3.70   70.79
  -6  12  -4 -124.47  145.79
   6 -12   4  -39.90   85.88
  -5  12  -4  -52.45   67.02
   5 -12  -4  100.38   85.73
  -5  12  -4   63.49  138.24
   5 -12   4   39.92   82.32
  -4  12  -4   43.30   66.06
   4 -12  -4   26.73   86.54
  -4  12  -4   80.29  132.54
  -4  12   4  -82.00  137.18
   4 -12   4   18.54   82.39
  -4  12   4   68.13   69.10
  -3  12  -4   36.22  122.83
   3 -12  -4   65.74   84.25
  -3  12  -4   -9.24   64.23
  -3  12   4    6.66   68.04
  -3  12   4  -44.75  130.19
   3 -12   4   38.30   73.59
   3 -12   4   49.17   87.97
   2 -12  -4  289.27  102.75
  -2  12  -4  222.23   89.26
  -2  12  -4  340.93  131.15
   2 -12   4  188.76   87.33
   2 -12   4  187.71  105.68
  -2  12   4  160.85   85.58
  -2  12   4  169.25  151.22
  -1  12  -4   28.41   76.06
   1 -12  -4   51.56   91.15
  -1  12  -4    3.37  112.74
   1 -12   4   -4.57  105.87
   1 -12   4  -36.86   67.75
  -1  12   4  -37.26   74.27
   0  12  -4  890.29  214.64
   0  12  -4  535.40  194.48
   0 -12  -4  557.71  206.79
   0 -12   4  757.62  183.82
   0 -12   4  675.03  221.51
   0  12   4  724.99  183.40
  -1 -12  -4   -5.19   71.55
   1  12  -4   27.18   98.34
  -1 -12  -4  -77.94  115.98
   1  12  -4  196.87  125.46
  -1 -12   4  -67.48   72.14
   1  12   4   27.29   89.05
   2  12  -4  234.75  124.89
  -2 -12  -4  390.88  145.52
   2  12  -4  312.30  143.57
  -2 -12  -4  255.49   96.07
   2  12   4  239.71  149.32
  -2 -12   4  165.24   96.01
   2  12   4  377.86  120.80
   3  12  -4   74.14  108.33
  -3 -12  -4   12.39  138.99
  -3 -12  -4   45.58   77.42
   3  12  -4  -32.19  126.00
   3  12   4   -4.18  132.99
  -3 -12   4   -6.19   83.97
   3  12   4 -102.91  105.30
  -4 -12  -4  -18.20   88.21
   4  12   4 -164.07  141.10
   4  12   4 -305.42  114.61
  -5 -12  -4   -6.68   69.32
   5  12   4 -232.00  120.27
  -5  13  -4  -96.97  152.18
  -5  13  -4  -89.09   76.45
  -5  13   4   96.34  154.25
  -5  13   4   -4.15   62.39
   5 -13   4    4.39   95.45
  -4  13  -4    4.23  145.91
  -4  13  -4  -37.53   72.64
   4 -13   4  -41.34   89.81
  -3  13  -4 -253.91  140.13
  -3  13  -4  158.19   77.57
   3 -13   4  193.77   81.60
   3 -13   4   25.47   96.04
  -2  13  -4  -10.83   79.58
  -2  13  -4  146.84  136.06
   2 -13   4   41.25  104.15
   2 -13   4  -47.12   78.21
   1 -13  -4  204.31  108.46
  -1  13  -4  111.16   88.39
  -1  13  -4   33.62  127.38
   1 -13   4  -73.13   81.63
  -1  13   4   -3.81   85.10
   1 -13   4   86.34  114.55
   0  13  -4 -116.14   98.37
   0  13  -4   35.06  125.67
   0 -13  -4 -226.92  124.76
   0 -13   4 -179.47   77.03
   0  13   4  -76.38   93.77
   0 -13   4   62.71  134.49
  -1 -13  -4   -5.79  139.45
   1  13  -4  143.78  135.85
   1  13  -4  199.75  108.74
  -1 -13   4  115.15   76.99
   1  13   4   -4.35  100.46
  -1 -13   4   56.60  143.18
   2  13  -4  766.45  143.62
   2  13  -4   71.08  123.86
  -2 -13   4   -6.24   78.20
  -5 -13  -4    7.29   88.08
   5  13   4  -78.88  159.82
  -6 -13  -4    7.66  105.85
   6  13   4    5.97  143.16
  -8  14  -4    5.39  185.47
  -7  14  -4  -31.21  187.79
  -6  14  -4  -15.14  175.58
   5 -14  -4   28.85  110.44
  -5  14   4 -164.59  178.88
  -5  14   4   31.45   85.86
   4 -14  -4    5.50  139.11
  -4  14   4 1023.73  205.81
  -4  14   4  316.59  118.30
   3 -14  -4  103.44  111.63
  -3  14   4  -28.67   88.65
  -3  14   4    4.98  168.30
   2 -14  -4  -10.41  108.93
  -2  14   4  -36.96   88.19
  -2  14   4    4.96  165.02
   1 -14  -4 -115.20  120.30
   1 -14  -4  -68.14  100.59
  -1  14   4    4.84  163.95
  -1  14   4   12.82   95.54
   0 -14  -4   59.38  132.67
   0  14   4   -4.50   97.03
   1  14  -4   -4.63  149.61
  -1 -14  -4  -12.96  145.13
   1  14   4 -189.23  108.75
  -1 -14   4 -166.26   88.64
   2  14  -4  434.93  133.26
   2  14  -4 -232.14  152.40
  -2 -14  -4   95.29  102.32
  -2 -14  -4  -49.21  156.79
   2  14   4    4.71  144.96
   2  14   4    5.25  120.15
  -2 -14   4   20.58   88.29
  -3 -14  -4  -50.23   97.25
  -3 -14  -4    7.56  167.70
   3  14  -4   64.10  144.56
   3  14  -4 -425.79  157.88
   3  14   4 -347.12  133.18
  -3 -14   4 -109.05   95.62
   3  14   4 -350.35  170.80
  -4 -14  -4  126.90  194.76
  -4 -14  -4   -7.41  117.87
   4  14   4  323.46  149.48
   4  14   4  406.76  189.91
  -5 -14  -4   71.84  105.11
   5  14   4    6.30  144.54
   5  14   4   56.91  174.49
  -6 -14  -4   91.29  108.36
   6  14   4    6.55  140.18
  -8  15  -4 -446.02  235.44
  -7  15  -4    5.72  195.90
   7 -15   4  -12.23  120.35
  -6  15  -4  108.47   94.35
  -6  15  -4   -5.57  196.93
  -6  15   4  154.56  193.08
   6 -15   4   34.44  120.59
   5 -15  -4  -25.51  123.38
  -5  15  -4   -8.46   87.38
  -5  15  -4   21.43  184.91
  -5  15   4 -140.46  184.59
  -5  15   4  -48.90   93.22
   5 -15   4  -15.95  114.58
   4 -15  -4    6.12  123.36
  -4  15  -4  -12.43   91.38
  -4  15  -4 -142.98  181.72
   4 -15   4   -7.13  103.80
  -4  15   4   23.55   96.80
   4 -15   4   10.21  109.71
  -4  15   4   -5.54  189.17
  -3  15  -4    4.27   96.52
  -3  15  -4  -82.92  171.34
   3 -15  -4   23.22  117.42
   3 -15   4    6.88  106.86
   3 -15   4  -26.33  111.40
  -3  15   4  176.02  198.51
  -3  15   4   18.17   94.90
   2 -15  -4 -111.43  123.24
  -2  15  -4  -49.54   98.18
  -2  15  -4  -37.17  160.39
  -2  15   4 -124.64  201.54
  -2  15   4    4.58   99.88
   2 -15   4 -276.36  105.92
   2 -15   4  -28.48  133.15
  -1  15  -4   -4.90  111.64
  -1  15  -4   77.56  155.51
   1 -15  -4   55.49  139.31
   1 -15  -4    7.60  111.37
  -1  15   4   -4.79  105.56
   1 -15   4   18.72  139.87
  -1  15   4 -190.12  192.49
   1 -15   4  113.57   97.88
   0  15  -4 -246.65  160.23
   0 -15  -4  -39.84  150.10
   0  15  -4  -10.82  125.09
   0 -15   4   96.86  163.43
   0 -15   4  145.82  105.89
   0  15   4  150.98  179.68
   0  15   4  292.64  114.17
   1  15  -4   24.14  134.46
  -1 -15  -4  286.73  170.96
   1  15  -4   20.33  164.37
  -1 -15   4    7.17   95.67
   1  15   4  102.38  121.99
  -1 -15   4   -7.59  178.64
  -2 -15  -4  -23.04  116.08
  -2 -15  -4  233.04  177.93
   2  15  -4 -219.72  154.31
   2  15  -4   91.08  136.99
   2  15   4   -5.77  128.12
  -2 -15   4  -22.66  100.69
  -2 -15   4  -24.32  195.70
  -3 -15  -4  199.53  109.88
   3  15  -4  -55.69  157.88
  -3 -15  -4 -132.33  191.65
   3  15  -4 -327.82  170.18
  -3 -15   4    7.92   97.28
   3  15   4    5.63  177.13
   3  15   4    6.18  138.20
  -4 -15  -4   41.70  116.62
  -4 -15  -4  479.36  202.68
   4  15   4   32.90  143.99
   4  15   4 -142.00  183.65
  -5 -15  -4  -61.36  110.73
  -5 -15  -4  125.74  213.51
   5  15   4  136.83  156.87
   5  15   4  382.69  194.39
  -6 -15  -4   90.32  124.50
   6  15   4  156.39  161.98
  -8  16  -4  398.55  252.65
  -7  16  -4  -87.91  217.97
   7 -16   4   52.89  124.88
  -6  16  -4  -29.23   95.33
  -6  16  -4 -625.09  222.09
   6 -16   4  -37.54  129.72
  -6  16   4    6.31  230.88
   5 -16  -4   -7.06  145.61
  -5  16  -4 -138.44  107.62
   5 -16   4  133.96  136.78
  -5  16   4 -139.05  111.06
   5 -16   4   11.69  127.68
  -5  16   4    6.18  214.78
   4 -16  -4   20.50  137.03
  -4  16  -4 -351.13  197.07
  -4  16  -4  -22.82   99.33
  -4  16   4 -231.90  207.58
   4 -16   4   -5.66  124.92
   4 -16   4    8.04  126.14
  -4  16   4   10.41  106.31
  -3  16  -4   85.02  103.79
  -3  16  -4  -26.71  184.42
   3 -16  -4  -26.09  129.30
   3 -16   4    7.76  124.28
  -3  16   4 -649.41  220.02
   3 -16   4   -5.86  132.23
  -3  16   4    5.05  105.39
  -2  16  -4   -5.01  111.92
   2 -16  -4   33.00  137.97
   2 -16  -4   34.91  138.30
  -2  16  -4 -184.03  176.84
  -2  16   4 -159.00  200.88
   2 -16   4    7.60  113.82
   2 -16   4  -18.98  151.26
  -2  16   4   30.64  108.10
  -1  16  -4  -61.51  165.08
   1 -16  -4  103.50  145.20
  -1  16  -4  -65.12  123.12
   1 -16  -4    8.52  128.77
   1 -16   4   -7.65  108.27
  -1  16   4    5.39  119.21
  -1  16   4 -374.79  190.85
   1 -16   4  -34.53  165.02
   0  16  -4 -154.76  133.13
   0 -16  -4   -7.42  166.84
   0  16  -4 -214.21  173.54
   0 -16  -4 -479.08  120.20
   0  16   4  142.19  194.83
   0 -16   4  304.02  118.07
   0 -16   4    7.55  177.17
   0  16   4   61.86  124.62
   1  16  -4  168.17  178.42
   1  16  -4   13.09  146.16
  -1 -16  -4  175.32  178.22
  -1 -16   4   -8.27  191.32
  -1 -16   4   79.65  107.43
   1  16   4    5.97  133.80
   2  16  -4   21.27  158.68
  -2 -16  -4  323.16  195.32
   2  16  -4   52.40  176.13
  -2 -16   4   44.38  202.16
   2  16   4   -6.35  141.13
  -2 -16   4  100.90  121.10
  -3 -16  -4   26.68  128.49
   3  16  -4 -128.12  183.41
   3  16  -4  -37.70  168.18
  -3 -16  -4  326.94  205.22
  -3 -16   4  157.42  211.97
  -3 -16   4   51.91  117.78
   3  16   4  526.09  153.71
   3  16   4    6.19  204.63
  -4 -16  -4  -28.50  216.90
  -4 -16  -4   18.56  117.53
   4  16   4 -357.44  204.57
   4  16   4  279.52  156.20
  -5 -16  -4   77.29  130.54
  -5 -16  -4  166.96  224.02
   5  16   4   33.55  208.80
   5  16   4    7.45  161.22
  -6 -16  -4   79.01  126.33
   6  16   4   38.50  166.23
  -7  17  -4 -234.30  242.74
   7 -17   4   -7.15  133.03
  -6  17  -4  -63.25  101.28
  -6  17  -4    6.64  224.47
  -6  17   4 -622.46  245.70
   6 -17   4    6.82  148.28
   6 -17   4  135.09  164.57
   5 -17  -4  -31.38  156.68
  -5  17  -4  551.25  223.67
  -5  17  -4   40.36  103.29
  -5  17   4  292.45  242.70
  -5  17   4    5.88  115.47
   5 -17   4 -157.73  149.29
   5 -17   4   58.07  146.00
  -4  17  -4   40.27  108.69
   4 -17  -4   38.23  160.69
  -4  17  -4    6.09  209.66
  -4  17   4  -53.81  235.15
  -4  17   4  224.93  120.92
   4 -17   4   37.66  134.29
   4 -17   4  -26.96  135.86
   3 -17  -4   -7.35  151.72
   3 -17  -4 -198.96  153.98
  -3  17  -4 -280.06  119.68
  -3  17  -4  187.24  195.07
   3 -17   4   -6.50  139.36
  -3  17   4  118.68  218.47
  -3  17   4   44.95  113.62
   3 -17   4    8.78  130.44
  -2  17  -4  -16.81  126.65
  -2  17  -4    5.57  186.71
   2 -17  -4    7.42  159.23
   2 -17  -4    9.72  153.55
   2 -17   4  -20.95  158.02
  -2  17   4 -524.95  227.42
  -2  17   4 -253.94  127.68
   2 -17   4   43.00  125.31
  -1  17  -4   36.00  138.32
   1 -17  -4  -23.20  171.43
   1 -17  -4 -602.23  152.84
  -1  17  -4 -540.14  202.67
   1 -17   4    7.59  177.88
  -1  17   4 -693.90  218.86
   1 -17   4  190.22  132.10
  -1  17   4    5.99  134.82
   0  17  -4 -123.77  152.80
   0  17  -4 -453.82  203.04
   0 -17  -4 -190.30  184.28
   0 -17  -4  123.37  155.74
   0  17   4 -761.53  227.24
   0  17   4 -504.67  150.39
   0 -17   4  -17.57  140.29
   0 -17   4  -16.59  199.05
   1  17  -4   78.27  159.54
  -1 -17  -4  562.45  201.05
   1  17   4 -363.45  149.32
  -1 -17   4   -8.99  214.37
  -1 -17   4  123.97  134.11
  -2 -17  -4  403.24  216.63
   2  17  -4   54.24  170.66
   2  17  -4 -190.11  201.10
  -2 -17   4  -19.27  234.24
  -2 -17   4   37.21  124.99
   3  17  -4  277.74  202.67
  -3 -17  -4  -50.13  137.93
   3  17  -4  327.80  184.62
  -3 -17  -4   49.40  216.98
  -3 -17   4   50.46  255.29
  -3 -17   4   -9.47  120.21
   3  17   4 -224.40  210.50
   3  17   4 -286.84  165.83
  -4 -17  -4  -20.66  233.40
  -4 -17  -4  -31.05  146.88
   4  17   4   21.27  229.34
   4  17   4    7.75  170.16
  -5 -17  -4  128.33  239.87
  -5 -17  -4   10.67  142.78
   5  17   4   14.62  224.62
   5  17   4    8.10  170.38
  -6 -17  -4   10.85  143.62
  -6 -17  -4  627.49  258.58
   6  17   4 -167.36  177.94
  -7  18  -4  462.80  265.91
   7 -18   4  -15.47  154.76
  -6  18  -4  -85.86  124.43
  -6  18  -4 -431.26  271.48
   6 -18   4   44.77  163.56
   6 -18   4 -392.18  169.82
  -5  18  -4  -71.86  118.87
   5 -18  -4   -8.74  191.83
  -5  18  -4 -482.56  262.78
  -5  18   4 -447.59  145.15
  -5  18   4 -277.11  268.91
   5 -18   4  -42.74  160.90
   5 -18   4 -165.94  182.84
  -4  18  -4  378.67  225.00
  -4  18  -4  -45.24  124.21
   4 -18  -4   -8.56  170.13
   4 -18   4  -27.82  158.00
  -4  18   4   19.26  128.54
   4 -18   4  130.93  161.99
  -4  18   4 -183.22  251.91
   3 -18  -4  -65.91  180.51
  -3  18  -4 -387.08  220.40
  -3  18  -4  104.89  128.31
   3 -18  -4  -16.55  166.49
  -3  18   4  164.46  249.73
   3 -18   4   19.73  146.97
  -3  18   4 -137.58  127.14
   3 -18   4  -28.86  159.27
   2 -18  -4   10.86  166.34
  -2  18  -4    6.23  201.87
   2 -18  -4    8.33  181.88
  -2  18  -4 -105.49  133.96
   2 -18   4   58.81  143.81
  -2  18   4  160.62  247.30
  -2  18   4    6.44  137.23
   2 -18   4   23.09  176.92
  -1  18  -4   26.58  141.05
   1 -18  -4  -42.81  157.27
  -1  18  -4 -251.53  205.93
   1 -18  -4  -25.98  184.27
   1 -18   4    8.36  196.73
   1 -18   4  -19.70  146.92
  -1  18   4   40.38  148.16
  -1  18   4  151.18  228.79
   0  18  -4  -78.98  156.84
   0 -18  -4  -45.76  200.20
   0  18  -4 -290.59  217.13
   0 -18  -4   21.50  158.26
   0 -18   4   36.13  211.60
   0  18   4 -210.80  160.01
   0 -18   4   -9.83  134.65
   0  18   4 -342.53  232.89
  -1 -18  -4 -281.94  220.55
   1  18  -4  217.31  178.24
   1  18  -4    6.76  216.43
  -1 -18  -4   21.64  149.45
  -1 -18   4   97.92  237.28
   1  18   4    6.86  228.45
  -1 -18   4 -171.01  139.50
   1  18   4   73.39  162.59
   2  18  -4  -83.56  183.23
  -2 -18  -4 -379.17  230.78
   2  18  -4   69.09  203.48
  -2 -18   4  -10.44  242.13
   2  18   4   23.07  172.49
  -2 -18   4 -103.16  136.91
   3  18  -4  168.98  191.07
  -3 -18  -4  150.32  248.44
  -3 -18  -4  -11.18  146.44
   3  18   4  209.16  178.29
  -3 -18   4   10.42  136.35
  -3 -18   4   10.95  263.92
  -4 -18  -4  196.18  160.01
  -4 -18  -4 -325.24  255.65
   4  18   4 -235.44  180.41
   4  18   4 -201.51  241.74
  -5 -18  -4 -303.49  286.79
  -5 -18  -4 -353.86  171.02
   5  18   4    7.98  253.76
  -6 -18  -4  -11.96  170.24
   7 -19   4  276.64  201.01
  -6  19  -4   87.33  125.66
  -6  19  -4    7.77  273.08
  -6  19   4   83.58  298.24
   6 -19   4  117.77  178.56
   6 -19   4    8.17  169.06
   5 -19  -4   87.87  188.04
  -5  19  -4  112.76  266.67
  -5  19  -4  -62.41  125.83
  -5  19   4   89.77  286.96
   5 -19   4  -55.04  168.33
  -5  19   4 -345.03  145.43
   5 -19   4   11.55  179.56
   4 -19  -4   57.70  195.33
  -4  19  -4  272.51  250.07
  -4  19  -4   18.69  126.87
   4 -19  -4   12.49  193.54
   4 -19   4   56.74  172.87
   4 -19   4   38.95  175.85
  -4  19   4  -42.98  145.62
  -4  19   4  -55.68  273.52
   3 -19  -4   28.33  198.43
  -3  19  -4 -441.06  241.92
  -3  19  -4  -57.86  144.99
   3 -19  -4   61.56  187.14
  -3  19   4 -341.53  153.74
  -3  19   4  178.70  272.12
   3 -19   4   11.12  168.66
   3 -19   4   32.02  182.37
   2 -19  -4 -352.00  204.41
  -2  19  -4 -103.63  162.18
   2 -19  -4    9.37  198.82
  -2  19  -4 -372.07  244.72
   2 -19   4  -55.49  165.42
   2 -19   4   42.32  207.72
  -2  19   4 -775.06  162.32
   1 -19  -4  -96.96  246.78
   1 -19  -4 -845.09  199.05
  -1  19  -4 -307.75  190.30
   1 -19   4  -73.44  245.80
   1 -19   4 -515.27  188.21
   0 -19  -4  -12.01  193.05
   0 -19  -4  -60.92  254.79
   0  19  -4  -86.64  193.73
   0  19  -4 -845.19  266.44
   0 -19   4 -577.80  179.19
   0 -19   4  -29.59  256.67
  -1 -19  -4  -53.68  262.48
  -1 -19  -4   12.33  203.33
   1  19  -4  -16.86  200.16
  -1 -19   4 -553.59  173.59
  -1 -19   4  -74.25  261.29
   2  19  -4 -431.42  238.97
  -2 -19  -4  -33.69  263.98
   2  19  -4   27.10  201.43
  -2 -19   4   11.47  151.39
   2  19   4   25.38  196.30
  -2 -19   4  -56.41  263.41
   3  19  -4 -670.76  208.48
  -3 -19  -4 -223.60  279.15
  -3 -19   4   11.91  279.59
  -3 -19   4  103.51  152.62
   3  19   4 -290.82  207.35
  -4 -19  -4 -220.94  171.41
  -4 -19  -4  476.99  305.36
   4  19   4  109.68  205.55
   4  19   4    8.47  257.91
  -5 -19  -4 1152.40  314.05
  -5 -19  -4   78.54  171.80
   5  19   4    9.54  210.98
   5  19   4   34.97  261.08
  -6  20  -4  -47.81  137.30
   6 -20   4   52.34  209.25
   6 -20   4   -8.97  197.28
  -5  20  -4  155.02  289.37
  -5  20  -4   89.44  149.49
   5 -20   4 -475.45  196.88
   5 -20   4   44.36  187.90
  -4  20  -4    7.83  268.18
  -4  20  -4   27.44  141.31
   4 -20   4   -8.66  186.29
   4 -20   4 -102.40  192.09
  -3  20  -4   43.20  158.18
  -3  20  -4   92.59  266.06
   3 -20  -4   10.63  215.27
  -3  20   4   -7.95  165.48
   3 -20   4  -35.47  207.58
   3 -20   4 -126.58  194.65
  -2  20  -4   23.71  255.52
   2 -20  -4   10.54  237.35
  -2  20  -4   30.40  166.66
   2 -20   4   75.90  186.70
  -2  20   4  212.58  172.97
   2 -20   4  -46.79  215.26
   1 -20  -4  -43.42  238.43
  -1  20  -4 -742.51  186.76
  -1  20  -4   32.08  264.27
  -1  20   4 -224.39  184.66
  -1  20   4 -738.12  251.97
   1 -20   4  125.39  191.87
   1 -20   4   20.12  229.11
   0 -20  -4   45.02  246.90
   0 -20  -4   13.72  155.29
   0  20  -4  -64.99  266.20
   0  20  -4 -103.80  190.88
   0 -20   4  360.69  186.84
   0  20   4    8.22  243.78
   0  20   4   52.18  193.03
   0 -20   4   75.60  247.08
  -1 -20  -4  -82.64  283.96
   1  20  -4  508.95  264.24
   1  20  -4   18.48  206.59
   1  20   4  208.27  204.65
  -1 -20   4  -11.49  271.62
  -1 -20   4  191.62  182.03
  -2 -20  -4   61.71  289.83
   2  20  -4  176.54  215.82
   2  20  -4 -524.13  260.46
  -2 -20   4   24.30  286.71
  -2 -20   4  -25.56  175.62
   2  20   4 -345.65  213.03
   3  20  -4 -187.57  224.82
  -3 -20   4   51.50  299.43
   0   0  -5    0.90   10.85
   0   0  -5   -1.78    7.18
   0   0   5   -1.01   14.65
   0  -1  -5  223.35   57.85
  -1   0  -5  236.90   54.87
  -1   0  -5  280.42   61.43
   0   1  -5  223.35   62.27
   0   1   5  190.39   64.61
   1   0   5  227.43   61.75
   0  -1   5  254.87   66.39
  -1  -1  -5   -0.87    4.84
  -1  -1  -5    4.30    6.80
  -1   1  -5    0.78   11.43
  -1  -1  -5    1.22    9.99
   1   1   5   -1.49    7.40
   1   1   5    3.77   13.12
   1  -1   5  -11.03   11.62
   1   1   5    1.98    9.21
  -1   2  -5  324.94   70.92
  -1   2  -5  302.51   67.50
  -2  -1  -5  270.43   75.98
  -1   2  -5  346.01   75.55
  -2  -1  -5  393.24   77.14
  -1   2  -5  203.49   93.41
   2   1   5  256.89   73.57
   1  -2   5  256.11   76.80
   2   1   5  292.51   67.65
   2   1   5  318.27   89.50
   0   2  -5    0.98    8.69
   0   2  -5    1.13   15.60
  -2   0  -5   -2.74   11.12
   0  -2  -5  -10.94    9.44
  -2   0  -5   -1.76    5.70
   0   2   5   -9.52   11.38
   0   2   5    2.09   16.01
   2   0   5   -4.50    6.00
   0  -2   5   -4.68   19.17
  -2   1  -5  282.60   66.52
  -1  -2  -5  279.77   66.44
  -1  -2  -5  276.25   71.22
  -2   1  -5  263.66   73.84
   2  -1   5  297.74   65.64
   1   2   5  314.83   68.84
   1   2   5  276.16   75.17
   1   2   5  274.07   82.48
  -2   2  -5   -0.40    7.30
  -2  -2  -5    6.72   10.23
  -2  -2  -5   -5.18   10.68
  -2   2  -5    0.85   13.54
  -2   2  -5   -4.94    6.66
  -2  -2  -5    2.90    5.92
  -2   2  -5   -0.77   12.88
   2   2   5   -3.12    5.31
   2  -2   5    8.99    8.03
   2  -2   5    0.86    8.16
   2   2   5   -4.92   23.16
   2   2   5   -0.74   14.65
  -2   3  -5   60.33   23.43
  -2   3  -5   55.31   27.16
  -2   3  -5  101.51   19.69
  -2   3  -5   26.09   16.23
   2  -3   5   83.40   20.82
   2  -3   5   35.86   17.72
   3   2   5   72.12   16.36
  -3  -1  -5  359.31   91.66
   1  -3  -5  327.97   88.14
  -1   3  -5  390.27   89.82
  -1   3  -5  200.00  102.16
  -1   3  -5  414.58   84.13
  -1   3  -5  372.66   79.59
  -1   3   5  333.74   98.94
  -1   3   5  340.15   88.99
   1  -3   5  338.46   91.88
   1  -3   5  391.62   87.86
  -3   0  -5   12.81    9.89
   0  -3  -5    8.37   13.81
   0   3  -5    4.11    9.35
   0   3  -5    1.26   18.15
  -3   0  -5   -2.50   13.41
   0  -3   5    8.53   12.92
   0  -3   5    5.20   22.82
   0   3   5    7.56   24.73
   3   0   5    8.48    8.12
   0   3   5    3.54   15.14
  -1  -3  -5  322.50   87.30
  -1  -3  -5  329.38   80.80
  -1  -3  -5  425.38   90.46
  -3   1  -5  351.13   91.62
   1   3   5  310.02   83.35
   1   3   5  321.51   91.64
   1   3   5  385.66  100.26
   3  -1   5  333.83   80.84
  -2  -3  -5   74.97   22.67
  -2  -3  -5   61.87   20.03
  -3   2  -5   74.86   25.34
  -2  -3  -5   87.47   21.24
   2   3   5   73.25   35.16
   2   3   5   75.50   17.88
   2   3   5   82.79   27.59
  -3   3  -5   11.68   19.08
  -3  -3  -5   18.16   22.01
  -3   3  -5   21.45   12.07
  -3   3  -5    5.09   22.32
   3   3   5    1.30   25.85
   3   3   5    3.00   37.00
   3  -3   5    4.35   11.59
  -3   4  -5 1289.47  364.76
  -3   4  -5 1423.55  406.24
  -3   4  -5 1471.52  357.47
   3  -4   5 1604.28  355.55
  -2   4  -5  548.00  120.53
  -2   4  -5  358.89  140.75
  -2   4  -5  564.09  127.18
   2  -4   5  448.59  116.43
   2  -4   5  543.83  132.62
   2  -4   5  451.66  125.97
  -1   4  -5 1508.99  398.91
  -1   4  -5 1679.37  470.64
  -1   4  -5 1745.80  379.12
   1  -4  -5 1557.71  409.33
  -1   4  -5 1769.20  422.98
   1  -4   5 1701.30  439.85
  -1   4   5 1510.71  401.80
   1  -4   5 1825.95  407.68
   0   4  -5    2.79   23.44
   0   4  -5   -6.41   11.46
   0   4  -5   -7.19   36.31
   0   4  -5   -1.34   23.28
   0  -4  -5    1.20   19.16
  -4   0  -5   -1.44   13.49
   0   4   5  -13.95   19.46
   0   4   5   18.63   32.79
   0  -4   5    5.41   17.99
   4   0   5    1.12    8.57
   0  -4   5   -1.46   29.37
  -1  -4  -5 1843.68  406.54
   1   4   5 1642.45  383.08
   1   4   5 1255.03  451.74
  -2  -4  -5  592.34  138.99
  -2  -4  -5  403.48  126.17
   2   4   5  640.92  148.08
   2   4   5  516.46  132.22
  -3  -4  -5 1650.90  373.63
   3   4   5 1602.38  427.43
   3   4   5 1445.26  379.66
  -4   4  -5  -14.16   34.46
  -4   4  -5   10.58   17.95
   4  -4   5   16.69   17.27
  -4   5  -5   49.43   43.53
  -4   5  -5   22.36   20.95
  -4   5  -5   18.64   32.75
   4  -5   5   25.19   19.25
   4  -5   5   28.76   26.56
  -3   5  -5  259.52   67.40
  -3   5  -5  212.75   83.89
   3  -5   5  274.11   68.52
  -2   5  -5   34.05   42.43
  -2   5  -5   24.52   27.53
  -2   5  -5   35.63   26.11
   2  -5   5   47.13   31.34
  -2   5   5   56.52   41.85
   2  -5   5   60.87   27.76
  -1   5  -5  130.87   31.98
  -1   5  -5   90.71   55.24
  -1   5  -5  171.37   42.25
  -1   5  -5  189.38   40.90
   1  -5   5   84.03   38.19
   1  -5   5  103.95   44.39
   0   5  -5   70.18   54.07
   0   5  -5   99.15   37.44
   0   5  -5   74.38   24.10
   0   5  -5   97.38   37.89
   0  -5   5   57.57   45.74
   0  -5   5  107.80   32.72
   1   5  -5   99.51   36.44
  -1  -5   5  134.32   41.72
  -5   3  -5  289.71   68.81
   5  -3   5  254.45   63.99
  -5   4  -5   31.69   24.81
  -4  -5  -5   45.07   37.56
  -5   4  -5   49.55   34.47
   4   5   5   50.41   63.47
   5  -4   5   64.36   20.82
  -5   5  -5  -15.32   35.09
  -5   5  -5   16.36   24.57
   5  -5   5   -5.25   19.11
  -5   6  -5  -23.36   41.91
  -5   6  -5    2.15   25.68
  -5   6  -5  -49.03   61.39
   5  -6   5  -11.25   23.83
  -4   6  -5  167.92   37.86
  -4   6  -5  118.19   47.91
   4  -6   5  107.28   37.72
  -3   6  -5   -1.35  287.15
   3  -6   5 2005.31  264.61
   2  -6  -5   35.76   34.03
  -2   6   5   14.84   32.45
   2  -6   5    1.65   36.56
  -2   6   5   -9.20   47.73
  -1   6  -5  295.86   81.92
   1  -6  -5  318.48   78.22
  -1   6   5  313.61   97.83
   1  -6   5  284.55   87.77
  -1   6   5  303.62   75.24
   0   6  -5   13.54   34.18
   0  -6  -5  -18.51   35.39
   0   6  -5   -2.30   14.15
   0   6   5    4.57   30.56
   0  -6   5   11.27   44.38
   0   6   5   -1.90   56.10
  -1  -6  -5  202.26   83.15
   1   6  -5  216.90  105.87
   1   6  -5  304.69   68.08
  -1  -6   5  310.13   81.36
   1   6   5  213.55   97.19
   1   6   5  291.41   74.33
  -2  -6  -5   28.04   30.22
   2   6   5    5.82   57.19
   2   6   5   19.22   39.36
  -3  -6  -5 2016.88  421.96
   3   6   5 2203.61  433.79
  -4  -6  -5  141.20   50.00
   4   6   5   97.29   58.57
   4   6   5   98.24   81.07
  -6   5  -5  -29.37   40.10
   5   6   5  -70.13   55.60
  -6   6  -5    8.31   41.56
  -6   7  -5  -15.35   47.08
  -6   7  -5   84.99   70.13
  -5   7  -5   33.98   29.67
  -5   7  -5   24.07   65.95
  -5   7  -5  -28.26   42.30
   5  -7   5  -11.24   37.72
   5  -7   5  -10.05   23.14
  -4   7  -5 -108.66   76.69
  -4   7  -5  -10.86   25.86
  -4   7  -5  -34.68   44.59
  -4   7  -5 -152.29   53.35
   4  -7   5   -8.66   24.03
   4  -7   5 -114.07   59.16
  -3   7  -5  -20.39   32.74
   3  -7  -5   -7.63   42.22
  -3   7  -5   -2.82   20.11
  -3   7  -5   18.35   60.88
  -3   7  -5   -3.26   35.22
   3  -7   5  -14.06   22.53
  -3   7   5   -2.31   40.89
   3  -7   5   -7.47   42.68
   3  -7   5    1.28   36.26
  -2   7  -5   76.37   24.96
  -2   7  -5   40.25   38.22
   2  -7  -5   86.37   44.01
  -2   7  -5   98.74   65.06
  -2   7   5   77.78   40.02
   2  -7   5   62.94   26.01
   2  -7   5   48.05   49.34
  -2   7   5   94.88   60.09
  -1   7  -5   -1.82   56.69
  -1   7  -5   -1.85   39.45
   1  -7  -5  -29.35   39.54
   1  -7   5  -46.67   51.33
  -1   7   5   -3.61   35.05
   1  -7   5   -2.25   31.21
  -1   7   5  -39.32   63.21
   0   7  -5  -29.07   46.13
   0  -7  -5  -39.92   45.71
   0   7  -5   -4.22   60.81
   0  -7   5  -24.39   36.20
   0  -7   5   -2.13   52.85
   0   7   5  -15.47   70.38
   0   7   5  -35.82   40.01
   1   7  -5  -52.84   50.50
  -1  -7  -5  -37.92   50.39
   1   7  -5  -20.56   70.13
   1   7   5   -1.97   40.26
   1   7   5    2.23   66.79
  -1  -7   5   36.26   39.19
  -2  -7  -5  108.24   63.23
  -2  -7  -5   87.71   41.62
   2   7   5  156.79   73.37
   2   7   5   72.46   52.13
  -3  -7  -5   34.61   37.57
   3   7   5   -5.19   54.47
   3   7   5    9.76   71.25
  -4  -7  -5   -3.80   45.02
   4   7   5  -17.54   87.61
   4   7   5   -8.61   60.03
  -5  -7  -5   17.73   48.47
   5   7   5  -51.84   64.56
  -7   8  -5  283.87   95.85
  -6   8  -5  420.87  108.60
  -6   8  -5  182.30   83.30
   6  -8   5  216.11   65.00
  -5   8  -5  -11.99   30.39
  -5   8  -5  -19.27   46.17
  -5   8  -5   72.84   78.22
  -5   8  -5  -45.99   46.26
   5  -8   5   23.72   26.88
   5  -8   5    2.60   48.04
  -4   8  -5   17.31   40.78
  -4   8  -5   47.35   39.80
  -4   8  -5   47.93   77.93
  -4   8  -5   15.51   27.35
   4  -8   5   72.62   46.70
   4  -8   5    1.87   25.39
  -3   8  -5   11.02   21.86
  -3   8  -5   54.46   39.91
   3  -8  -5  -19.70   51.40
  -3   8  -5   62.69   36.96
  -3   8  -5  -88.24   74.14
   3  -8   5   22.54   40.09
  -3   8   5  -24.72   46.52
   3  -8   5  -13.58   23.12
   3  -8   5  -11.03   46.13
   2  -8  -5  121.51   49.51
  -2   8  -5   87.12   43.41
  -2   8  -5  118.10   25.57
  -2   8  -5  -29.16   81.61
  -2   8  -5   57.47   42.43
   2  -8   5   65.95   43.42
   2  -8   5  -35.64   59.82
   2  -8   5   36.77   46.54
  -2   8   5  143.96   45.02
   2  -8   5   40.43   27.29
  -1   8  -5  -34.60   23.37
   1  -8  -5  -24.41   51.57
  -1   8   5  -32.90   82.34
   1  -8   5 -198.20   81.17
  -1   8   5   -2.07   46.11
   1  -8   5  -58.00   45.36
   0  -8  -5   21.05   75.46
   0  -8   5  435.13   76.16
   1   8  -5 -213.17  100.08
  -1  -8  -5  -12.44   43.61
   1   8  -5 -176.77   78.10
  -1  -8  -5  -65.18   63.03
   1   8   5  -50.27   53.00
   1   8   5  -15.26   89.54
  -1  -8   5   83.25   51.99
  -2  -8  -5   98.74   73.16
   2   8  -5  -48.49   92.91
   2   8  -5   49.98   67.06
  -2  -8  -5   76.22   48.11
   2   8   5   48.46   84.54
  -2  -8   5  153.87   53.72
   2   8   5  120.17   56.93
  -3  -8  -5   38.99   44.47
   3   8   5  -32.60   61.64
   3   8   5    2.72   80.80
  -4  -8  -5   16.39   50.36
   4   8   5  -15.90   97.12
   4   8   5   28.88   68.82
  -5  -8  -5   -9.59   56.31
   5   8   5   42.99   98.63
   5   8   5   20.65   72.93
  -7   9  -5  195.03  115.50
  -7   9  -5  209.46   81.27
  -6   9  -5  239.21  106.51
  -6   9  -5   94.37   66.55
  -5   9  -5  363.83  122.54
  -5   9  -5  604.28  127.73
  -5   9  -5  464.94  136.00
  -5   9  -5  583.49  166.60
   5  -9   5  481.17  121.25
   5  -9   5  541.08  136.37
  -4   9  -5   21.93   42.83
  -4   9  -5   18.67   27.16
   4  -9  -5   85.51   59.78
  -4   9  -5   80.43   89.00
  -4   9  -5   62.99   45.45
   4  -9   5    7.70   54.53
   4  -9   5   14.13   28.77
  -4   9   5   63.34   81.07
   4  -9   5   42.21   46.84
  -3   9  -5   84.58   31.76
   3  -9  -5  106.25   57.61
  -3   9  -5  194.71   49.93
  -3   9  -5   87.12   88.68
  -3   9  -5   70.01   47.48
   3  -9   5   56.64   49.72
   3  -9   5   56.33   60.46
   3  -9   5   75.31   33.56
  -3   9   5   85.04   54.68
  -2   9  -5  -42.90   77.25
  -2   9  -5   40.86   21.35
   2  -9  -5   19.68   51.94
  -2   9  -5   51.19   40.92
  -2   9  -5  -41.65   48.87
   2  -9   5   63.75   62.50
   2  -9   5   23.40   23.10
   2  -9   5   70.97   44.00
  -2   9   5  -16.68   48.69
   2  -9   5  -16.59   48.13
  -1   9  -5   57.35   74.92
  -1   9  -5   32.65   50.87
  -1   9  -5    1.87   45.38
   1  -9  -5   14.18   56.46
  -1   9  -5   48.05   20.64
   1  -9   5   49.21   42.81
  -1   9   5   30.37   46.86
   1  -9   5   50.60   57.21
   1  -9   5   95.26   73.58
  -1   9   5   66.41   92.18
   0   9  -5  143.61   56.43
   0   9  -5   91.53   31.41
   0  -9  -5   91.64   64.31
   0   9  -5  182.53   84.24
   0   9  -5   73.24   66.58
   0  -9   5  188.12   78.80
   0  -9   5   82.22   51.75
   0   9   5  122.52   55.94
   0   9   5   46.53   97.98
  -1  -9  -5   32.35   46.34
   1   9  -5    6.70   69.24
   1   9  -5   91.66   85.59
   1   9  -5   13.93   23.42
  -1  -9  -5  -20.66   69.21
  -1  -9   5   47.13   49.76
   1   9   5   18.42   56.47
   1   9   5   37.45   94.22
  -2  -9  -5   39.25   83.95
   2   9  -5   38.03   34.64
  -2  -9  -5   43.72   47.94
   2   9  -5   18.69   76.85
   2   9  -5   90.02   93.97
   2   9   5   66.10   92.13
  -2  -9   5  -27.33   54.21
   2   9   5   56.88   66.11
  -3  -9  -5   91.88   58.83
   3   9   5  202.60   95.68
   3   9   5  106.68   74.92
  -4  -9  -5  -54.19   55.40
   4   9   5    3.48  100.68
   4   9   5  -10.85   74.15
  -5  -9  -5  477.67  143.96
   5   9   5  706.82  155.07
   5   9   5  519.17  174.01
   6   9   5  148.96   92.23
  -7  10  -5  467.42  147.75
  -7  10  -5  258.85  112.36
  -6  10  -5  881.40  190.56
  -6  10  -5  350.64  149.51
   6 -10   5  474.05  151.66
  -5  10  -5  -65.55  109.55
  -5  10  -5  -45.24   57.56
  -5  10  -5   42.93   54.54
  -5  10  -5   24.30   36.74
   5 -10   5  -28.78   63.42
   5 -10   5   37.09   31.69
  -4  10  -5  621.67  190.46
   4 -10  -5  815.97  192.54
  -4  10  -5  920.32  176.42
  -4  10  -5  736.81  227.18
  -4  10  -5  724.24  181.39
  -4  10   5  673.03  178.50
  -4  10   5  679.82  218.40
   4 -10   5  787.92  188.89
   4 -10   5  748.01  214.65
   4 -10   5  757.98  183.96
  -3  10  -5  -87.19   50.68
  -3  10  -5   24.11   27.92
   3 -10  -5  -47.71   62.62
  -3  10  -5   11.27   99.04
  -3  10  -5  -22.67   44.43
   3 -10   5   41.22   60.38
  -3  10   5  -11.26   53.90
   3 -10   5    3.96   28.11
  -3  10   5   57.42   98.69
   3 -10   5   -8.45   49.45
  -2  10  -5   34.16   47.74
  -2  10  -5   51.93   26.72
  -2  10  -5   94.70   91.35
   2 -10  -5   51.00   63.33
  -2  10  -5   65.46   56.63
  -2  10   5   21.28   54.94
   2 -10   5   43.74   57.36
   2 -10   5  117.04   51.91
   2 -10   5   77.78   30.56
   2 -10   5   22.32   76.16
  -1  10  -5  220.22  112.14
  -1  10  -5  292.64  108.17
   1 -10  -5  531.91  113.86
  -1  10  -5  438.41   91.05
  -1  10  -5  468.37  132.35
   1 -10   5  264.38  134.49
   1 -10   5  384.50  104.72
  -1  10   5  463.20  102.92
   1 -10   5  236.30  124.81
   0  10  -5  -51.64   56.73
   0  10  -5  -29.59   69.19
   0  10  -5  -17.37   90.44
   0  10  -5   -5.40   22.22
   0 -10  -5   28.24   72.20
   0 -10   5   58.45   53.04
   0  10   5  115.06  109.33
   0  10   5  -30.23   59.32
   0 -10   5   34.56   85.07
   1  10  -5  421.82  144.59
   1  10  -5  363.95   92.26
  -1 -10  -5  438.31  105.90
  -1 -10  -5  407.40  128.18
   1  10  -5  350.91  124.85
   1  10   5  404.86  143.83
  -1 -10   5  277.42  108.74
   1  10   5  365.48  110.24
   2  10  -5   14.82  101.07
  -2 -10  -5   87.94   59.20
   2  10  -5   99.64   87.76
   2  10  -5   45.70   35.96
  -2 -10  -5  142.44   96.87
  -2 -10   5   34.65   65.84
   2  10   5  131.64  103.10
   2  10   5  206.21   75.87
  -3 -10  -5   67.34   62.60
   3  10  -5   -4.44   91.65
   3  10   5  219.33   84.59
   3  10   5  171.65  108.60
  -4 -10  -5  852.37  180.93
   4  10   5  536.40  220.60
   4  10   5  663.11  198.29
  -5 -10  -5   16.85   68.17
   5  10   5  -12.72   92.26
   5  10   5   41.38  121.65
   6  10   5  802.43  194.33
  -7  11  -5    2.89   68.36
  -7  11  -5   -7.54  130.71
  -6  11  -5   82.06   68.89
  -6  11  -5  164.05  128.88
  -6  11  -5   32.82   65.86
   6 -11   5   -3.99   80.09
  -5  11  -5  149.58  127.48
  -5  11  -5  111.62   44.28
  -5  11  -5  169.91   65.51
  -5  11  -5  112.87   64.01
   5 -11   5  113.98   43.69
   5 -11   5   63.87   74.91
   5 -11   5   61.93   68.85
   4 -11  -5   74.57   87.03
  -4  11  -5  166.81   66.68
  -4  11  -5   70.52   43.91
  -4  11  -5   95.50   59.33
  -4  11  -5  462.29  127.04
   4 -11   5   72.74   42.77
   4 -11   5   76.78   66.72
  -4  11   5  328.23  123.76
  -4  11   5  185.93   75.21
   4 -11   5   84.94   77.76
  -3  11  -5  245.68  123.89
   3 -11  -5  113.90   90.60
  -3  11  -5  204.53   76.85
  -3  11   5  183.29  132.46
   3 -11   5  200.09   83.13
  -3  11   5  185.61   79.51
   3 -11   5  224.09   91.21
   3 -11   5  300.41   63.87
   3 -11   5  244.41   82.29
   2 -11  -5  704.90  157.14
  -2  11  -5  616.01  183.58
  -2  11  -5  482.78  145.83
  -2  11   5  716.59  143.20
   2 -11   5  443.46  165.07
   2 -11   5  683.44  147.76
   2 -11   5  537.24  152.61
   2 -11   5  384.40  182.22
  -1  11  -5   17.87  103.82
  -1  11  -5   41.77   74.25
   1 -11  -5   14.95   78.48
  -1  11   5  107.68   65.74
   1 -11   5   36.22   57.69
   1 -11   5  155.67   93.83
   0  11  -5 1274.87  469.60
   0 -11  -5 2042.44  445.63
   0  11  -5 1379.80  433.89
   0  11   5 2060.58  405.84
   0 -11   5 1982.71  471.66
   0  11   5 1809.38  483.14
   0 -11   5 1658.90  422.82
   1  11  -5   83.98   92.96
  -1 -11  -5  152.06   99.67
   1  11  -5  119.29  112.50
  -1 -11  -5   74.67   66.11
  -1 -11   5  172.12   69.38
   1  11   5   43.05  121.12
   1  11   5   27.15   75.01
  -2 -11  -5  669.56  196.86
   2  11  -5  602.70  181.17
  -2 -11  -5  754.68  161.87
   2  11  -5  532.25  199.38
   2  11   5  425.70  169.10
  -2 -11   5  601.66  165.41
   2  11   5  783.45  197.39
  -3 -11  -5  323.20   85.15
   3  11  -5  350.52  113.38
  -3 -11  -5  131.71  140.30
  -3 -11   5  203.62   87.52
   3  11   5  -33.11  112.39
   3  11   5  123.31  132.90
  -4 -11  -5  132.23   82.70
   4  11   5  142.83  109.88
  -5 -11  -5  140.35   80.50
   5  11   5 -282.84  105.64
   5  11   5  183.45  131.87
  -6 -11  -5   32.76   78.68
   6  11   5   -4.91  110.23
  -8  12  -5  554.79  223.33
  -7  12  -5  371.80  183.77
  -6  12  -5    3.64   73.97
  -6  12  -5  -60.95  144.06
   6 -12   5    4.36   87.79
   5 -12  -5  -87.75   91.75
  -5  12  -5   23.31  132.89
  -5  12  -5   29.14   66.13
   5 -12   5  -35.20   77.80
   4 -12  -5   45.48   88.38
  -4  12  -5  -30.24   66.47
  -4  12  -5  141.91  133.64
  -4  12   5  146.27   77.87
   4 -12   5   21.92   80.10
  -3  12  -5  186.86  122.93
  -3  12  -5   85.63   68.67
   3 -12  -5   62.76   86.48
   3 -12   5   92.18   72.35
   3 -12   5   60.08   88.29
  -3  12   5   23.86   72.67
  -3  12   5  233.93  148.15
   2 -12  -5   61.37   85.65
  -2  12  -5   48.25   72.22
  -2  12  -5  -37.26  111.31
   2 -12   5  -45.11   69.35
  -2  12   5 -126.31   75.04
   2 -12   5    4.07   91.61
   1 -12  -5  684.85  148.19
  -1  12  -5  315.48  137.18
  -1  12  -5  274.91  160.93
   1 -12   5  515.58  132.43
   1 -12   5  306.72  160.82
  -1  12   5  543.24  129.46
   0  12  -5   12.28   89.24
   0  12  -5   17.89  114.35
   0 -12  -5   23.04  105.40
   0 -12  -5  -10.76   83.26
   0 -12   5   36.30  123.24
   0  12   5  -35.26   79.16
   0  12   5    4.01  136.34
   0 -12   5  108.11   67.55
   1  12  -5  397.77  160.69
  -1 -12  -5  587.44  144.37
  -1 -12  -5  775.76  172.82
   1  12  -5  460.43  180.36
  -1 -12   5  474.71  145.22
   1  12   5  435.78  187.43
   1  12   5  518.51  147.06
   2  12  -5  -86.19  114.49
   2  12  -5  -72.52  122.78
  -2 -12  -5  -73.10  130.31
  -2 -12  -5  -42.92   79.60
  -2 -12   5   -5.84   71.22
   2  12   5    4.21   91.85
   2  12   5 -249.63  135.80
   3  12  -5  275.39  119.89
  -3 -12  -5   98.04  143.66
  -3 -12  -5  160.15   83.25
   3  12   5  435.57  148.18
  -3 -12   5  118.72   82.31
   3  12   5   27.66  108.21
  -4 -12  -5  -18.28   86.71
   4  12   5 -189.73  146.04
   4  12   5   29.40  110.89
   5  12   5  254.94  127.18
  -6  13  -5   11.62   76.83
  -6  13  -5 -112.41  162.65
   6 -13   5   -4.75  108.15
  -5  13  -5  -73.56  158.06
  -5  13  -5  133.76   76.92
   5 -13  -5   26.76  102.02
  -5  13   5   92.35  152.73
   5 -13   5   38.71   98.58
  -4  13  -5   57.64  146.46
  -4  13  -5   76.76   70.71
  -4  13   5   31.91  151.71
   4 -13   5   73.24   88.30
  -3  13  -5   42.82  135.32
  -3  13  -5  -58.04   73.48
   3 -13   5   -8.41   96.45
   3 -13   5 -131.55   78.75
  -2  13  -5  120.07  149.43
  -2  13  -5  252.30  102.25
   2 -13   5  218.61  125.23
   2 -13   5   20.51  102.92
  -1  13  -5  131.59   89.36
  -1  13  -5 -153.20  128.08
   1 -13   5   -5.18   75.30
   1 -13   5  -56.19  121.54
   0  13  -5  568.97  128.13
   0  13  -5  550.39  154.32
   0 -13   5  217.90  156.14
   0 -13   5   11.02  110.71
   1  13  -5   91.23  112.58
   1  13  -5  -98.59  134.29
  -1 -13   5  -98.98   77.16
  -1 -13   5   50.31  145.39
   2  13  -5  367.92  160.41
  -2 -13   5  553.75  132.23
  -4 -13  -5   -6.75   92.66
   4  13   5    4.97  155.73
  -5 -13  -5   94.82  106.73
   5  13   5  283.69  165.17
  -6 -13  -5  -53.45   95.25
   6  13   5  -53.46  132.20
  -7  14  -5  133.82  182.56
   7 -14   5    5.55  103.23
  -6  14  -5  312.94  190.87
   5 -14  -5  -17.68  105.78
  -5  14   5    5.13  162.03
  -5  14   5 -150.45   88.43
   4 -14  -5   11.18  115.16
  -4  14   5   26.08   90.63
  -4  14   5 -600.91  174.41
   3 -14  -5 -115.41  111.26
  -3  14   5 -114.59   89.76
  -3  14   5 -405.10  166.65
   2 -14  -5   57.41  115.68
  -2  14   5 -265.65   93.35
  -2  14   5   -4.99  167.01
   1 -14  -5   76.03  115.91
  -1  14   5    4.28   92.64
   0 -14  -5   35.19  126.63
   0  14   5   -4.47   97.42
  -1 -14  -5    6.36  139.41
  -1 -14  -5 -100.94   99.61
  -1 -14   5   -6.44   91.39
   1  14   5  -71.66  112.05
   1  14   5    4.77  159.56
  -2 -14  -5   -6.94  154.59
  -2 -14  -5 -122.88   96.91
   2  14  -5  321.93  125.69
   2  14  -5 -198.12  148.31
   2  14   5    4.70  157.84
   2  14   5   -5.14  115.68
  -2 -14   5 -111.31   84.64
  -3 -14  -5  305.24  167.55
   3  14  -5  -64.64  150.61
  -3 -14  -5  -50.36  109.53
   3  14   5    5.55  128.74
   3  14   5   -5.09  166.01
  -3 -14   5   -7.28   98.79
  -4 -14  -5   67.32  100.62
  -4 -14  -5  181.49  183.02
   4  14   5 -521.54  185.69
   4  14   5   53.32  138.16
  -5 -14  -5  192.30  107.12
   5  14   5   39.88  174.57
   5  14   5    6.18  139.27
  -6 -14  -5  107.99  108.14
   6  14   5  123.21  143.91
  -7  15  -5 -231.99  210.14
   7 -15   5   24.02  119.71
  -6  15  -5   10.96  192.55
  -6  15  -5 -191.04   92.05
   6 -15   5   11.24  118.76
  -5  15  -5  321.49  192.16
   5 -15  -5    6.51  123.59
  -5  15  -5   58.41   95.66
   5 -15   5  146.20  125.46
  -5  15   5  226.86  192.55
   5 -15   5   30.77  115.45
  -5  15   5  287.46  105.64
  -4  15  -5  330.83  179.51
  -4  15  -5   53.35   90.12
   4 -15  -5  304.78  127.75
   4 -15   5    6.97  109.78
  -4  15   5  -66.85   97.03
  -4  15   5   -5.56  183.47
   4 -15   5  -25.06  107.23
  -3  15  -5   -4.73  160.30
   3 -15  -5  100.26  117.11
  -3  15  -5  -50.92   91.53
  -3  15   5   22.07  192.81
   3 -15   5   93.99  103.44
   3 -15   5   26.05  118.24
  -3  15   5   18.17   92.86
  -2  15  -5    4.49  102.67
   2 -15  -5   -5.89  120.43
  -2  15  -5   36.25  151.39
  -2  15   5 -124.85  101.51
   2 -15   5  -26.41   97.14
  -2  15   5 -103.79  195.98
   2 -15   5   16.96  125.44
  -1  15  -5  206.21  111.38
  -1  15  -5   13.79  148.87
   1 -15  -5  146.94  132.53
  -1  15   5    4.78  106.54
   1 -15   5   -6.71  102.76
   1 -15   5  -12.49  148.15
   0 -15  -5   19.78  145.62
   0  15  -5    5.46  118.68
   0  15  -5    4.83  156.21
   0  15   5    5.00  113.59
   0 -15   5  -41.44  162.63
   0 -15   5   -6.94   95.97
  -1 -15  -5  163.32  159.66
  -1 -15  -5  121.86  113.34
   1  15  -5 -168.62  157.43
   1  15  -5  -97.28  136.82
   1  15   5    5.17  173.17
  -1 -15   5  -53.02  180.03
  -1 -15   5  -85.49  104.33
   1  15   5    5.31  120.32
  -2 -15  -5   68.65  171.23
  -2 -15  -5   -7.76  114.40
   2  15  -5  -90.85  163.30
   2  15  -5   -6.60  144.13
   2  15   5  130.90  180.88
  -2 -15   5  -76.25   99.53
   2  15   5   -5.67  124.33
  -2 -15   5    8.09  197.31
  -3 -15  -5  -16.10  106.30
  -3 -15  -5  114.91  191.26
   3  15  -5   70.23  156.63
  -3 -15   5   71.09  103.64
   3  15   5   79.33  131.96
   3  15   5    5.60  176.43
  -4 -15  -5  107.87  122.36
  -4 -15  -5 -120.79  193.14
   4  15   5   90.58  141.73
   4  15   5 -255.66  201.43
  -5 -15  -5  -71.62  211.17
  -5 -15  -5   88.25  117.13
   5  15   5  249.23  155.57
   5  15   5   92.83  190.72
  -6 -15  -5  -18.15  117.58
   6  15   5 -281.58  154.73
  -7  16  -5  111.85  216.23
   7 -16   5    6.46  120.17
  -6  16  -5   47.85  103.79
  -6  16  -5  191.11  214.13
   6 -16   5   36.69  129.98
   5 -16  -5   28.85  172.72
   5 -16   5   80.99  160.39
   5 -16   5  108.53  162.05
  -5  16   5  539.79  237.93
  -5  16   5   54.16  123.59
  -4  16  -5  -36.12  101.34
   4 -16  -5   27.77  140.30
  -4  16  -5  -97.48  188.18
   4 -16   5   22.19  127.14
  -4  16   5 -231.92  108.66
   4 -16   5 -140.73  125.54
  -4  16   5 -208.40  217.76
  -3  16  -5 -254.51  182.52
   3 -16  -5   19.89  134.42
  -3  16  -5   37.54  108.00
  -3  16   5 -185.60  111.92
   3 -16   5   -5.76  130.86
   3 -16   5  -91.46  115.09
  -3  16   5 -340.74  212.63
   2 -16  -5   66.25  135.65
  -2  16  -5   39.83  107.66
  -2  16  -5  -79.12  169.56
   2 -16  -5 -106.40  140.98
  -2  16   5   -5.16  109.36
   2 -16   5    6.26  138.93
   2 -16   5 -201.90  108.96
  -2  16   5 -142.42  209.87
   1 -16  -5  -78.16  136.99
  -1  16  -5   37.95  122.24
   1 -16  -5  193.00  152.35
  -1  16  -5   20.54  166.69
  -1  16   5   -5.33  114.65
  -1  16   5   23.37  203.97
   1 -16   5  -99.28  110.92
   1 -16   5  -27.40  162.59
   0 -16  -5   36.86  163.45
   0  16  -5  -77.62  133.96
   0  16   5   61.87  127.11
   0 -16   5  -45.44  188.45
   0 -16   5  100.63  112.72
   1  16  -5  345.89  172.70
  -1 -16  -5   -8.63  126.80
   1  16  -5  -98.90  143.45
  -1 -16  -5 -252.04  178.83
   1  16   5 -336.31  133.24
  -1 -16   5   -8.24  198.49
  -1 -16   5  104.33  113.63
  -2 -16  -5   42.23  189.99
  -2 -16  -5  113.82  122.65
   2  16  -5   17.37  174.66
   2  16  -5   64.63  155.86
  -2 -16   5  -53.04  211.08
   2  16   5  193.17  190.79
   2  16   5    6.28  138.26
  -2 -16   5 -301.82  117.10
  -3 -16  -5  108.56  138.14
  -3 -16  -5   53.76  205.60
   3  16  -5  -15.20  166.68
   3  16   5    6.22  198.88
   3  16   5 -232.38  148.05
  -3 -16   5   51.63  113.50
  -4 -16  -5   56.40  223.60
  -4 -16  -5  -83.00  122.09
   4  16   5   32.53  201.60
   4  16   5  371.58  163.60
  -5 -16  -5   29.25  151.93
  -5 -16  -5    9.81  240.10
   5  16   5   53.88  224.29
   5  16   5    7.37  178.04
  -6 -16  -5  341.89  230.38
  -6 -16  -5  -29.83  119.36
   6  16   5    7.63  168.89
  -6  17  -5   77.54  226.91
  -6  17  -5  -67.20  108.42
   6 -17   5  -26.62  134.99
   6 -17   5 -150.63  150.20
   5 -17  -5    8.02  155.44
  -5  17  -5 -309.50  225.73
  -5  17  -5  -49.65  102.51
   5 -17   5   37.75  128.81
  -5  17   5  -82.02  237.12
   5 -17   5  126.73  145.84
  -5  17   5   23.81  115.69
  -4  17  -5 -144.13  107.55
  -4  17  -5 -355.75  213.63
   4 -17  -5   69.95  160.22
   4 -17   5   -6.14  139.69
   4 -17   5 -105.20  136.39
  -4  17   5  239.39  120.75
  -4  17   5   74.26  229.39
  -3  17  -5  -20.73  110.90
  -3  17  -5  -67.69  197.30
   3 -17  -5  -14.91  161.63
   3 -17   5   17.14  123.05
   3 -17   5   19.17  144.82
  -3  17   5 -235.35  119.87
  -3  17   5   26.54  228.17
  -2  17  -5 -110.76  185.53
   2 -17  -5  -14.92  153.78
   2 -17  -5    9.81  148.90
  -2  17  -5  -49.98  123.52
   2 -17   5   34.56  158.05
  -2  17   5 -246.93  233.89
  -2  17   5  287.77  124.57
   2 -17   5   -8.53  119.72
  -1  17  -5   -5.99  132.93
   1 -17  -5 -301.86  171.60
   1 -17  -5 -261.91  141.41
  -1  17  -5    5.75  182.52
   1 -17   5   77.52  128.89
  -1  17   5  -78.18  131.67
   1 -17   5    7.52  169.66
  -1  17   5  274.18  225.28
   0 -17  -5  606.51  184.79
   0  17  -5 -254.77  192.20
   0  17  -5  -26.15  150.54
   0 -17   5  -17.46  125.11
   0  17   5    6.27  132.84
   0 -17   5   65.89  196.18
   1  17  -5  -73.61  193.58
   1  17  -5   14.33  159.77
  -1 -17  -5   69.95  195.09
   1  17   5 -498.84  148.39
  -1 -17   5   80.59  121.92
  -1 -17   5  -36.01  218.41
  -2 -17  -5   64.79  210.90
   2  17  -5   23.40  173.35
   2  17  -5  220.48  195.14
  -2 -17  -5   19.89  140.82
   2  17   5    6.49  217.07
   2  17   5  131.29  155.63
  -2 -17   5   96.00  222.29
  -2 -17   5   36.98  126.47
   3  17  -5  -33.00  182.78
  -3 -17  -5  191.81  143.76
  -3 -17  -5   68.26  213.74
  -3 -17   5 -376.38  130.24
  -3 -17   5  -10.07  250.69
   3  17   5 -123.37  159.05
   3  17   5   -6.85  219.12
  -4 -17  -5   10.45  137.79
  -4 -17  -5 -154.35  238.18
   4  17   5  -35.78  226.93
   4  17   5    7.66  170.01
  -5 -17  -5  213.31  253.86
  -5 -17  -5   43.18  150.04
   5  17   5  -72.12  173.28
   5  17   5   -7.34  229.10
  -6 -17  -5  153.74  243.89
  -6 -17  -5   10.94  138.41
   6  17   5  140.88  178.23
  -6  18  -5  -61.64  117.63
   6 -18   5 -291.65  176.13
   6 -18   5  -14.52  156.18
  -5  18  -5 -114.63  253.33
   5 -18  -5  -89.29  223.37
  -5  18  -5  -97.74  122.72
   5 -18   5 -232.92  172.55
   5 -18   5    6.92  155.07
  -5  18   5 -472.83  151.76
  -5  18   5 -638.61  291.02
  -4  18  -5   43.77  112.83
  -4  18  -5 -342.59  226.98
   4 -18  -5    8.72  182.09
   4 -18   5  -13.59  153.61
  -4  18   5  233.82  134.54
   4 -18   5  217.69  151.72
  -4  18   5 -596.13  265.39
  -3  18  -5  -49.00  209.79
   3 -18  -5   89.44  165.01
   3 -18  -5  -17.01  179.34
  -3  18  -5  -75.10  129.10
   3 -18   5  -14.14  163.71
  -3  18   5 -194.32  251.45
   3 -18   5   38.76  145.68
  -3  18   5  326.28  134.65
  -2  18  -5   67.78  137.40
   2 -18  -5    8.40  183.06
  -2  18  -5  131.02  205.96
   2 -18  -5 -318.24  163.24
  -2  18   5   25.73  134.07
   2 -18   5 -231.78  145.25
   2 -18   5    7.60  174.38
  -2  18   5 -331.78  247.70
   1 -18  -5  -60.83  193.35
   1 -18  -5  152.00  173.54
  -1  18  -5 -131.95  149.20
  -1  18  -5 -332.02  205.11
  -1  18   5 -140.43  141.36
  -1  18   5  166.49  240.49
   1 -18   5  -24.81  197.51
   1 -18   5  195.53  141.24
   0 -18  -5   63.86  196.35
   0  18  -5  -50.31  160.38
   0  18  -5 -111.78  206.15
   0 -18   5   48.72  140.44
   0 -18   5  -53.72  209.74
   0  18   5 -153.69  156.16
   0  18   5    6.78  225.33
   1  18  -5   38.97  170.21
  -1 -18  -5  377.43  216.65
   1  18  -5  134.28  213.85
  -1 -18   5   79.97  145.32
   1  18   5   14.53  160.14
  -1 -18   5    9.75  219.33
  -2 -18  -5  -11.19  162.80
   2  18  -5    6.87  205.98
  -2 -18  -5 -142.35  233.42
   2  18  -5  -58.85  189.34
   2  18   5 -418.44  166.68
  -2 -18   5 -163.52  147.70
  -2 -18   5   10.39  252.63
   3  18  -5  198.01  193.76
  -3 -18  -5 -125.30  168.90
  -3 -18  -5 -224.76  254.49
  -3 -18   5 -154.93  137.24
   3  18   5   -7.93  173.79
  -3 -18   5  -32.91  257.60
   3  18   5 -376.60  247.99
  -4 -18  -5  -78.11  260.92
  -4 -18  -5 -491.00  161.68
   4  18   5   39.12  251.54
   4  18   5 -182.21  183.52
  -5 -18  -5   11.58  268.65
  -5 -18  -5  347.82  162.59
   5  18   5 -751.95  217.72
  -6 -18  -5  -12.08  163.73
  -6 -18  -5 -501.35  280.82
   6  18   5  -90.00  201.72
   6 -19   5  184.58  180.48
   5 -19  -5  -29.94  203.63
  -5  19  -5  113.11  124.39
  -5  19  -5    7.32  264.21
   5 -19   5 -225.63  193.57
  -5  19   5   32.78  277.66
  -5  19   5   80.10  145.18
   5 -19   5  -30.57  167.56
  -4  19  -5  -61.47  128.90
   4 -19  -5  -12.61  192.43
   4 -19  -5   19.61  200.29
  -4  19  -5 -307.89  253.10
  -4  19   5 -151.76  272.62
   4 -19   5    7.53  167.58
   4 -19   5   55.37  171.40
  -4  19   5  348.53  148.98
  -3  19  -5   20.48  235.41
   3 -19  -5  -28.75  197.71
   3 -19  -5   12.42  202.19
  -3  19  -5   19.10  139.78
   3 -19   5 -208.76  163.81
  -3  19   5   21.40  152.64
   3 -19   5    7.84  182.54
  -3  19   5    7.81  274.34
  -2  19  -5   13.61  149.48
  -2  19  -5  168.57  230.90
   2 -19  -5   37.87  213.99
   2 -19  -5   24.56  185.67
   2 -19   5 -110.10  170.63
  -2  19   5 -599.85  273.83
   2 -19   5    8.36  189.35
  -2  19   5 -131.84  157.95
   1 -19  -5  -29.25  220.11
   1 -19  -5   36.72  197.69
  -1  19  -5 -699.80  246.05
  -1  19  -5 -123.93  159.78
   1 -19   5   -9.06  217.52
  -1  19   5 -597.17  281.68
  -1  19   5 -327.10  170.04
   1 -19   5   10.93  171.93
   0  19  -5 -812.65  241.69
   0 -19  -5   12.21  189.10
   0 -19  -5  -60.77  232.38
   0  19  -5   94.45  173.49
   0 -19   5   -9.81  236.01
   0 -19   5   10.88  151.77
   0  19   5 -483.43  185.59
   1  19  -5 -125.19  234.11
   1  19  -5  -67.75  193.00
  -1 -19  -5   32.14  245.54
  -1 -19   5   21.06  253.00
   1  19   5 -438.30  188.87
  -1 -19   5 -112.43  155.05
   2  19  -5    7.52  227.23
   2  19  -5 -200.12  209.74
  -2 -19  -5  -12.67  191.78
   2  19   5 -477.53  193.41
  -2 -19   5   33.89  268.68
  -2 -19   5   11.30  149.37
   3  19  -5  -87.69  209.26
  -3 -19  -5  -12.72  183.39
  -3 -19  -5 -186.50  272.73
   3  19   5    8.72  196.57
   3  19   5   24.99  280.40
  -3 -19   5 -535.53  154.54
  -3 -19   5  -23.73  290.20
  -4 -19  -5  483.74  287.58
  -4 -19  -5   13.09  190.10
   4  19   5 -162.82  266.61
   4  19   5   99.28  200.77
  -5 -19  -5  565.24  294.45
  -5 -19  -5  119.87  183.40
   5  19   5    9.38  211.39
   5  19   5  105.46  273.12
  -6 -19  -5 -181.35  291.00
   6  19   5    9.72  211.01
   5 -20   5  -63.21  200.74
   5 -20   5   -8.44  184.41
  -4  20  -5  -15.16  272.43
  -4  20  -5 -155.33  142.35
   4 -20   5  373.27  200.63
   4 -20   5   16.83  194.50
  -3  20  -5   56.86  156.05
  -3  20  -5    7.70  260.74
   3 -20   5   -8.67  198.64
   3 -20   5  -49.73  194.40
  -2  20  -5  242.12  260.60
   2 -20  -5  -32.26  228.96
  -2  20  -5    7.55  161.20
   2 -20   5  -18.36  208.69
  -2  20   5 -350.82  174.77
   2 -20   5   86.86  189.90
  -1  20  -5   -8.09  181.77
   1 -20  -5  -10.93  236.11
  -1  20  -5 -189.98  255.44
   1 -20   5  -69.59  235.99
  -1  20   5  -75.71  188.14
   1 -20   5   49.48  189.79
   0 -20  -5  -11.30  241.65
   0  20  -5   16.10  251.62
   0  20  -5  155.22  189.28
   0  20   5    8.64  194.70
   0 -20   5  111.93  184.08
   0 -20   5   10.67  254.98
  -1 -20  -5   47.13  271.93
   1  20  -5   -8.08  244.46
   1  20  -5  -83.30  207.89
   1  20   5 -810.23  208.27
  -1 -20   5   50.23  164.15
  -1 -20   5  -22.78  279.10
   2  20  -5   29.53  216.22
   2  20  -5  289.16  251.08
  -2 -20   5  200.55  175.71
  -2 -20   5   73.10  293.04
   3  20  -5   62.86  229.84
  -3 -20   5  -38.44  294.44
   0   0  -6   12.87    9.94
   0   0  -6   16.43   16.34
   0   0   6   34.80   21.29
   0   1  -6  -13.10   17.48
  -1   0  -6    4.39   13.61
  -1   0  -6    6.72    6.84
   0  -1  -6    2.01    8.91
   0   1  -6   -1.13    9.05
   1   0   6   -9.82   14.46
   0   1   6   14.55   18.77
   0  -1   6   -3.88   20.22
  -1   1  -6  230.55   91.40
  -1  -1  -6  310.08   87.24
  -1   1  -6  338.77   82.12
   1  -1   6  394.84   92.91
   1   1   6  439.16   89.30
   1   1   6  426.67   92.88
   1   1   6  328.19  101.25
  -1   2  -6   -0.83   16.81
  -2  -1  -6   68.21   15.96
  -2  -1  -6   57.77   17.87
  -2  -1  -6   48.22   21.17
  -1   2  -6   62.08   18.63
  -1   2  -6   92.95   24.02
   1  -2   6   74.93   24.74
   2   1   6   67.02   25.54
   2   1   6   65.01   15.63
   2   1   6   69.22   18.11
   0   2  -6  848.05  192.44
  -2   0  -6  939.62  208.39
   0  -2  -6  797.74  201.24
   0  -2  -6  740.18  205.26
   0   2  -6 1100.60  210.88
  -2   0  -6  939.71  188.86
   0   2   6  649.04  230.65
   0   2   6  659.77  207.69
   0  -2   6  814.26  222.51
  -2   1  -6   53.02   22.91
  -1  -2  -6   67.05   19.60
  -1  -2  -6   63.71   22.31
  -2   1  -6   80.36   16.79
  -1  -2  -6   80.40   16.70
   1   2   6   56.30   28.84
   1   2   6   60.62   23.08
   1   2   6   53.58   20.12
   2  -1   6   52.53   21.68
  -2  -2  -6 4157.14  838.62
  -2  -2  -6 3539.93  909.09
  -2  -2  -6 3898.05  842.92
  -2   2  -6 3689.32  882.96
   2   2   6 3389.73  847.90
   2   2   6 3416.86  800.10
   2   2   6 2668.98  967.28
  -2   3  -6  634.81  148.41
  -3  -2  -6  854.85  155.92
  -2   3  -6  570.20  143.21
  -2   3  -6  420.36  165.19
  -3  -2  -6  602.80  155.56
  -3  -2  -6  764.79  151.79
  -2   3  -6  592.98  134.32
   3   2   6  536.31  152.23
   2  -3   6  603.96  147.42
   3   2   6  616.58  139.91
   2  -3   6  469.50  152.60
  -1   3  -6  367.96   79.43
  -1   3  -6  404.91   89.78
  -3  -1  -6  263.58   90.54
  -1   3  -6  262.35  110.54
  -1   3  -6  396.22   84.41
  -1   3   6  369.44   97.38
   1  -3   6  244.59   91.33
   3   1   6  374.19   80.76
   1  -3   6  389.83   92.17
   0  -3  -6   -2.39    8.92
  -3   0  -6   -0.93    9.85
   0  -3  -6    7.98   15.94
   0   3  -6    1.44   23.41
   0   3  -6    1.19   12.47
  -3   0  -6    2.67   15.68
   0  -3   6    3.04   27.39
   3   0   6   -3.60    8.76
   0   3   6   -1.00   25.78
   0   3   6   11.76   16.50
  -3   1  -6  370.20   90.32
  -1  -3  -6  325.26   81.86
  -1  -3  -6  426.42   90.53
  -1  -3  -6  299.66   86.42
   1   3   6  400.39   83.66
   1   3   6  287.11   93.16
   1   3   6  391.58  101.29
  -2  -3  -6  595.44  149.02
  -2  -3  -6  548.82  141.91
  -2  -3  -6  694.70  156.28
  -3   2  -6  688.49  176.87
   2   3   6  548.87  145.92
   2   3   6  605.71  166.11
  -3  -3  -6   16.67   20.77
  -3   3  -6    7.02   22.79
  -3  -3  -6    5.50   15.74
  -3   3  -6    3.84   23.31
  -3  -3  -6   -3.15   12.08
   3   3   6    1.23   25.90
   3  -3   6   10.35   13.75
   3   3   6  -14.36   42.00
   3   3   6    7.10    8.90
  -3   4  -6  399.00  105.78
  -3   4  -6  337.73  120.80
   3  -4   6  518.82  104.62
  -2   4  -6 1473.58  376.89
  -2   4  -6 1393.17  322.63
  -2   4  -6 1453.62  337.84
   2  -4   6 1449.27  337.80
   2  -4   6  881.08  351.93
   1  -4  -6  544.13  118.13
  -1   4  -6  322.43  141.34
  -1   4  -6  507.82  121.61
  -1   4  -6  463.01  114.27
  -1   4   6  535.10  116.80
  -1   4   6  481.67  133.53
   4   1   6  381.98  111.12
   1  -4   6  646.34  120.99
   1  -4   6  524.02  125.74
  -4   0  -6   18.40   15.06
   0   4  -6   25.87   15.23
  -4   0  -6   11.81   19.11
   0   4  -6    3.15   27.54
   0  -4  -6    4.91   20.35
   0   4   6   22.76   34.85
   0  -4   6   30.09   18.98
   0   4   6   22.78   20.94
   0  -4   6   25.13   33.84
   4   0   6    4.63   11.60
  -4   1  -6  545.28  117.17
  -1  -4  -6  592.00  112.19
  -1  -4  -6  436.38  105.12
  -1  -4  -6  389.99  112.14
   1   4   6  445.03  130.98
   1   4   6  223.93  120.28
   1   4   6  477.68  106.58
  -2  -4  -6 1427.74  334.84
  -2  -4  -6 1510.08  369.63
  -2  -4  -6 1627.03  375.64
   2   4   6 1498.95  345.49
   2   4   6 1446.22  344.72
   2   4   6 1360.23  386.46
   2   4   6 1388.74  368.30
  -4   3  -6  457.52  100.15
  -3  -4  -6  392.34  113.09
  -4   3  -6  518.38  124.65
  -3  -4  -6  381.85  106.63
   3   4   6  446.12  111.04
   3   4   6  335.58  127.99
  -4   4  -6  233.16   54.25
  -4   4  -6  266.76   63.80
  -4   4  -6  248.69   74.72
  -4  -4  -6   -2.80   63.02
   4   4   6  208.50   68.12
   4  -4   6  287.46   54.06
  -4   5  -6  502.08  133.05
  -4   5  -6  358.83  134.89
  -4   5  -6  465.02  119.42
  -4   5  -6  524.47  155.40
   4  -5   6  595.25  132.25
  -3   5  -6 1286.31  417.73
  -3   5  -6 1925.48  373.94
   3  -5   6 1620.63  376.13
   2  -5  -6  627.85  164.46
  -2   5  -6  428.58  182.83
  -2   5  -6  675.82  153.12
   2  -5   6  688.58  152.86
   2  -5   6  622.60  162.84
  -2   5   6  600.25  185.35
  -1   5  -6  522.35  166.59
  -1   5  -6  746.69  151.23
  -1   5  -6  475.90  142.97
   1  -5   6  670.76  157.48
   1  -5   6  758.06  145.93
   0   5  -6  -10.09   35.68
   0   5  -6    5.17   33.66
   0   5  -6   -8.93   50.69
   0   5  -6   47.25   18.10
   0  -5   6   -5.64   44.25
   0  -5   6  -11.30   27.60
   1   5  -6   -1.83  110.60
   5  -1   6  801.77  108.77
  -2  -5  -6  766.07  185.99
   2   5   6  685.60  182.13
  -3  -5  -6 1985.55  431.41
   5  -3   6 1586.88  377.53
  -4  -5  -6  645.48  150.25
  -5   4  -6  569.93  152.08
  -5   4  -6  561.06  140.43
   4   5   6  670.62  173.19
   5  -4   6  661.97  136.60
  -5   5  -6   15.59   38.61
  -5   5  -6   37.95   26.18
  -5   5  -6    1.43   45.94
   5  -5   6   12.70   19.31
  -5   6  -6   18.90   28.96
  -5   6  -6   25.70   42.91
   5  -6   6   44.59   25.00
  -4   6  -6  779.98  179.73
  -4   6  -6  861.58  197.94
   4  -6   6  762.53  180.79
  -3   6  -6  191.30   49.00
  -3   6  -6  207.52   55.14
  -3   6  -6  166.44   58.31
   3  -6   6  175.13   58.04
   3  -6   6  269.55   50.62
   3  -6   6  197.88   61.84
   2  -6  -6  871.78  254.99
  -2   6  -6  941.46  233.82
  -2   6  -6  748.28  240.34
   2  -6   6 1283.55  256.73
  -2   6   6 1115.83  244.66
  -2   6   6 1044.15  289.16
   1  -6  -6  -23.89   34.84
  -1   6   6    3.31   30.32
  -1   6   6   -7.35   51.56
   0  -6  -6  128.90   48.18
   0   6   6  135.97   43.38
   0   6   6   98.47   68.92
  -1  -6  -6    2.03   39.97
   1   6   6   19.59   62.23
  -1  -6   6  -21.33   32.24
   1   6   6   -8.04   33.76
  -2  -6  -6 1242.13  295.11
  -2  -6  -6 1085.14  265.50
   2   6   6 1159.75  274.24
   2   6   6 1227.55  302.92
  -3  -6  -6  189.46   56.52
  -3  -6  -6  173.24   54.86
   3   6   6  213.95   83.83
   3   6   6  250.36   68.69
  -4  -6  -6  708.40  174.79
  -6   4  -6  536.31  181.56
   4   6   6  631.74  207.76
   4   6   6  736.27  184.29
  -6   5  -6   -7.95   39.86
  -6   5  -6    9.84   29.90
  -5  -6  -6   -4.01   45.96
   5   6   6   23.82   57.23
   6  -5   6  -16.57   25.09
  -6   6  -6    1.84   60.35
  -6   6  -6   40.97   31.19
  -6   6  -6    4.22   44.79
   6  -6   6   32.99   25.37
  -6   7  -6   57.28   66.50
  -6   7  -6  -24.12   33.61
  -6   7  -6   28.80   48.29
   6  -7   6    2.34   26.98
  -5   7  -6   27.62   45.31
  -5   7  -6   55.48   29.46
  -5   7  -6   29.27   68.02
   5  -7   6   60.29   28.55
   5  -7   6   74.43   44.81
  -4   7  -6   87.93   72.43
  -4   7  -6   78.21   44.64
  -4   7  -6   67.12   29.87
  -4   7  -6  101.78   42.17
   4  -7   6   55.76   45.62
   4  -7   6   70.47   31.51
  -3   7  -6  253.66   80.61
  -3   7  -6  235.38   68.06
  -3   7  -6  291.55   77.30
   3  -7  -6  278.16   82.71
  -3   7  -6  116.99  112.97
  -3   7   6  515.71  100.44
   3  -7   6  215.26   69.64
   3  -7   6  120.51   94.36
   3  -7   6  212.84   82.16
  -2   7  -6  185.72   48.27
   2  -7  -6  172.66   63.07
  -2   7  -6  179.17   82.45
  -2   7  -6  138.77   60.33
  -2   7  -6  190.10   58.44
   2  -7   6  218.05   65.62
  -2   7   6  126.84   80.67
   2  -7   6  201.78   56.57
   2  -7   6  249.74   69.20
  -2   7   6  213.89   59.01
  -1   7  -6   89.11   62.29
   1  -7  -6   40.46   41.73
  -1   7  -6   58.38   42.40
  -1   7  -6   39.70   22.75
  -1   7  -6  163.15   40.10
   1  -7   6   61.22   34.23
   1  -7   6   -2.35   54.33
  -1   7   6   61.05   37.34
  -1   7   6   43.72   63.55
   0   7  -6   20.27   67.80
   0  -7  -6    6.57   41.88
   0   7  -6   13.70   19.71
   0   7  -6   -2.28   46.47
   0  -7   6  -19.99   36.21
   0   7   6  -18.00   38.41
   0   7   6   31.66   66.25
   1   7  -6   24.28   56.03
   1   7  -6   -1.77   27.32
  -1  -7  -6   60.96   48.31
   1   7  -6   31.93   72.22
   1   7   6   51.53   41.69
  -1  -7   6   72.57   43.88
   1   7   6   80.32   75.06
  -2  -7  -6  121.60   78.36
  -2  -7  -6  301.11   63.93
   2   7   6  271.76   69.77
   2   7   6  120.50   89.64
  -3  -7  -6  434.20   93.20
  -3  -7  -6  383.60   94.28
   3   7   6  317.95  117.11
   3   7   6  405.99  103.75
  -4  -7  -6  193.71   56.32
   4   7   6   96.41   90.56
   4   7   6  122.20   65.04
  -5  -7  -6   43.43   50.22
   5   7   6   45.38   87.38
   5   7   6    9.03   61.40
  -7   7  -6  237.82   84.87
  -7   8  -6   95.26   86.70
  -7   8  -6   21.06   63.39
  -6   8  -6   81.74   41.36
  -6   8  -6  -18.58   55.86
  -6   8  -6   66.86   85.25
   6  -8   6  107.39   35.62
  -5   8  -6   32.95   34.81
  -5   8  -6    2.09   49.33
  -5   8  -6   32.97   45.95
  -5   8  -6   76.72   82.78
   5  -8   6   80.30   31.11
   5  -8   6   76.26   49.02
  -4   8  -6   38.94   25.71
  -4   8  -6   83.41   42.36
  -4   8  -6   -5.56   41.97
  -4   8  -6   -4.36   78.47
   4  -8   6   27.31   26.90
   4  -8   6   11.03   46.08
  -3   8  -6   36.68   42.01
  -3   8  -6   48.72   24.42
   3  -8  -6   46.85   50.08
  -3   8  -6    6.27   73.28
  -3   8  -6  -11.95   41.43
   3  -8   6   51.92   43.05
  -3   8   6  -30.76   49.55
   3  -8   6   10.82   24.90
   3  -8   6   24.14   47.94
   2  -8  -6  180.49   65.30
  -2   8  -6  180.66   47.88
  -2   8  -6  166.48   60.71
  -2   8  -6  309.17   62.51
  -2   8  -6  170.49   86.50
   2  -8   6  179.92   58.60
   2  -8   6  145.77   73.63
   2  -8   6  181.57   50.34
   2  -8   6  176.98   67.53
  -2   8   6  194.72   61.85
  -2   8   6  189.81   88.08
  -1   8  -6  -24.95   71.95
   1  -8  -6   17.20   47.65
  -1   8  -6    3.77   43.72
  -1   8  -6 -110.01   46.74
  -1   8  -6    3.86   18.28
   1  -8   6  -14.06   56.59
  -1   8   6   62.98   41.11
   1  -8   6   30.37   59.88
  -1   8   6  -10.32   80.22
   1  -8   6    5.46   39.75
   0   8  -6   96.69   71.90
   0  -8  -6  268.79   70.20
   0   8  -6  176.70   74.67
   0   8  -6  176.15   46.66
   0   8  -6   47.30   98.65
   0   8   6   90.95  100.11
   0  -8   6  228.16   60.47
   0   8   6  253.92   60.77
   0  -8   6  166.15   90.82
   1   8  -6  -98.92   84.20
   1   8  -6  -24.59   59.77
  -1  -8  -6   34.27   61.91
   1   8  -6   -5.27   25.69
   1   8   6  -47.11   90.45
  -1  -8   6   11.44   43.04
   1   8   6  -15.60   50.02
  -2  -8  -6  157.31   59.89
  -2  -8  -6  171.15   83.86
   2   8  -6  112.37   76.51
   2   8   6  217.90   68.64
   2   8   6  111.64   95.58
  -3  -8  -6   31.13   45.75
   3   8   6   63.50   83.63
   3   8   6   20.11   62.89
  -4  -8  -6   40.48   49.70
   4   8   6   25.25   67.03
   4   8   6   18.60   89.43
  -5  -8  -6  127.42   60.64
   5   8   6  104.71   99.77
   5   8   6   61.38   72.32
   6   8   6   85.51   75.93
  -7   9  -6  861.77  197.71
  -7   9  -6  423.07  170.48
  -6   9  -6  576.36  154.62
  -6   9  -6  347.81  107.72
  -6   9  -6  393.40  123.63
   6  -9   6  444.83  104.33
  -5   9  -6   91.30   56.54
  -5   9  -6   92.37   54.68
  -5   9  -6   51.08  103.71
  -5   9  -6   91.96   41.82
   5  -9   6  122.12   38.26
   5  -9   6   63.03   64.59
   4  -9  -6   45.64   63.17
  -4   9  -6   50.54   46.47
  -4   9  -6    6.24   29.84
  -4   9  -6  102.84   87.55
  -4   9  -6   40.05   47.03
   4  -9   6   39.36   53.45
   4  -9   6   10.10   53.51
   4  -9   6   63.26   30.55
  -3   9  -6   29.35   45.17
  -3   9  -6    3.49   25.43
  -3   9  -6   35.83   44.42
  -3   9  -6  -35.98   83.32
   3  -9  -6   41.86   60.66
  -3   9   6  -27.51   51.33
   3  -9   6   23.49   26.68
   3  -9   6  -12.73   55.91
   3  -9   6  -48.93   49.62
   2  -9  -6   63.55   60.58
  -2   9  -6  144.01   52.50
  -2   9  -6  167.34   80.97
  -2   9  -6   83.46   35.98
  -2   9  -6  176.01   55.28
   2  -9   6  155.11   60.22
   2  -9   6   99.65   48.88
   2  -9   6  115.99   38.49
   2  -9   6  115.93   66.71
  -2   9   6   86.18   53.63
  -2   9   6   69.47   90.13
  -1   9  -6   15.27   56.05
   1  -9  -6  -16.97   55.45
  -1   9  -6  -41.89   74.12
  -1   9  -6    2.07   47.45
  -1   9  -6   -4.13   20.68
  -1   9   6   30.59   49.31
   1  -9   6    3.13   42.51
   1  -9   6   35.19   72.86
  -1   9   6   14.74   89.99
   1  -9   6  -60.33   64.21
   0   9  -6   21.80   21.93
   0   9  -6  -48.95   52.25
   0   9  -6   89.96   81.78
   0   9  -6   29.97   62.11
   0  -9  -6  -39.15   62.94
   0  -9   6  -24.24   81.95
   0   9   6   38.44   90.86
   0   9   6  -14.35   48.42
   0  -9   6   36.05   47.53
  -1  -9  -6   49.92   68.59
   1   9  -6  -22.14   92.98
   1   9  -6   51.46   73.54
  -1  -9  -6  -25.82   48.27
   1   9  -6   -6.96   27.11
  -1  -9   6   45.63   52.41
   1   9   6   67.65   91.09
   1   9   6   33.40   54.93
  -2  -9  -6  107.17   56.56
  -2  -9  -6   64.62   81.61
   2   9  -6  189.66   81.26
   2   9  -6   86.81   44.16
  -2  -9   6  120.61   58.80
   2   9   6  183.20   70.13
   2   9   6  114.15   96.25
  -3  -9  -6  127.27   86.00
  -3  -9  -6    7.84   56.34
   3   9   6  -38.52   96.15
   3   9   6  -32.35   71.26
  -4  -9  -6   17.75   58.70
   4   9   6  -30.65  106.45
   4   9   6   67.60   75.92
  -5  -9  -6  -25.54   61.87
   5   9   6   45.30  110.49
   5   9   6    3.77   78.86
   6   9   6  339.69  126.26
  -8  10  -6  520.02  162.57
  -8  10  -6  305.15  126.80
  -7  10  -6  160.38  122.52
  -7  10  -6   60.85   75.90
  -6  10  -6  251.09   60.63
  -6  10  -6  131.00   78.16
  -6  10  -6  220.57  128.46
   6 -10   6  109.42   80.84
   6 -10   6  190.18   56.64
  -5  10  -6  592.48  142.93
  -5  10  -6  458.16  141.78
  -5  10  -6 1074.75  192.90
  -5  10  -6  530.33  154.74
   5 -10   6  480.33  142.43
   5 -10   6  486.17  156.49
   5 -10   6  585.02  174.53
  -4  10  -6   54.97   52.64
  -4  10  -6   46.33   52.79
   4 -10  -6    3.87   62.88
  -4  10  -6  111.42  100.22
  -4  10  -6  -17.78   33.35
   4 -10   6   57.46   55.90
   4 -10   6   22.88   31.49
  -4  10   6  132.92   60.22
   4 -10   6   14.30   59.70
  -3  10  -6  565.88  148.81
  -3  10  -6  639.64  147.76
  -3  10  -6  687.80  189.88
  -3  10  -6  356.93  158.38
   3 -10  -6  734.21  162.11
  -3  10   6  739.97  149.99
   3 -10   6  699.20  177.88
   3 -10   6  573.77  158.24
   3 -10   6  585.20  155.37
   3 -10   6  548.78  162.16
  -2  10  -6   80.98   55.27
  -2  10  -6  137.10   94.67
  -2  10  -6  138.13   59.48
   2 -10  -6   77.51   65.83
  -2  10  -6   86.21   31.94
   2 -10   6  117.42   68.54
  -2  10   6   57.42   59.18
   2 -10   6   50.82   37.65
   2 -10   6  173.00   53.58
   2 -10   6  168.21   74.94
  -2  10   6   88.88  102.86
  -1  10  -6   47.97   59.46
  -1  10  -6   59.60   26.27
  -1  10  -6  101.15   65.79
  -1  10  -6   65.37   84.01
   1 -10  -6  142.65   68.35
  -1  10   6  103.80   57.74
   1 -10   6   18.19   83.45
  -1  10   6   69.35  107.25
   1 -10   6   60.60   51.87
   1 -10   6   45.02   76.44
   0  10  -6  459.96  105.44
   0  10  -6  452.91  151.68
   0  10  -6  483.71  130.03
   0 -10  -6  569.93  133.11
   0  10  -6  359.67  136.53
   0 -10   6  380.43  172.73
   0  10   6  355.08  116.37
   0  10   6  611.00  160.28
   0 -10   6  390.81  120.93
   1  10  -6   58.22  102.81
   1  10  -6   64.80   83.22
   1  10  -6   84.23   31.31
  -1 -10  -6  195.79   86.80
  -1 -10  -6   84.42   64.66
   1  10   6    8.79   66.58
  -1 -10   6   58.88   61.28
   1  10   6  -65.98  113.39
   2  10  -6   55.11   86.47
  -2 -10  -6   88.68   61.81
   2  10  -6  172.29  109.33
   2  10  -6   97.48   42.41
  -2 -10  -6   73.45   93.97
  -2 -10   6  141.14   62.93
   2  10   6   94.78   75.09
   2  10   6  111.06  112.63
  -3 -10  -6  646.41  170.47
  -3 -10  -6  724.30  209.80
   3  10   6  864.10  184.18
   3  10   6  622.48  199.40
  -4 -10  -6  -59.10   64.69
   4  10   6   83.03   87.13
   4  10   6   -3.74  113.81
  -5 -10  -6  766.65  169.59
   5  10   6  667.79  203.17
   5  10   6  625.80  180.38
  -6 -10  -6  168.73   85.29
   6  10   6  149.81  108.75
  -8  11  -6  -98.75  134.38
  -8  11  -6   13.41   82.63
  -7  11  -6  224.39   90.90
  -7  11  -6  134.03  143.24
  -6  11  -6   92.02   66.60
  -6  11  -6  319.25  131.08
  -6  11  -6   70.74   71.10
   6 -11   6   23.40   80.46
   6 -11   6   78.69   45.25
  -5  11  -6  101.52  118.70
  -5  11  -6   11.77   63.55
  -5  11  -6   56.07   60.31
  -5  11  -6   17.23   38.71
   5 -11   6  -27.80   71.82
   5 -11   6  -13.52   66.95
   5 -11   6   76.95   37.38
  -4  11  -6  159.86   67.45
  -4  11  -6  254.31   70.00
   4 -11  -6  199.32   87.65
  -4  11  -6  151.95  126.96
  -4  11  -6  150.82   53.95
   4 -11   6  181.40   78.67
   4 -11   6  131.84   81.36
  -4  11   6  201.38   78.98
   4 -11   6  154.77   55.08
  -4  11   6  161.94  121.50
  -3  11  -6  160.87  118.70
  -3  11  -6  109.96   70.11
   3 -11  -6  155.13   86.17
  -3  11  -6  157.48   52.02
  -3  11  -6   84.95   66.12
   3 -11   6  249.52   53.52
  -3  11   6  216.23   74.41
   3 -11   6  185.51   85.40
   3 -11   6  227.66   75.91
   3 -11   6  200.35   77.43
  -2  11  -6   72.30   52.25
  -2  11  -6   94.54  101.55
  -2  11  -6   11.38   62.30
  -2  11  -6   15.67   27.20
   2 -11  -6  -94.82   70.47
  -2  11   6   26.85   61.57
   2 -11   6    9.76   68.87
   2 -11   6   -2.09   31.46
   2 -11   6   42.83   54.75
   2 -11   6   28.90   80.62
   1 -11  -6 1769.82  346.20
  -1  11  -6 1138.67  340.65
  -1  11  -6 1297.92  374.61
   1 -11   6 1479.61  340.31
   1 -11   6 1317.55  369.18
  -1  11   6 1645.22  399.37
   1 -11   6 1105.13  456.42
  -1  11   6 1255.66  319.73
   0  11  -6  -14.94   79.72
   0 -11  -6  -75.58   84.30
   0  11  -6  -13.21   99.09
   0 -11   6    4.49   61.55
   0  11   6    3.10   67.28
   0 -11   6    4.64  101.06
   0  11   6  -74.15  125.36
   1  11  -6 1305.59  418.75
   1  11  -6 1201.75  384.18
  -1 -11  -6 2049.57  395.34
  -1 -11  -6 1501.93  370.28
   1  11   6 1760.41  359.42
  -1 -11   6 1442.25  371.79
   1  11   6 1668.47  411.14
   2  11  -6  105.97  109.26
  -2 -11  -6  -34.29  109.49
   2  11  -6   51.23   92.42
  -2 -11  -6    9.58   63.78
   2  11   6  -44.23   81.70
   2  11   6   -3.63  117.39
  -2 -11   6  103.96   73.48
  -3 -11  -6  297.09  133.90
  -3 -11  -6   35.45   79.43
   3  11  -6  234.58  106.65
   3  11   6 -325.61  111.16
  -4 -11  -6  158.56   79.19
   4  11   6   17.45  113.62
  -5 -11  -6  -96.21   81.13
   5  11   6  -75.64  136.75
   5  11   6  -83.87  104.58
  -6 -11  -6   12.97   82.96
   6  11   6   91.75  103.42
  -7  12  -6  -62.80  149.89
  -6  12  -6    3.58   72.17
  -6  12  -6   -7.94  144.07
   6 -12   6   42.73   84.61
  -5  12  -6  -60.73   69.09
  -5  12  -6  -34.03  134.51
   5 -12   6   18.91   81.08
  -4  12  -6  233.47   77.08
   4 -12  -6  186.69  100.08
  -4  12  -6  107.68  135.46
   4 -12   6  132.96   90.81
  -4  12   6  216.19   85.17
  -3  12  -6  -30.07   66.21
   3 -12  -6   17.27   84.52
  -3  12  -6  -16.98  120.86
   3 -12   6   74.60   87.19
  -3  12   6  -79.11   73.64
   3 -12   6  -26.94   68.19
   2 -12  -6 1115.23  197.50
  -2  12  -6  725.79  183.28
  -2  12  -6  760.58  225.29
  -2  12   6  667.68  179.01
   2 -12   6  626.76  204.45
   2 -12   6  563.43  192.09
  -1  12  -6   -7.25   82.51
   1 -12  -6  -84.29   89.52
  -1  12  -6   13.17  106.88
  -1  12   6   -4.12  137.90
   1 -12   6 -101.04  110.15
   1 -12   6   46.32   65.27
  -1  12   6   57.32   70.80
   0  12  -6 1111.62  280.80
   0 -12  -6 1072.48  254.96
   0  12  -6  671.84  254.69
   0 -12  -6 1196.99  262.98
   0 -12   6  874.19  245.31
   0 -12   6  983.40  280.78
   0  12   6  840.72  235.06
   0  12   6 1031.74  294.48
  -1 -12  -6   -4.95  110.54
  -1 -12  -6   54.13   76.89
   1  12  -6  -48.15  126.99
   1  12  -6   -4.67   98.73
   1  12   6 -127.67   86.71
  -1 -12   6  -43.41   71.24
   1  12   6 -380.36  143.80
   2  12  -6  669.50  235.17
  -2 -12  -6  625.27  232.61
   2  12  -6 1089.39  219.93
  -2 -12  -6  518.52  195.92
   2  12   6 1176.55  204.74
   2  12   6  619.08  234.18
  -2 -12   6  391.65  195.58
  -3 -12  -6  131.15   76.08
   3  12  -6  -27.36  108.89
  -3 -12  -6  156.23  134.41
   3  12   6 -153.37  104.25
   3  12   6 -177.47  140.86
  -4 -12  -6  230.72   93.79
  -4 -12  -6  359.36  154.72
   4  12   6  212.97  116.18
   4  12   6 -162.36  155.65
   5  12   6   -5.11  116.52
  -7  13  -6 1261.78  390.19
  -6  13  -6  472.55  117.75
  -6  13  -6  537.11  196.76
   6 -13   6   60.57  149.59
  -5  13  -6   85.11   77.88
   5 -13  -6  136.27   98.44
  -5  13  -6   75.86  156.59
  -5  13   6  116.33  155.02
   5 -13   6   16.62   92.72
   4 -13  -6  613.81  105.31
  -4  13  -6 -217.44  156.46
  -4  13  -6   82.61   87.45
  -4  13   6  654.82   93.52
   4 -13   6   40.00  100.30
   4 -13   6   48.01   98.64
  -4  13   6  253.03  166.81
  -3  13  -6  214.68  138.23
  -3  13  -6  199.60   83.45
   3 -13   6  167.04  101.33
  -3  13   6   -4.56  157.47
   3 -13   6  148.18   88.84
  -2  13  -6  -57.53   81.62
  -2  13  -6 -202.38  124.90
   2 -13   6 -187.78   78.06
   2 -13   6   -4.54  107.82
  -1  13  -6  407.00  165.07
  -1  13  -6  509.41  136.89
   1 -13   6  417.36  163.98
   1 -13   6  330.31  131.17
   0  13  -6 -114.53  101.89
   0  13  -6   84.45  129.53
   0 -13   6 -120.14  138.43
   0 -13   6 -210.99   83.46
   1  13  -6  539.32  187.12
   1  13  -6  786.89  168.93
  -1 -13   6  328.51  145.70
   2  13  -6  123.79  128.57
  -2 -13   6  270.58   87.51
  -4 -13  -6  -13.49   93.83
   4  13   6   -4.95  165.01
  -5 -13  -6  -57.97   97.49
   5  13   6  115.68  165.97
  -6 -13  -6  107.04  111.23
   6  13   6   41.02  149.24
   5 -14  -6  -89.91  115.25
  -5  14   6    5.17  166.57
   4 -14  -6  234.84  114.63
  -4  14   6  408.19  171.33
  -4  14   6 -105.91   88.84
   3 -14  -6  372.06  202.76
  -3  14   6  796.83  188.23
  -3  14   6 1594.28  261.06
   2 -14  -6 -172.94  108.52
  -2  14   6  -66.09   94.64
   1 -14  -6    5.41  116.22
  -1  14   6 -105.98   97.16
   0 -14  -6   90.26  107.28
   0 -14  -6  174.23  126.34
   0  14   6 -240.35  171.66
   0  14   6  -53.46  110.12
  -1 -14  -6  -62.51  138.93
  -1 -14  -6   48.11  112.74
   1  14   6  -23.55  111.68
   1  14   6 -330.25  174.39
  -2 -14  -6  -62.75  107.85
  -2 -14  -6  332.58  165.43
   2  14  -6   -6.13  123.88
   2  14   6 -393.90  124.71
  -2 -14   6 -357.45   96.42
  -3 -14  -6  -79.93  138.35
  -3 -14  -6   66.23  202.10
   3  14   6  273.05  164.11
  -3 -14   6  308.89  140.86
  -4 -14  -6    7.80  187.51
  -4 -14  -6   22.73  105.91
   4  14   6  139.77  126.19
   4  14   6    5.43  174.84
  -5 -14  -6  455.31  188.41
  -5 -14  -6  143.75  105.55
   5  14   6    6.12  139.80
   5  14   6    5.72  176.67
  -6 -14  -6  -58.48  106.10
   6  14   6   63.68  138.35
   6  14   6   -6.02  175.02
  -6  15  -6   17.47   90.45
  -6  15  -6    5.32  197.02
   6 -15   6  -27.30  119.56
   5 -15  -6  -13.24  119.67
  -5  15  -6   20.13   85.02
  -5  15  -6  287.01  180.42
   5 -15   6  -15.03  102.77
  -5  15   6   40.06  192.80
   5 -15   6  112.29  114.31
  -4  15  -6  243.69  171.20
  -4  15  -6  -16.01   87.22
   4 -15  -6  284.96  124.06
  -4  15   6 -463.86  192.36
   4 -15   6  337.68  110.50
   4 -15   6   -4.91  112.62
  -4  15   6   24.22   97.82
  -3  15  -6   41.79   93.12
   3 -15  -6    6.05  118.76
  -3  15  -6 -192.41  163.98
   3 -15   6   -5.14  116.24
  -3  15   6  177.42  194.48
   3 -15   6  -19.77  105.94
  -3  15   6  -74.38   96.68
  -2  15  -6   -4.39  152.17
  -2  15  -6   84.57  101.13
   2 -15  -6  100.46  120.08
   2 -15   6  -16.78  134.01
   2 -15   6   78.00  103.87
  -2  15   6 -175.16   99.97
  -1  15  -6 -208.51  148.41
  -1  15  -6   24.51  109.00
   1 -15  -6  152.74  136.07
   1 -15   6  -37.18  147.04
   1 -15   6  -33.63   99.89
  -1  15   6  -62.21  110.07
   0  15  -6 -218.61  153.46
   0  15  -6   60.66  122.70
   0 -15  -6   23.35  128.00
   0 -15  -6  358.04  142.57
   0 -15   6   48.09   89.55
   0  15   6 -259.89  116.54
   0 -15   6   34.57  164.22
   0  15   6 -123.16  190.31
  -1 -15  -6  209.90  160.48
  -1 -15  -6  101.09  119.87
   1  15  -6 -143.41  157.79
   1  15  -6 -110.16  132.40
  -1 -15   6   94.43  102.85
   1  15   6  -15.75  123.23
   1  15   6    5.31  181.02
  -1 -15   6   -7.59  177.48
  -2 -15  -6  -15.10  170.28
  -2 -15  -6  140.39  127.97
   2  15  -6 -150.52  154.18
   2  15  -6  -86.39  146.45
   2  15   6   83.92  180.52
   2  15   6   22.42  127.88
  -2 -15   6   -7.64  100.36
  -3 -15  -6   56.52  192.04
  -3 -15  -6   -8.16  113.53
   3  15  -6  -42.90  156.01
  -3 -15   6   15.90   92.23
   3  15   6    5.96  129.43
   3  15   6   50.72  180.14
  -4 -15  -6  -67.36  120.03
  -4 -15  -6  240.02  196.91
   4  15   6    6.32  146.98
   4  15   6  239.36  191.31
  -5 -15  -6  258.71  196.97
  -5 -15  -6  -26.72  118.80
   5  15   6  506.98  149.94
   5  15   6    6.23  188.74
  -6 -15  -6   -9.14  116.95
  -6 -15  -6   -9.17  207.54
   6  15   6    6.52  189.62
   6  15   6  407.25  155.13
  -6  16  -6   51.67   95.06
   6 -16   6   32.91  135.53
   6 -16   6    5.93  121.71
  -5  16  -6 -179.13  114.25
   5 -16  -6   21.99  149.86
   5 -16   6 -386.46  137.02
  -5  16   6  -65.87  108.59
   5 -16   6  -60.55  135.76
  -5  16   6    6.24  237.69
   4 -16  -6  -14.11  138.61
  -4  16  -6 -214.30  121.62
   4 -16   6  -45.54  130.19
  -4  16   6 -135.33  206.23
   4 -16   6  -27.16  133.45
  -4  16   6  -10.69  108.56
   3 -16  -6   20.40  142.25
  -3  16  -6   29.90  168.20
  -3  16  -6  -69.80  103.56
  -3  16   6    5.17  108.51
   3 -16   6   56.84  130.03
  -3  16   6    6.11  215.09
   3 -16   6  -37.12  112.62
   2 -16  -6   46.65  139.87
  -2  16  -6   34.63  107.79
  -2  16  -6  -93.48  167.84
   2 -16   6  -22.29  111.93
  -2  16   6 -392.24  221.37
   2 -16   6   -6.17  141.67
  -2  16   6 -360.38  112.40
   1 -16  -6 -351.19  150.19
  -1  16  -6   21.69  123.74
  -1  16  -6  174.78  165.12
  -1  16   6  -64.15  114.60
   1 -16   6  -60.49  106.90
   1 -16   6   20.35  160.06
   0  16  -6    6.00  139.18
   0 -16  -6  130.79  137.01
   0 -16  -6  -94.67  164.35
   0  16  -6  139.73  172.47
   0 -16   6    7.53  177.59
   0 -16   6   77.18  106.97
   0  16   6   72.59  124.47
  -1 -16  -6    8.71  129.79
  -1 -16  -6   23.40  177.03
   1  16  -6  -13.39  154.25
   1  16  -6 -195.03  174.31
  -1 -16   6    8.04  111.79
   1  16   6   63.09  193.58
   1  16   6 -117.12  130.12
  -1 -16   6   49.52  194.49
  -2 -16  -6 -224.32  186.00
  -2 -16  -6   -8.87  130.35
   2  16  -6   -7.23  160.99
   2  16  -6 -214.83  175.15
   2  16   6  -92.77  142.38
   2  16   6 -146.18  200.30
  -2 -16   6  -17.61  209.95
  -2 -16   6   50.15  111.50
  -3 -16  -6   -8.88  199.95
  -3 -16  -6  -27.44  128.60
   3  16  -6   85.14  171.98
   3  16   6   58.89  145.82
   3  16   6   12.42  196.40
  -3 -16   6   -8.62  109.41
  -4 -16  -6   84.11  212.81
  -4 -16  -6 -234.01  142.26
   4  16   6 -216.20  204.84
   4  16   6 -207.50  154.66
  -5 -16  -6 -167.61  126.00
  -5 -16  -6 -213.80  222.58
   5  16   6 -174.18  158.82
   5  16   6  244.21  216.09
  -6 -16  -6  -50.19  134.11
  -6 -16  -6  350.51  230.76
   6  16   6    7.51  163.47
   6  16   6   -7.09  208.79
   6 -17   6  -90.83  148.69
  -5  17  -6   39.05  104.99
  -5  17  -6  233.54  210.85
   5 -17  -6  -65.13  159.97
   5 -17   6   -8.80  141.51
  -5  17   6  157.88  234.14
  -5  17   6    6.03  116.66
   5 -17   6  -12.08  124.47
   4 -17  -6   79.02  153.17
  -4  17  -6  -24.50  104.03
  -4  17  -6    5.73  199.96
  -4  17   6 -176.04  245.32
   4 -17   6    8.59  130.26
   4 -17   6   -6.00  140.88
  -4  17   6  141.95  121.40
   3 -17  -6   15.30  155.65
  -3  17  -6  -46.17  114.48
  -3  17  -6 -206.09  192.76
  -3  17   6   -6.67  219.87
   3 -17   6  -43.88  142.86
   3 -17   6  117.68  131.03
  -3  17   6   17.24  117.95
   2 -17  -6  247.97  155.78
   2 -17  -6   10.02  157.43
  -2  17  -6    5.47  121.25
  -2  17  -6  154.94  188.05
   2 -17   6  -13.64  158.71
  -2  17   6   41.03  125.81
  -2  17   6   71.97  227.11
   2 -17   6 -377.92  127.74
  -1  17  -6   45.63  184.10
  -1  17  -6   29.86  133.51
   1 -17  -6  -77.53  166.90
   1 -17   6   17.08  130.54
  -1  17   6   -5.96  125.46
   1 -17   6  -37.32  166.08
   0  17  -6    6.56  148.90
   0 -17  -6  -32.55  178.57
   0  17  -6  -76.74  182.55
   0 -17   6   -8.17  196.55
   0 -17   6  -51.50  128.06
   0  17   6   56.34  135.25
  -1 -17  -6    8.67  184.73
   1  17  -6  -14.46  164.91
  -1 -17  -6   -9.85  141.32
   1  17  -6 -121.41  191.18
   1  17   6    6.50  145.01
  -1 -17   6 -188.65  136.81
  -1 -17   6   17.91  205.57
   1  17   6    6.27  209.07
  -2 -17  -6 -358.82  216.10
   2  17  -6   18.89  187.32
   2  17  -6  157.05  184.20
  -2 -17  -6   80.02  149.19
   2  17   6   32.59  217.29
  -2 -17   6    9.16  127.04
  -2 -17   6  -38.46  236.38
   2  17   6    6.83  147.36
  -3 -17  -6  -30.86  153.92
  -3 -17  -6 -213.21  224.65
   3  17  -6 -117.02  186.25
   3  17   6  137.84  224.56
   3  17   6 -100.05  152.23
  -3 -17   6   40.16  241.85
  -4 -17  -6   93.76  156.30
  -4 -17  -6  498.03  241.41
   4  17   6    7.18  234.18
   4  17   6  150.04  171.15
  -5 -17  -6   10.56  238.49
  -5 -17  -6 -153.07  145.69
   5  17   6 -172.53  172.46
   5  17   6   -7.40  217.22
  -6 -17  -6  197.31  248.86
  -6 -17  -6   11.07  136.84
   6  17   6  195.78  178.57
  -5  18  -6  197.25  230.15
   5 -18  -6   27.25  342.35
   5 -18   6  157.36  336.43
   5 -18   6   33.71  279.64
  -5  18   6 1722.65  251.00
   4 -18  -6  -17.84  183.44
  -4  18  -6  167.57  215.40
  -4  18  -6   10.76  114.25
   4 -18   6    9.62  147.02
   4 -18   6   39.77  152.49
  -4  18   6 -663.73  141.67
  -4  18   6 -410.02  261.47
   3 -18  -6  101.79  175.81
   3 -18  -6  -34.51  185.54
  -3  18  -6   39.51  130.03
  -3  18  -6  525.92  213.35
   3 -18   6   13.86  156.39
  -3  18   6 -180.86  257.42
   3 -18   6   38.16  153.90
  -3  18   6  115.43  134.56
   2 -18  -6 -298.69  180.18
  -2  18  -6    6.23  194.65
  -2  18  -6    6.10  135.72
   2 -18  -6   11.15  177.64
  -2  18   6    6.54  134.09
   2 -18   6    7.48  178.38
   2 -18   6  -86.16  139.62
  -2  18   6    7.10  244.71
   1 -18  -6  366.01  194.98
  -1  18  -6    6.36  208.70
  -1  18  -6   13.14  150.35
   1 -18   6  -16.32  193.71
  -1  18   6  -79.71  149.31
   1 -18   6 -362.58  137.01
   0  18  -6   78.97  163.76
   0  18  -6   12.99  202.27
   0 -18  -6  217.66  201.22
   0  18   6  125.38  156.26
   0 -18   6   -8.94  211.30
   0 -18   6 -320.67  143.03
   1  18  -6  218.59  208.12
   1  18  -6  -31.33  179.15
  -1 -18  -6 -296.86  159.77
  -1 -18  -6  279.15  222.56
  -1 -18   6  -38.74  224.09
   1  18   6    7.27  162.95
  -1 -18   6   99.66  147.01
   1  18   6  342.01  222.52
  -2 -18  -6  -56.79  168.31
  -2 -18  -6  303.39  233.21
   2  18  -6   -8.46  185.59
   2  18  -6 -164.42  204.08
  -2 -18   6  -10.40  249.70
   2  18   6   75.28  168.17
   2  18   6 -203.55  231.61
  -2 -18   6   10.08  134.65
  -3 -18  -6   57.42  155.46
  -3 -18  -6  676.84  247.99
   3  18  -6   90.56  198.52
   3  18   6    7.86  178.87
   3  18   6  113.87  248.67
  -3 -18   6   21.84  261.11
  -4 -18  -6   47.34  162.40
  -4 -18  -6 -111.10  257.83
   4  18   6   -7.87  254.28
   4  18   6 -196.19  183.23
  -6 -18  -6  166.56  283.04
  -6 -18  -6   24.47  153.79
   6  18   6 -702.57  205.31
   5 -19  -6  -10.15  195.57
  -5  19   6  431.80  297.27
   4 -19  -6  -30.07  205.04
  -4  19  -6   23.70  127.30
  -4  19  -6  -47.07  222.32
  -4  19   6    8.10  291.10
  -4  19   6 -315.09  151.13
   4 -19   6    7.32  167.76
   4 -19   6  -32.51  161.64
   3 -19  -6  -68.12  202.31
  -3  19  -6   69.10  136.94
  -3  19  -6 -326.63  234.04
   3 -19  -6   37.52  204.49
   3 -19   6  -10.78  153.81
   3 -19   6   61.27  189.08
  -3  19   6  265.27  151.18
  -3  19   6  338.29  276.64
  -2  19  -6 -249.19  229.06
   2 -19  -6    9.65  209.51
  -2  19  -6   60.57  145.12
   2 -19  -6 -111.82  200.35
  -2  19   6   61.95  263.84
   2 -19   6   16.43  196.89
   2 -19   6   96.99  163.57
  -2  19   6 -153.36  157.65
  -1  19  -6  140.73  227.85
   1 -19  -6    9.79  217.14
   1 -19  -6   12.31  195.70
  -1  19  -6 -101.52  162.21
   1 -19   6 -237.19  144.46
  -1  19   6  -22.51  165.67
   1 -19   6    8.93  209.52
  -1  19   6 -244.26  256.12
   0  19  -6 -143.62  217.67
   0  19  -6   -7.86  174.12
   0 -19  -6  -60.86  239.06
   0 -19   6   38.78  228.54
   0  19   6  100.43  167.96
   0 -19   6  218.28  155.06
   1  19  -6  -76.50  193.58
  -1 -19  -6 -882.04  255.14
   1  19  -6 -260.67  227.88
  -1 -19  -6   12.53  180.55
  -1 -19   6   20.88  249.36
  -1 -19   6   11.08  152.86
   1  19   6   24.21  184.08
   2  19  -6  -27.56  202.09
  -2 -19  -6  -55.70  256.74
  -2 -19  -6 -524.35  202.64
   2  19  -6  426.75  226.44
  -2 -19   6   11.10  144.03
   2  19   6   16.06  283.23
   2  19   6 -225.08  182.20
  -2 -19   6  -78.63  271.62
  -3 -19  -6  -38.92  198.79
   3  19  -6  245.01  211.29
  -3 -19  -6  -92.99  280.17
  -3 -19   6   11.81  278.47
   3  19   6 -284.04  262.22
   3  19   6  293.31  198.97
  -4 -19  -6  289.64  298.59
  -4 -19  -6  -13.30  189.28
   4  19   6   77.93  280.44
   4  19   6  133.66  201.53
  -5 -19  -6  108.50  189.16
  -5 -19  -6  249.93  304.85
   5  19   6 -166.28  208.31
   5  19   6  -53.13  278.46
  -6 -19  -6 -348.65  309.98
  -6 -19  -6  176.56  175.71
   6  19   6 -479.97  226.85
   4 -20   6   -8.17  205.01
   4 -20   6  -98.14  180.11
  -3  20  -6   55.32  147.90
  -3  20  -6  114.21  257.96
   3 -20   6   33.86  188.85
   3 -20   6  -36.79  193.70
  -2  20  -6 -317.76  254.63
  -2  20  -6   67.22  170.21
   2 -20   6 -413.42  177.94
   2 -20   6    9.00  217.57
  -1  20  -6   23.91  181.62
  -1  20  -6  258.14  253.40
   1 -20   6    9.79  221.82
   1 -20   6 -228.98  170.88
   0  20  -6   -8.60  187.22
   0  20  -6   -7.89  252.90
   0 -20   6 -146.90  171.60
   0 -20   6  -31.65  246.13
   1  20  -6 -222.97  250.72
   1  20  -6 -184.55  204.59
  -1 -20   6   11.37  268.76
  -1 -20   6   12.35  170.78
   2  20  -6 -247.40  224.53
  -2 -20   6   84.76  292.19
  -2 -20   6   61.44  165.49
   0   0  -7   -2.46   11.21
   0   0  -7   27.28   21.01
   0   0   7   -4.43   23.62
   0   1  -7  255.98   55.81
  -1   0  -7  212.81   55.81
   0   1  -7  251.61   49.70
  -1   0  -7  186.50   48.51
   0  -1  -7  190.54   50.82
   0   1   7  162.00   59.19
   1   0   7  173.13   56.44
   0  -1   7  195.32   60.94
  -1   1  -7   -4.65   18.53
  -1  -1  -7   -4.41    8.44
  -1   1  -7    2.72    8.94
  -1  -1  -7   -1.08    8.47
  -1  -1  -7    7.91   17.72
   1   1   7   12.65   18.52
   1   1   7   -2.48   17.00
   1  -1   7  -13.46   18.47
  -2  -1  -7  218.66   51.69
  -2  -1  -7  215.95   50.06
  -2  -1  -7  295.84   55.70
  -1   2  -7  243.06   57.38
  -2  -1  -7  198.55   48.24
   2   1   7  202.15   50.44
   1  -2   7  168.91   58.58
   2   1   7  185.38   60.38
   2   1   7  134.70   54.97
   0  -2  -7  -14.18   11.50
  -2   0  -7    1.93   16.62
   0   2  -7  -10.57   22.68
  -2   0  -7    3.59    7.60
   0  -2   7    6.50   27.77
   0   2   7   -3.88   19.20
   2   0   7    6.00   15.80
  -2   1  -7  224.27   48.43
  -1  -2  -7  185.43   57.07
  -1  -2  -7  172.27   50.25
  -2   1  -7  205.19   56.10
  -1  -2  -7  228.74   52.34
   1   2   7  189.47   58.35
   2  -1   7  174.75   55.88
   1   2   7  240.13   64.23
   1   2   7  253.60   53.40
  -2  -2  -7   12.40    7.74
  -2  -2  -7    4.58   12.78
  -2  -2  -7    4.80   17.10
  -2   2  -7    9.25   21.51
  -2  -2  -7   -0.77   16.21
   2   2   7    2.40   27.91
   2   2   7    6.69   15.22
   2   2   7   -4.49   15.39
   2   2   7    4.70    7.94
   2  -2   7    1.83   19.36
  -3  -2  -7 2841.46  733.76
  -2   3  -7 2926.87  813.01
  -3  -2  -7 3196.32  735.98
  -2   3  -7 2810.59  705.50
  -3  -2  -7 3078.12  701.52
  -2   3  -7 3063.03  686.62
   3   2   7 2332.65  823.52
   2  -3   7 3036.40  707.70
   3   2   7 2786.10  713.52
   2  -3   7 3070.31  710.07
   2  -3   7 2959.26  726.84
   3   2   7 3118.28  664.10
  -1   3  -7  350.78   75.29
  -1   3  -7  301.36   80.75
  -3  -1  -7  338.61   72.69
  -3  -1  -7  312.91   79.09
   3   1   7  284.57   77.76
   3   1   7  272.95   70.01
   1  -3   7  243.00   83.04
   1  -3   7  299.42   80.52
   0  -3  -7 1330.37  427.03
  -3   0  -7 1864.63  400.41
   0  -3  -7 1960.90  421.92
  -3   0  -7 1558.86  432.32
   0   3  -7 1690.78  395.50
   0   3  -7 1850.35  439.13
   0   3   7 1809.44  418.82
   0  -3   7 2117.37  464.54
   3   0   7 1637.07  390.26
   0   3   7 1703.69  480.61
  -1  -3  -7  237.99   74.73
  -1  -3  -7  319.04   72.19
  -3   1  -7  285.67   78.92
  -1  -3  -7  287.73   79.98
   1   3   7  256.34   91.33
   1   3   7  361.58   82.89
   1   3   7  353.48   74.06
   3  -1   7  300.73   69.26
  -2  -3  -7 3128.02  658.79
  -2  -3  -7 2761.04  735.29
  -2  -3  -7 3042.86  707.82
   2   3   7 2946.29  727.14
   2   3   7 2827.12  768.49
   2   3   7 2713.76  674.29
   2   3   7 2792.02  641.67
  -3   3  -7    0.67   14.97
  -3   3  -7    5.98   25.55
  -3  -3  -7    5.06   14.04
  -3  -3  -7    0.77   18.23
  -3  -3  -7  -10.50   22.59
   3   3   7   -4.84   10.23
   3   3   7    5.41   47.13
   3  -3   7   -6.93   14.52
   3   3   7   16.01   27.36
  -4  -3  -7 1526.69  337.08
  -3   4  -7 1206.42  352.73
  -3   4  -7 1303.88  323.58
  -3   4  -7 1393.96  324.49
  -3   4  -7 1371.50  295.81
   4   3   7  906.08  331.77
   3  -4   7 1396.66  319.52
  -2   4  -7   29.59   40.72
  -4  -2  -7   63.79   23.94
  -2   4  -7   51.66   24.76
  -4  -2  -7   51.56   27.38
   2  -4   7   50.62   23.68
   2  -4   7   83.13   30.26
   4   2   7   67.71   20.46
  -4  -1  -7  132.10   42.00
  -1   4  -7  159.06   41.21
   1  -4  -7  115.60   41.99
  -1   4  -7   -1.49   48.47
  -4  -1  -7  135.85   38.20
  -1   4  -7  164.82   59.13
   1  -4   7   -1.41   49.57
  -1   4   7   71.17   43.15
   1  -4   7  175.60   43.10
   4   1   7  250.81   35.44
   0  -4  -7   -0.85   13.23
   0  -4  -7   -2.57   22.39
  -4   0  -7   -5.69   21.92
   0   4  -7   14.18   33.06
   0   4   7   -7.27   24.62
   0  -4   7   -9.58   40.61
   0   4   7   -6.51   39.08
  -1  -4  -7  164.01   34.92
  -1  -4  -7  164.21   43.33
  -1  -4  -7  162.77   41.23
   1   4   7  129.42   61.93
   1   4   7  121.79   46.69
   1   4   7   97.59   41.40
  -2  -4  -7   66.96   27.33
  -2  -4  -7   80.41   21.27
  -2  -4  -7   46.25   27.70
  -2  -4  -7   84.16   36.90
   2   4   7   79.33   49.81
   2   4   7   68.97   32.73
   2   4   7   60.69   25.42
   2   4   7  103.65   19.29
  -4   3  -7 1279.13  382.91
  -3  -4  -7 1131.58  308.11
  -4   3  -7 1428.01  295.42
  -3  -4  -7 1277.09  337.02
  -4   3  -7 1420.90  322.67
   3   4   7 1174.88  351.43
   3   4   7 1210.71  318.43
  -4  -4  -7   15.53   20.85
  -4   4  -7   21.37   33.09
  -4  -4  -7   38.22   30.05
  -4   4  -7   -6.62   34.13
  -4   4  -7  -14.91   18.56
   4  -4   7   18.47   18.65
   4   4   7  -13.77   38.57
  -4   5  -7 1207.48  232.30
  -4   5  -7 1212.32  255.22
  -4   5  -7  987.21  285.54
  -4   5  -7  778.64  256.23
   4  -5   7 1005.97  234.27
   4  -5   7  929.55  254.63
  -3   5  -7  861.99  270.50
  -3   5  -7  873.73  225.66
  -3   5  -7 1058.65  242.62
  -3   5  -7 1050.87  247.34
   3  -5   7 1072.56  260.96
   3  -5   7  978.58  244.51
  -2   5  -7 1982.61  469.98
  -2   5  -7 2294.18  454.65
  -2   5  -7 2105.07  538.34
   2  -5   7 2027.35  492.01
  -2   5   7 2090.40  538.83
   2  -5   7 2243.86  478.15
  -1   5  -7   43.78   32.08
  -1   5  -7   43.61   50.74
  -1   5   7   96.53   47.36
   1  -5   7   54.68   29.80
   0   5  -7 3728.33  928.29
   0  -5  -7 4146.18  971.14
   0  -5   7 4328.65  966.01
  -5   1  -7   52.85   25.41
  -1  -5  -7   55.84   13.45
  -5   1  -7   19.54   30.17
   5  -1   7   44.65   20.63
  -2  -5  -7 2458.68  547.03
  -2  -5  -7 2236.21  531.37
  -5   2  -7 2456.08  511.47
   2   5   7 2283.17  495.62
   2   5   7 1711.70  527.03
  -3  -5  -7 1111.99  266.24
   5  -3   7  898.20  229.80
  -5   4  -7  890.13  301.67
  -5   4  -7 1019.89  259.32
  -4  -5  -7  795.63  253.33
  -5   4  -7 1065.97  239.85
  -4  -5  -7  979.95  271.39
   4   5   7 1462.05  290.43
   5  -4   7 1126.62  236.67
  -5   5  -7  -19.16   47.24
  -5   5  -7   28.61   35.98
  -5   5  -7  -13.83   24.52
   5  -5   7   -5.57   22.60
   5   5   7    2.26   50.56
  -5   6  -7   94.95   52.44
  -5   6  -7  100.00   34.87
   5  -6   7   87.57   33.13
  -4   6  -7  592.15  133.37
  -4   6  -7  689.79  146.41
  -4   6  -7  449.62  149.81
   4  -6   7  507.86  135.65
   4  -6   7  540.83  149.41
  -3   6  -7 1043.76  233.13
  -3   6  -7 1012.10  251.11
  -3   6  -7 1038.75  242.11
   3  -6   7 1113.41  265.34
   3  -6   7 1125.82  249.73
   2  -6  -7  862.47  219.55
  -2   6  -7  834.62  207.24
  -2   6  -7  993.97  200.22
  -2   6  -7 1062.92  219.15
  -2   6   7  788.53  244.65
  -2   6   7  944.34  212.73
   2  -6   7  869.47  230.06
   2  -6   7  838.16  219.57
   1  -6  -7  194.77   70.50
  -1   6  -7  313.60   71.40
  -1   6  -7  228.57   60.15
  -1   6  -7  338.79   74.64
  -1   6   7  219.43   67.25
  -1   6   7  176.09   88.08
   1  -6   7  320.32   82.09
   0   6  -7   -2.96   20.28
   0  -6  -7   11.01   33.75
   0   6   7    9.60   32.13
   0   6   7  -21.81   63.90
   1   6  -7  146.74   60.26
  -1  -6  -7  244.72   70.27
   1   6   7  214.66   92.71
   1   6   7  260.77   63.53
  -2  -6  -7 1099.12  203.22
  -2  -6  -7  884.26  224.30
  -2  -6  -7  764.20  224.17
   2   6   7  774.38  230.45
   2   6   7  650.49  238.35
   2   6   7  871.39  208.52
   6  -2   7  968.02  197.79
  -3  -6  -7 1148.92  235.51
  -3  -6  -7 1094.75  265.85
   3   6   7  941.37  264.36
   3   6   7  948.52  249.09
  -4  -6  -7  798.33  162.17
  -6   4  -7  687.00  168.41
  -4  -6  -7  626.99  174.85
  -6   4  -7  551.25  157.40
   4   6   7  830.45  190.65
   4   6   7  835.70  171.82
   6  -4   7  600.29  151.84
  -6   5  -7   64.94   51.49
  -6   5  -7  123.03   38.82
  -5  -6  -7  160.45   52.65
   5   6   7  135.26   62.85
   6  -5   7   90.88   35.14
  -6   6  -7  -19.82   60.92
  -6   6  -7    4.27   45.32
  -6   6  -7  -12.83   31.95
   6  -6   7  -13.79   27.56
   6   6   7    5.58   58.07
  -6   7  -7   83.44   42.52
  -6   7  -7   68.01   55.82
  -6   7  -7  120.65   77.54
   6  -7   7  137.06   40.54
  -5   7  -7    6.20   45.81
  -5   7  -7   44.11   29.88
  -5   7  -7   25.10   68.82
  -5   7  -7   47.56   43.27
   5  -7   7   19.22   24.87
   5  -7   7    4.26   41.00
  -4   7  -7  275.63  102.14
  -4   7  -7  304.03  116.85
  -4   7  -7  540.65  136.79
  -4   7  -7  465.68  110.81
   4  -7   7  506.61  115.46
   4  -7   7  542.63  104.50
  -3   7  -7  554.65  112.90
  -3   7  -7  619.86  117.82
  -3   7  -7  290.93  152.05
  -3   7  -7  417.48  125.92
   3  -7   7  483.33  136.84
   3  -7   7  506.28  114.61
  -3   7   7  404.45  144.98
   2  -7  -7 1251.39  262.51
  -2   7  -7  717.69  291.07
  -2   7  -7  958.41  240.92
  -2   7  -7  953.39  265.31
  -2   7  -7 1225.87  248.38
   2  -7   7 1024.91  284.89
   2  -7   7  749.79  264.54
  -2   7   7 1246.39  294.59
  -2   7   7 1186.68  247.20
   2  -7   7  964.78  253.46
   1  -7  -7   10.88   41.08
  -1   7  -7    1.93   63.16
  -1   7  -7  -34.62   42.17
  -1   7  -7    1.34   19.79
  -1   7  -7   11.51   41.28
   1  -7   7   -5.00   35.25
   1  -7   7   -9.92   48.52
  -1   7   7    2.22   67.90
  -1   7   7   47.86   37.89
   0   7  -7   -6.78   48.81
   0   7  -7   26.33   68.21
   0  -7  -7  -10.87   41.80
   0   7  -7    3.07   22.13
   0   7  -7   65.88   49.49
   0   7   7   13.93   70.56
   0   7   7  -14.67   38.06
   0  -7   7  -23.59   61.41
   0  -7   7   24.52   37.24
   1   7  -7   35.98   52.11
  -1  -7  -7   51.62   45.98
   1   7  -7   -3.93   27.20
   1   7   7    4.68   77.14
   1   7   7   26.27   39.89
  -1  -7   7    3.52   40.56
  -2  -7  -7 1348.98  292.66
  -2  -7  -7  998.94  265.64
   2   7   7 1032.81  271.06
   2   7   7 1231.47  305.89
  -3  -7  -7  570.08  138.97
  -3  -7  -7  465.86  149.47
   3   7   7  825.51  149.97
   3   7   7  682.01  162.53
  -4  -7  -7  471.63  134.36
  -4  -7  -7  509.06  127.06
   4   7   7  697.03  157.67
   4   7   7  503.39  136.95
  -7   5  -7   38.85   47.66
  -5  -7  -7  102.45   52.24
   5   7   7  -25.18   86.90
   5   7   7   -8.94   65.27
  -7   6  -7   87.16   62.44
   6   7   7   81.71   74.15
   7  -6   7  166.51   41.74
  -7   7  -7  -50.82   56.66
  -7   7  -7    2.24   74.70
   7  -7   7   16.24   32.58
  -7   8  -7  502.92  159.67
  -7   8  -7  358.87  132.61
   7  -8   7  514.09  113.26
  -6   8  -7   23.63   86.99
  -6   8  -7    7.32   58.00
  -6   8  -7  116.19   37.96
   6  -8   7   26.11   33.09
  -5   8  -7  -21.76   50.78
  -5   8  -7    2.31   46.26
  -5   8  -7   21.08   32.98
  -5   8  -7   65.00   78.68
   5  -8   7    6.87   26.01
   5  -8   7   91.97   50.95
  -4   8  -7  158.84   47.01
  -4   8  -7  171.67   61.64
  -4   8  -7  171.94   56.62
  -4   8  -7  160.93   84.47
   4  -8   7  168.72   65.06
   4  -8   7  134.38   47.95
   4  -8   7  127.61   60.80
  -3   8  -7  -30.73   40.68
  -3   8  -7  -27.43   42.61
  -3   8  -7   92.52   73.18
   3  -8  -7   42.66   50.51
  -3   8  -7   32.54   23.82
   3  -8   7   20.16   42.90
   3  -8   7  -26.98   39.58
  -3   8   7  -18.69   48.32
   3  -8   7    6.50   49.85
  -3   8   7  -25.85   73.02
   3  -8   7   17.21   27.80
   2  -8  -7  294.48  115.77
  -2   8  -7  539.98  109.94
  -2   8  -7  368.15  116.11
  -2   8  -7  448.39  133.33
  -2   8  -7  421.15  101.82
  -2   8   7  427.29  107.52
  -2   8   7  490.60  141.41
   2  -8   7  407.64  120.24
   2  -8   7  305.38  127.91
   2  -8   7  509.79  109.94
  -1   8  -7   81.50   36.64
  -1   8  -7  185.18   57.96
   1  -8  -7   62.25   57.11
  -1   8  -7  160.19   59.14
  -1   8  -7   80.18   79.23
   1  -8   7  105.35   70.46
   1  -8   7  197.23   51.12
   1  -8   7  170.24   70.68
  -1   8   7  161.39   53.63
  -1   8   7   83.26   89.87
   0   8  -7   78.63   81.31
   0   8  -7    2.67   58.26
   0   8  -7  -28.57   21.23
   0  -8  -7   -5.11   50.23
   0   8  -7    7.36   52.01
   0   8   7   23.85   84.84
   0   8   7   54.69   45.64
   0  -8   7  -16.78   42.63
   0  -8   7  -32.11   72.40
   1   8  -7  117.35   41.86
  -1  -8  -7   63.70   64.25
   1   8  -7  141.82   93.09
   1   8  -7  137.46   68.83
   1   8   7  172.36   93.53
   1   8   7  122.49   56.36
  -1  -8   7  204.15   55.25
  -2  -8  -7  485.80  114.49
  -2  -8  -7  386.58  133.06
   2   8  -7  479.55  128.79
   2   8   7  349.57  145.45
   2   8   7  495.32  119.66
  -3  -8  -7    3.47   46.10
  -3  -8  -7   21.64   72.34
   3   8   7   -8.33   63.79
   3   8   7   75.98   84.84
  -4  -8  -7  182.43   65.43
   4   8   7  182.79   81.21
   4   8   7  176.75  102.95
  -5  -8  -7   55.50   55.33
   5   8   7   26.72   71.92
   5   8   7   -3.42   98.01
   6   8   7   -7.07   77.97
  -8   9  -7 1040.52  274.62
  -7   9  -7   33.86   98.26
  -7   9  -7   -5.71   68.59
   7  -9   7   88.52   40.71
  -6   9  -7  240.62  127.18
  -6   9  -7  236.30   75.76
  -6   9  -7  226.20   93.66
   6  -9   7  362.16   75.01
  -5   9  -7  361.06   86.33
  -5   9  -7  407.11  130.43
  -5   9  -7  394.75   95.90
  -5   9  -7  281.21  101.52
   5  -9   7  252.61  103.32
   5  -9   7  310.86   86.63
  -4   9  -7    2.08   49.10
  -4   9  -7   28.13   46.05
  -4   9  -7   12.69   31.64
  -4   9  -7  -74.88   90.64
   4  -9   7  -42.07   52.81
   4  -9   7   -2.26   30.34
   4  -9   7   29.78   53.41
  -3   9  -7   -3.88   45.44
  -3   9  -7   26.95   45.02
   3  -9  -7   46.78   58.61
  -3   9  -7   56.15   26.24
  -3   9  -7   62.16   80.87
   3  -9   7  -25.93   45.91
  -3   9   7   51.50   85.54
   3  -9   7   31.15   27.12
   3  -9   7    7.55   57.06
   3  -9   7  -51.97   53.99
  -3   9   7  -17.03   53.60
  -2   9  -7  -63.81   76.96
  -2   9  -7  -38.16   50.67
  -2   9  -7   -7.88   23.24
  -2   9  -7  -11.00   47.57
   2  -9  -7   26.78   52.30
   2  -9   7  -96.99   66.11
  -2   9   7  -58.62   51.48
  -2   9   7  -49.01   90.88
   2  -9   7    2.92   41.31
   2  -9   7   -4.10   56.33
   2  -9   7  -16.29   29.24
  -1   9  -7   85.07   78.52
  -1   9  -7   64.04   57.21
  -1   9  -7   13.66   22.75
   1  -9  -7   31.32   59.12
  -1   9  -7   20.50   52.35
  -1   9   7  -28.61   50.52
  -1   9   7   23.99   94.71
   1  -9   7   35.95   70.22
   1  -9   7   -6.49   45.42
   1  -9   7  102.30   76.16
   0   9  -7   18.21   65.23
   0   9  -7  -13.27   57.74
   0  -9  -7  -35.64   58.25
   0   9  -7   24.48   23.19
   0   9  -7  -22.96   88.47
   0  -9   7  -62.32   82.38
   0   9   7  -19.20   51.89
   0   9   7   33.12   95.43
   0  -9   7   -7.47   46.51
  -1  -9  -7   45.22   65.93
   1   9  -7   38.70   29.29
   1   9  -7    3.25   93.14
   1   9  -7   62.85   73.54
  -1  -9   7   51.85   53.69
   1   9   7   15.14   99.74
   1   9   7   58.00   50.77
   2   9  -7  -30.82   75.90
  -2  -9  -7    3.76   52.03
  -2  -9  -7    3.67   78.98
   2   9   7  -25.24   61.49
   2   9   7  -11.93   97.03
  -3  -9  -7   61.95   92.49
  -3  -9  -7   39.48   56.24
   3   9   7  -50.05   95.82
   3   9   7   50.39   72.14
  -4  -9  -7   88.52   57.23
   4   9   7  -86.78   76.90
   4   9   7   26.72  106.03
  -5  -9  -7  244.60  102.17
   5   9   7  469.53  142.53
   5   9   7  335.02  116.92
  -6  -9  -7  243.41   89.93
   6   9   7  220.21  105.58
  -8  10  -7   29.90   78.93
  -7  10  -7  424.63  175.49
  -7  10  -7  405.08  137.58
   7 -10   7  497.03  113.59
  -6  10  -7  293.43   93.70
  -6  10  -7  331.05   88.63
  -6  10  -7  355.24  137.71
  -6  10  -7  265.36   75.57
   6 -10   7  204.92   73.98
   6 -10   7  156.02   93.59
  -5  10  -7   38.41   60.52
  -5  10  -7   46.19   39.43
  -5  10  -7    2.90  106.44
  -5  10  -7   90.59   58.73
   5 -10   7   77.05   37.52
   5 -10   7   42.94   65.98
   5 -10   7   92.12   64.51
   4 -10  -7   95.26   92.49
  -4  10  -7  251.36  120.07
  -4  10  -7  242.15   84.20
  -4  10  -7  337.55   69.65
  -4  10  -7  272.56   79.12
   4 -10   7  178.23   69.78
   4 -10   7  354.38   88.65
   4 -10   7  274.53   92.95
  -3  10  -7   49.70   51.99
  -3  10  -7    4.71   51.55
  -3  10  -7  127.60   93.02
   3 -10  -7   51.23   65.28
  -3  10  -7   13.48   26.86
  -3  10   7  -54.93   60.13
  -3  10   7  -41.75   99.39
   3 -10   7   11.22   33.01
   3 -10   7  -29.99   49.60
   3 -10   7  -39.40   58.17
   3 -10   7   28.85   65.09
   2 -10  -7  106.28   64.13
  -2  10  -7   80.54   55.14
  -2  10  -7   33.75   29.97
  -2  10  -7   19.45   54.49
  -2  10  -7  100.28   90.73
   2 -10   7  114.36   71.72
  -2  10   7  181.87   60.16
   2 -10   7   79.51   74.50
   2 -10   7   79.46   34.25
   2 -10   7   91.69   52.56
  -2  10   7  -86.64  107.22
  -1  10  -7  341.16   94.12
  -1  10  -7  504.66  138.80
  -1  10  -7  479.68  114.63
  -1  10  -7  297.67  120.66
   1 -10  -7  289.11  113.71
  -1  10   7  545.52  155.25
  -1  10   7  520.46  106.06
   1 -10   7  367.89  108.00
   1 -10   7  343.34  127.90
   1 -10   7  278.50  144.03
   0 -10  -7    3.42   68.98
   0  10  -7   44.12   74.94
   0  10  -7  -15.11   27.06
   0  10  -7   34.49   63.85
   0  10  -7 -137.03   95.92
   0  10   7  118.54  114.97
   0 -10   7  -69.39   90.58
   0  10   7  -21.72   60.49
   0 -10   7  -49.70   53.91
   1  10  -7  382.27  129.72
   1  10  -7  391.80   97.56
  -1 -10  -7  540.78  129.63
   1  10  -7  297.60  148.11
  -1 -10  -7  433.46  115.96
  -1 -10   7  249.67  115.51
   1  10   7  286.09  155.93
   1  10   7  677.30  115.52
  -2 -10  -7  116.23   65.20
  -2 -10  -7   50.19   89.90
   2  10  -7   86.00   94.22
   2  10  -7   52.33   39.91
   2  10   7   73.50  111.72
  -2 -10   7  133.84   62.19
   2  10   7   85.61   73.69
  -3 -10  -7   75.93   64.81
  -3 -10  -7 -155.04   99.35
   3  10   7  -99.15   78.33
   3  10   7  124.92  104.35
  -4 -10  -7  241.99   88.10
   4  10   7  173.32  130.80
   4  10   7  323.93  106.95
  -5 -10  -7   -5.45   76.05
   5  10   7 -203.43   98.46
  -6 -10  -7  261.84   93.39
   6  10   7  181.80  113.31
  -8  11  -7  339.77  120.41
  -7  11  -7  263.18  137.52
  -7  11  -7   64.85   80.29
  -6  11  -7   74.92   73.75
  -6  11  -7  428.41  128.28
  -6  11  -7  138.87   71.03
  -6  11  -7   13.34   48.16
   6 -11   7   63.36   48.94
   6 -11   7   22.98   77.49
   6 -11   7  141.51   82.40
  -5  11  -7  226.33  103.86
  -5  11  -7  351.86   97.20
  -5  11  -7  398.14  156.92
  -5  11  -7  345.38  113.16
   5 -11   7  275.53  116.74
   5 -11   7  540.38  131.07
   5 -11   7  432.46   99.06
  -4  11  -7 -333.71  115.22
  -4  11  -7   77.66   58.41
  -4  11  -7  -20.21   56.58
  -4  11  -7   91.15   39.50
   4 -11  -7  -34.83   77.50
   4 -11   7   -2.22   65.03
   4 -11   7   22.13   72.31
   4 -11   7  -40.86   37.33
  -4  11   7   14.22   68.14
  -3  11  -7   90.86   35.77
  -3  11  -7   24.17   59.23
  -3  11  -7   77.04   63.85
   3 -11  -7    4.05   86.82
  -3  11  -7  -32.21  107.54
   3 -11   7  118.93   63.72
  -3  11   7   59.25   71.56
   3 -11   7  180.79   41.52
   3 -11   7   48.33   73.05
   3 -11   7   75.30   78.72
  -2  11  -7  422.85  123.45
  -2  11  -7  535.12  118.10
  -2  11  -7  428.11  105.77
  -2  11  -7  568.03  150.52
   2 -11  -7  245.73  130.27
   2 -11   7  513.73  146.74
   2 -11   7  540.56  109.91
   2 -11   7  469.72  118.68
  -2  11   7    3.75  177.92
   2 -11   7  530.59  135.76
  -1  11  -7  -10.13   28.07
  -1  11  -7   -3.03   99.18
  -1  11  -7  -32.82   71.17
   1 -11  -7 -288.45   89.02
  -1  11  -7   31.85   64.99
  -1  11   7 -220.00   73.77
   1 -11   7  -26.23   94.18
   1 -11   7   16.41   93.92
   1 -11   7   37.40   58.90
  -1  11   7  168.39  128.64
   0  11  -7  689.28  198.66
   0  11  -7  703.87  249.71
   0  11  -7 1057.66  224.18
   0 -11  -7  812.86  223.53
   0 -11   7  961.65  297.00
   0  11   7 1167.56  259.70
   0 -11   7  715.68  215.62
   0  11   7 1021.82  205.12
   1  11  -7   25.86   91.01
  -1 -11  -7   68.42   70.22
  -1 -11  -7 -119.60  108.18
   1  11  -7   45.21  110.97
  -1 -11   7   25.67   66.87
   1  11   7 -248.77   85.42
   1  11   7 -453.54  135.09
   2  11  -7  297.56  139.75
  -2 -11  -7  570.26  151.96
  -2 -11  -7  151.59  117.40
   2  11   7  182.25  133.07
  -2 -11   7  499.23  115.90
  -3 -11  -7  201.74   74.11
  -3 -11  -7  -84.32  129.29
   3  11   7 -183.76  149.60
  -4 -11  -7   33.04   74.10
  -4 -11  -7  -96.82  127.28
   4  11   7 -121.96  133.52
   4  11   7  133.39   96.21
  -5 -11  -7  382.70  123.31
   5  11   7  465.15  172.82
   5  11   7  310.95  141.94
  -6 -11  -7   90.40   87.06
   6  11   7  218.17  141.63
   6  11   7   71.95  107.70
   7  11   7  -89.71  110.02
  -8  12  -7   56.72   93.70
  -6  12  -7   42.26  140.33
  -6  12  -7   21.11   70.45
   6 -12   7  -38.92   81.07
   6 -12   7  100.62   85.89
   6 -12   7   83.74   47.95
  -5  12  -7  197.85   70.04
  -5  12  -7  -98.82  134.88
   5 -12   7   22.19   78.71
  -4  12  -7   17.76   65.10
  -4  12  -7  236.60  126.88
   4 -12   7  -17.65   79.34
   4 -12   7  -22.68   72.62
  -3  12  -7  321.57  127.21
   3 -12  -7  688.10  146.81
  -3  12  -7  773.51  176.11
   3 -12   7  377.14  138.09
  -3  12   7  419.38  129.65
   3 -12   7  420.23  145.21
   2 -12  -7   29.10   85.62
  -2  12  -7   12.82   72.07
  -2  12  -7  -47.65  113.69
   2 -12   7 -141.38   95.02
  -2  12   7    4.14  141.62
  -2  12   7  -71.42   70.79
   2 -12   7   17.83   67.26
   1 -12  -7 1706.37  359.37
  -1  12  -7 1261.24  395.40
  -1  12  -7 1550.39  350.62
  -1  12   7 1398.25  415.88
   1 -12   7 1010.66  380.49
  -1  12   7 1493.90  327.68
   1 -12   7 1052.63  354.71
   0  12  -7  -29.70  117.07
   0  12  -7   45.89   91.42
   0 -12  -7   93.91   97.49
   0  12   7  129.51   82.05
   0  12   7  413.48  156.86
   0 -12   7   20.30   73.90
   0 -12   7   56.83  124.66
  -1 -12  -7 1665.45  400.27
   1  12  -7 1539.22  441.32
   1  12  -7 1583.54  407.77
  -1 -12  -7 1827.38  419.42
  -1 -12   7 1360.56  394.09
   1  12   7 1810.01  440.67
   1  12   7 1743.56  380.27
   2  12  -7   10.33  108.23
  -2 -12  -7   95.74  118.70
  -2 -12  -7  -88.46   77.77
   2  12   7  265.76  151.01
   2  12   7    4.00   95.27
  -2 -12   7  -65.88   70.33
  -3 -12  -7  545.79  193.04
  -3 -12  -7  593.10  144.00
   3  12   7  311.17  154.41
   3  12   7  409.89  187.93
  -4 -12  -7  -57.03  144.15
  -4 -12  -7   79.73   86.93
   4  12   7   -4.75  110.96
   5  12   7  156.69  116.36
  -6  13  -7  -67.49   84.41
  -6  13  -7 -268.90  161.48
   6 -13   7  -13.61  101.38
  -5  13  -7  107.46   74.74
  -5  13  -7   60.47  154.50
   5 -13   7   12.19   91.26
   4 -13  -7 -131.38   96.47
  -4  13  -7   26.51  140.28
  -4  13  -7   35.95   73.49
  -4  13   7 -123.56   82.37
   4 -13   7   61.60   80.26
   4 -13   7   58.90   89.43
  -3  13  -7   -6.64   72.73
  -3  13  -7  112.52  126.55
   3 -13   7  -65.95   95.22
   3 -13   7   39.89   78.03
  -2  13  -7  150.52   95.23
  -2  13  -7  258.32  131.74
   2 -13   7  237.96  119.31
  -2  13   7  178.65  163.83
   2 -13   7  100.60   90.62
  -1  13  -7  139.38  123.27
  -1  13  -7  -84.63   91.39
   1 -13   7    5.31   77.97
   1 -13   7   56.04  115.50
   0  13  -7  413.61  170.71
   0  13  -7  638.82  149.77
   0 -13   7  224.62  132.11
   0 -13   7  647.35  180.27
   1  13  -7 -171.65  113.91
   1  13  -7   26.26  130.07
  -1 -13   7  -42.82   85.02
   2  13  -7  302.46  137.54
  -2 -13   7   -6.48   84.13
  -4 -13  -7   27.31   90.74
   4  13   7  114.14  159.38
  -5 -13  -7  800.87  178.93
  -5 -13  -7   58.06   99.07
   5  13   7    5.27  171.80
   5  13   7  286.82  129.85
  -6 -13  -7  -76.73   91.19
   6  13   7   -5.76  134.34
   7  13   7  -18.00  134.19
   5 -14  -7  -91.35  109.26
  -5  14   7    5.18  166.80
   4 -14  -7   81.46  112.49
  -4  14   7    5.15  174.80
  -4  14   7  134.41   92.48
   4 -14   7   -4.35   95.70
  -3  14  -7   -3.72   83.40
   3 -14  -7  -10.95  110.86
   3 -14   7   -4.58  111.82
  -3  14   7   67.50   89.71
   2 -14  -7  516.61  174.26
   2 -14   7   -5.00  184.17
  -2  14   7  589.87  151.18
   1 -14  -7   86.37  118.14
  -1  14   7 -161.68  191.68
  -1  14   7  106.15   95.52
   0 -14  -7 -106.08  129.06
   0 -14  -7  -17.14  132.71
   0  14   7 -402.94  129.54
  -1 -14  -7   -7.02  151.29
  -1 -14  -7   86.29  144.03
   1  14   7  190.43  132.91
   2  14  -7  591.70  211.66
  -2 -14  -7  522.04  225.23
  -2 -14  -7  169.49  183.49
  -2 -14   7  336.62  172.05
   2  14   7  875.89  191.72
  -3 -14  -7    7.30  109.85
  -3 -14  -7 -238.08  170.00
   3  14  -7  -92.37  162.75
   3  14   7 -154.60  125.14
   3  14   7    5.09  176.97
  -4 -14  -7  123.52  172.35
  -4 -14  -7  129.24  106.64
   4  14   7    5.69  128.53
   4  14   7   16.36  176.01
  -5 -14  -7   64.25  102.70
  -5 -14  -7 -193.88  178.54
   5  14   7   12.05  133.41
   5  14   7    5.75  184.07
  -6 -14  -7  159.63  112.90
   6  14   7  119.84  180.65
   6  14   7   24.99  140.39
   7  14   7 -156.96  152.20
  -5  15  -7   63.46   82.30
   5 -15  -7   87.47  119.58
  -5  15  -7 -125.46  169.45
   5 -15   7   13.60  101.99
  -5  15   7   63.61  201.82
   5 -15   7   -9.77  105.02
   4 -15  -7 -155.21  130.74
  -4  15  -7  -15.79   87.48
  -4  15  -7  133.63  160.42
  -4  15   7   39.24   98.63
   4 -15   7   19.26  105.63
  -4  15   7    5.63  183.79
   4 -15   7  176.52  103.14
  -3  15  -7 -170.81  152.15
  -3  15  -7  -61.97   93.70
   3 -15  -7 -141.12  124.26
  -3  15   7   28.02   96.80
   3 -15   7  -38.51   96.75
   3 -15   7  -35.41  116.65
  -2  15  -7  -35.40   97.01
  -2  15  -7   17.57  143.11
   2 -15  -7  119.00  122.57
   2 -15   7  -12.98   93.96
  -2  15   7   65.74   95.64
   2 -15   7   16.57  133.43
   1 -15  -7   48.79  126.85
   1 -15  -7  -64.66  124.82
  -1  15  -7  -29.43  113.80
  -1  15  -7  110.77  151.96
   1 -15   7   -6.14  141.92
   1 -15   7    6.73   90.57
  -1  15   7 -265.78  105.09
  -1  15   7  318.48  194.49
   0 -15  -7 -263.50  147.33
   0 -15  -7   47.71  134.28
   0  15  -7  -73.11  159.43
   0  15  -7  -55.28  124.56
   0  15   7 -282.53  119.38
   0 -15   7    6.87  160.27
   0  15   7    5.45  192.69
   0 -15   7   27.52   97.60
   1  15  -7 -234.82  152.72
   1  15  -7  -18.54  141.22
  -1 -15  -7  -39.38  135.01
  -1 -15  -7  282.73  154.06
   1  15   7    5.40  181.47
  -1 -15   7  -15.10  179.54
  -1 -15   7 -249.90  106.18
   1  15   7 -145.65  130.71
  -2 -15  -7   47.84  123.48
   2  15  -7   81.48  156.71
  -2 -15  -7  -29.62  170.19
   2  15  -7  -47.31  146.37
   2  15   7    5.28  182.36
  -2 -15   7   30.48   99.75
   2  15   7 -264.80  126.33
  -3 -15  -7  294.89  189.12
   3  15  -7  -21.62  160.01
  -3 -15  -7   41.38  120.62
   3  15   7 -199.43  135.04
   3  15   7 -259.29  188.13
  -4 -15  -7  -67.61  187.84
  -4 -15  -7   50.83  115.17
   4  15   7   12.47  139.34
   4  15   7  -65.84  195.95
  -5 -15  -7   61.80  201.08
  -5 -15  -7 -124.81  126.44
   5  15   7    6.28  196.95
   5  15   7   39.40  144.54
  -6 -15  -7 -129.30  123.29
  -6 -15  -7  657.31  222.63
   6  15   7  231.19  151.74
   6  15   7  266.95  200.74
   7  15   7  -28.36  155.65
   5 -16  -7  -22.31  140.96
   5 -16   7   -5.36  113.04
   5 -16   7   45.63  118.91
  -5  16   7 -132.17  228.63
   4 -16  -7   14.43  153.40
   4 -16   7  426.07  140.61
   4 -16   7    5.32  152.42
  -4  16   7  328.18  228.24
  -4  16   7  361.82  124.87
   3 -16  -7 -296.07  141.97
  -3  16  -7  -54.88  108.91
  -3  16  -7 -487.01  167.37
   3 -16   7   27.95  133.43
  -3  16   7    6.14  213.14
  -3  16   7  321.49  109.59
   3 -16   7   -7.27  109.93
  -2  16  -7   39.16  107.61
  -2  16  -7    4.93  163.48
   2 -16  -7 -168.90  142.59
   2 -16   7  -36.65  103.08
   2 -16   7    6.10  145.50
  -2  16   7    5.24  108.77
   1 -16  -7 -330.42  145.78
  -1  16  -7  -43.28  122.39
   1 -16  -7  -26.82  132.19
  -1  16  -7 -133.65  161.18
   1 -16   7  -13.52  158.08
  -1  16   7    5.30  113.95
  -1  16   7   12.01  211.60
   1 -16   7  -22.49  107.66
   0 -16  -7   64.99  156.91
   0 -16  -7   -8.88  144.96
   0  16  -7 -314.92  164.79
   0  16  -7 -114.55  140.58
   0  16   7  189.85  215.55
   0  16   7 -356.64  126.00
   0 -16   7  -14.96  178.45
   0 -16   7    7.63  109.34
  -1 -16  -7  300.87  178.34
  -1 -16  -7    8.89  140.70
   1  16  -7 -100.91  152.04
   1  16  -7   99.54  166.34
  -1 -16   7   16.42  193.62
   1  16   7  139.91  204.55
  -1 -16   7   16.17  111.52
   1  16   7   -5.79  128.72
   2  16  -7   29.25  171.09
   2  16  -7  245.46  169.24
  -2 -16  -7  107.04  139.26
  -2 -16  -7  214.08  191.33
  -2 -16   7  -43.90  203.28
  -2 -16   7 -124.50  115.94
   2  16   7  163.68  203.49
   2  16   7 -128.23  135.39
   3  16  -7  140.29  174.61
  -3 -16  -7 -209.57  204.03
  -3 -16  -7  157.98  135.76
   3  16   7 -444.44  214.03
   3  16   7 -212.14  150.42
  -4 -16  -7 -123.85  138.49
  -4 -16  -7  202.86  217.88
   4  16   7  101.79  157.59
   4  16   7  459.89  227.25
  -5 -16  -7    9.89  148.39
  -5 -16  -7  502.68  223.59
   5  16   7  227.38  160.02
   5  16   7  -20.55  220.35
  -6 -16  -7 -142.47  131.01
  -6 -16  -7 -299.65  232.35
   6  16   7   74.32  166.09
   6  16   7 -170.16  206.74
  -7 -16  -7  224.99  232.86
   7  16   7 -115.00  168.34
   5 -17  -7   -8.27  163.27
  -5  17   7  311.01  230.55
  -4  17  -7  -62.74  108.12
   4 -17  -7   24.21  155.64
  -4  17  -7 -109.53  185.15
  -4  17   7 -167.26  116.64
   4 -17   7 -241.03  126.53
  -4  17   7   -6.80  219.78
   4 -17   7  -23.45  137.55
  -3  17  -7  106.67  184.05
   3 -17  -7 -154.91  155.11
  -3  17  -7  -45.72  112.80
  -3  17   7 -183.89  125.15
  -3  17   7 -162.30  238.25
   3 -17   7    6.15  140.76
   3 -17   7   16.52  119.84
  -2  17  -7 -425.41  182.03
  -2  17  -7   -5.42  123.90
   2 -17  -7  221.35  157.98
  -2  17   7 -186.73  120.46
   2 -17   7    8.34  125.11
   2 -17   7   13.43  155.86
  -1  17  -7  -47.51  134.99
  -1  17  -7 -652.79  196.78
   1 -17  -7 -193.91  160.95
   1 -17  -7  -10.03  150.41
   1 -17   7 -133.83  118.50
  -1  17   7    6.00  125.05
   1 -17   7  -51.61  183.77
   0  17  -7   45.99  151.39
   0 -17  -7  149.02  151.72
   0 -17  -7   -8.08  174.35
   0  17  -7   76.36  184.73
   0  17   7 -192.24  132.81
   0 -17   7  -48.98  197.15
   0  17   7   -6.45  227.63
   0 -17   7   -8.62  123.33
   1  17  -7   -7.25  178.82
  -1 -17  -7 -268.79  156.80
   1  17  -7   84.06  178.67
  -1 -17  -7 -137.64  186.61
  -1 -17   7   -8.91  124.09
  -1 -17   7  -35.58  213.41
   1  17   7  -38.13  207.43
   1  17   7   77.87  148.98
  -2 -17  -7   10.16  145.97
   2  17  -7 -396.41  307.08
  -2 -17  -7   27.26  203.98
  -2 -17   7   -9.07  150.55
   2  17   7  121.55  147.68
  -2 -17   7   38.25  227.62
   2  17   7 -169.39  214.56
  -3 -17  -7   10.41  158.80
   3  17  -7   16.82  192.54
  -3 -17  -7 -468.02  216.34
  -3 -17   7  -30.02  241.17
   3  17   7  124.14  216.18
   3  17   7 -644.21  159.90
  -4 -17  -7 -328.99  150.79
  -4 -17  -7  252.19  237.63
   4  17   7  202.79  238.65
   4  17   7   22.20  160.31
  -5 -17  -7  -33.29  143.30
  -5 -17  -7 -399.18  243.43
   5  17   7    7.74  169.08
   5  17   7  179.37  233.29
  -6 -17  -7 -314.83  259.50
  -6 -17  -7  101.07  143.82
   6  17   7 -332.59  240.02
   6  17   7   16.14  179.71
  -7 -17  -7 -502.23  285.33
   5 -18  -7  -46.08  230.71
  -5  18   7 -895.87  291.06
   4 -18  -7  -36.22  219.01
   4 -18   7  -12.92  154.68
   4 -18   7    9.39  152.23
  -3  18  -7  -16.72  127.51
   3 -18  -7  253.30  184.13
  -3  18  -7   -6.00  196.12
   3 -18   7    9.34  138.76
  -3  18   7    6.62  138.79
   3 -18   7    6.78  150.20
  -3  18   7 -440.65  261.47
  -2  18  -7  -85.84  199.66
   2 -18  -7   17.25  173.85
  -2  18  -7  143.70  131.90
   2 -18   7 -140.62  133.22
  -2  18   7 -110.65  138.82
   2 -18   7  -14.76  163.43
   1 -18  -7    8.73  191.74
  -1  18  -7 -100.89  200.84
  -1  18  -7   58.77  150.53
   1 -18   7    9.42  142.98
  -1  18   7    6.69  149.11
   1 -18   7   -8.06  187.80
   0 -18  -7   11.19  174.91
   0 -18  -7   99.66  193.92
   0  18  -7  -92.98  161.33
   0  18  -7    6.43  197.11
   0  18   7   -6.88  148.44
   0  18   7 -427.98  241.05
   0 -18   7    8.85  220.54
   0 -18   7   19.28  126.93
   1  18  -7    7.85  175.70
  -1 -18  -7  542.79  216.29
  -1 -18  -7  179.13  170.66
   1  18  -7  150.73  203.49
  -1 -18   7   28.87  232.50
   1  18   7    6.87  232.93
  -1 -18   7   -9.86  142.39
   1  18   7  180.48  162.95
   2  18  -7 -171.65  191.45
  -2 -18  -7   68.61  165.32
  -2 -18  -7  120.62  222.56
  -2 -18   7   89.54  125.98
   2  18   7  246.73  166.52
  -2 -18   7   10.35  245.89
   2  18   7 -290.44  234.18
  -3 -18  -7  284.03  241.51
  -3 -18  -7  -35.15  162.37
  -3 -18   7   21.74  250.93
   3  18   7 -114.76  251.23
   3  18   7 -318.77  176.40
  -4 -18  -7  -94.72  178.52
   4  18   7 -886.03  205.86
  -5 -18  -7 -512.92  281.81
  -5 -18  -7  -12.35  180.63
  -6 -18  -7  260.92  161.18
  -6 -18  -7 -164.84  262.69
   6  18   7    8.70  192.22
   6  18   7    8.46  257.39
   5 -19  -7  -20.64  196.18
  -5  19   7 -100.31  296.34
   4 -19  -7  -40.74  202.25
  -4  19   7  266.70  156.77
  -4  19   7   48.96  286.10
   3 -19  -7   12.63  201.68
  -3  19  -7   26.87  230.54
  -3  19  -7 -123.86  135.36
   3 -19  -7   40.30  205.14
   3 -19   7    7.48  178.92
   3 -19   7   84.99  159.59
  -3  19   7 -244.90  154.71
  -3  19   7  438.05  274.45
  -2  19  -7   99.75  157.68
   2 -19  -7  -12.57  205.88
   2 -19  -7   19.55  213.52
  -2  19  -7 -336.02  229.07
  -2  19   7  218.23  160.21
   2 -19   7  179.51  157.25
   2 -19   7   -8.07  195.53
  -2  19   7   62.61  271.78
  -1  19  -7    7.17  157.34
   1 -19  -7  -59.01  221.51
  -1  19  -7 -159.90  222.34
  -1  19   7    7.46  165.57
   1 -19   7  -70.55  213.58
   1 -19   7 -220.75  145.83
   0 -19  -7  446.58  236.57
   0  19  -7  -46.98  174.39
   0  19  -7  140.89  219.57
   0 -19  -7   75.04  194.22
   0 -19   7  119.32  158.82
   0 -19   7    9.58  229.64
   0  19   7  100.56  177.96
   1  19  -7  -85.09  194.86
  -1 -19  -7   42.31  244.33
  -1 -19  -7  457.47  190.77
   1  19  -7    7.17  215.21
   1  19   7 -274.86  274.47
  -1 -19   7   52.18  248.17
  -1 -19   7  -32.74  149.90
   1  19   7   48.30  181.21
   2  19  -7  -55.26  209.33
  -2 -19  -7  -12.98  204.88
  -2 -19  -7 -122.04  255.36
   2  19   7  222.99  185.51
  -2 -19   7  -66.96  260.85
  -2 -19   7   10.96  144.29
   2  19   7 -169.75  270.92
  -3 -19  -7   13.09  192.45
  -3 -19  -7  472.38  263.51
   3  19   7   -8.42  280.44
   3  19   7  145.16  189.01
  -4 -19  -7 -262.45  270.42
  -4 -19  -7  -40.48  187.60
   4  19   7  132.54  197.85
   4  19   7   70.10  296.97
  -5 -19  -7   13.78  181.79
  -5 -19  -7  616.56  295.26
   5  19   7  118.52  202.50
   5  19   7    8.92  283.70
  -6 -19  -7 -257.07  291.54
   6  19   7  254.56  211.86
   3 -20   7   23.90  180.43
   3 -20   7   16.51  189.12
  -2  20  -7  -36.83  159.17
  -2  20  -7  493.78  253.26
   2 -20   7   23.86  170.22
   2 -20   7   17.69  210.98
  -1  20  -7 -406.07  261.33
  -1  20  -7  -31.58  172.56
   1 -20   7   19.27  219.44
   1 -20   7   23.93  172.61
   0  20  -7   38.62  234.98
   0  20  -7 -145.33  191.22
   0 -20   7 -217.72  172.40
   0 -20   7   94.09  257.57
   1  20  -7  440.48  243.36
   1  20  -7    9.22  209.22
  -1 -20   7   12.07  161.23
  -1 -20   7   45.02  283.90
   2  20  -7   79.39  222.73
  -2 -20   7  -60.13  288.40
  -2 -20   7 -193.96  146.84
   0   0  -8 1022.79  310.64
   0   0  -8 1523.12  325.25
   0   0   8 1447.74  348.78
  -1   0  -8    5.85   10.64
   0  -1  -8   -8.11   14.12
   0   1  -8  -12.75   24.16
  -1   0  -8    1.27   21.45
   0   1  -8   -5.81   13.95
   0   1   8  -18.62   29.33
   1   0   8   14.37   23.51
   0  -1   8    5.32   30.48
  -1  -1  -8  205.60   65.95
  -1   1  -8  247.52   57.06
  -1   1  -8  180.91   65.55
  -1  -1  -8  237.85   58.00
   1   1   8  294.44   71.96
   1  -1   8  230.42   67.69
   1   1   8  246.84   67.56
  -2  -1  -8    9.36   20.56
  -2  -1  -8    4.12   11.28
  -2  -1  -8    2.99    9.27
  -1   2  -8    4.37   25.18
   2   1   8    2.47   19.06
   2   1   8    8.52   13.01
   2   1   8   -0.53   22.54
   1  -2   8   16.22   26.68
  -2   0  -8    1.66    8.80
   0  -2  -8    5.02   14.17
  -2   0  -8   11.21   20.28
   0   2  -8   -3.42   28.48
   0   2   8    7.44   20.33
   0  -2   8    3.75   33.30
   2   0   8    2.69   19.06
  -1  -2  -8    3.16   10.40
  -1  -2  -8   -1.62   14.27
  -2   1  -8    3.66   10.86
  -1  -2  -8   26.86   21.34
  -2   1  -8    3.63   22.58
   1   2   8   -3.17   26.47
   1   2   8    1.11   27.71
   1   2   8    3.23   17.25
   2  -1   8   -8.80   20.21
  -2  -2  -8   10.37   16.84
  -2   2  -8   18.24   24.68
  -2  -2  -8   17.39   21.70
  -2  -2  -8    6.60    9.52
   2   2   8    7.74   17.25
   2   2   8   17.39   18.75
   2  -2   8    8.54   24.10
   2   2   8   11.53   31.36
  -2   3  -8   22.13   15.08
  -3  -2  -8    7.69   22.03
  -3  -2  -8    9.18   12.74
  -3  -2  -8   23.70   19.58
  -2   3  -8    3.83   29.52
   3   2   8   10.62   37.77
   3   2   8    7.94   12.04
   2  -3   8   16.98   15.61
   2  -3   8   13.59   19.78
   3   2   8   -7.88   21.77
  -3  -1  -8 1000.73  195.45
  -1   3  -8  792.38  206.57
   3   1   8  654.07  202.42
   3   1   8  819.66  187.60
  -3   0  -8   -1.12   22.82
  -3   0  -8    6.81   11.25
   0   3  -8   -1.83   31.22
   0  -3  -8    5.74   15.09
   0  -3  -8   -1.24   19.00
   0  -3   8   27.85   38.26
   0   3   8   -7.64   32.15
   3   0   8   12.44   11.39
   0   3   8   -1.22   23.80
  -1  -3  -8  936.51  208.81
   1   3   8  707.44  230.76
   1   3   8  922.22  246.46
   1   3   8  952.58  208.29
  -2  -3  -8   13.36    9.34
  -2  -3  -8   33.02   22.11
  -2  -3  -8    5.30   23.49
   2   3   8   -8.99   43.15
   2   3   8   14.11   22.38
   2   3   8   17.72   20.59
  -3   3  -8 4754.87 1155.16
  -3  -3  -8 5500.29 1120.82
  -3   3  -8 3751.34 1235.66
  -3   3  -8 5306.68 1125.13
  -3  -3  -8 4854.08 1093.11
  -3  -3  -8 5376.68 1173.61
   3  -3   8 4102.42 1123.59
   3  -3   8 4906.47 1165.12
   3   3   8 4099.46 1231.96
   3   3   8 4611.11 1103.74
   3   3   8 3987.00 1052.36
  -3   4  -8 1006.55  237.28
  -4  -3  -8 1029.40  245.17
  -3   4  -8  934.75  215.14
  -4  -3  -8 1136.67  242.47
  -3   4  -8  789.94  257.12
  -4  -3  -8 1076.97  247.93
   4   3   8  974.72  241.29
   3  -4   8  952.88  216.20
   3  -4   8  996.33  244.84
   3  -4   8  885.62  233.87
  -4  -2  -8  726.76  201.93
  -4  -2  -8  575.84  197.88
  -2   4  -8  673.50  186.16
  -2   4  -8  999.74  195.97
  -2   4  -8  820.33  178.35
  -2   4  -8  776.79  229.79
   2  -4   8 1069.51  202.43
   4   2   8  641.72  184.80
   2  -4   8  853.30  195.54
   2  -4   8  894.88  199.57
   4   2   8  858.26  202.02
  -1   4  -8   12.19   26.42
  -4  -1  -8   -1.12   24.42
  -1   4  -8   -1.28   17.47
   1  -4   8    9.92   21.16
   0  -4  -8 5271.39 1303.51
   0  -4  -8 5457.64 1240.62
   0   4   8 5193.50 1216.97
  -1  -4  -8   33.15   25.68
  -4   1  -8    6.64   17.11
  -1  -4  -8   50.72   25.70
  -1  -4  -8   12.37   10.07
   1   4   8   -4.25   47.03
   4  -1   8   22.28   15.95
   1   4   8   10.34   32.91
   1   4   8   25.03   25.65
  -2  -4  -8  754.84  188.06
  -2  -4  -8  842.53  199.65
  -2  -4  -8  932.35  182.59
  -4   2  -8  626.33  223.96
   2   4   8  709.42  178.79
   2   4   8  672.41  197.68
   2   4   8  752.92  169.62
   2   4   8  754.17  211.10
  -3  -4  -8 1129.43  242.38
  -4   3  -8  965.02  268.65
  -3  -4  -8  774.98  242.72
  -3  -4  -8 1010.10  218.76
  -4   3  -8  831.17  232.30
   3   4   8  893.57  247.27
   3   4   8  805.44  226.73
   3   4   8 1034.09  219.60
  -4   4  -8  865.38  205.64
  -4   4  -8  717.78  253.66
  -4   4  -8  812.33  226.28
  -4  -4  -8 1027.88  237.72
  -4  -4  -8 1193.36  227.04
   4   4   8  721.59  230.33
   4  -4   8  998.00  206.62
  -4   5  -8   97.16   41.83
  -5  -4  -8   64.27   33.40
  -4   5  -8  104.64   28.41
  -4   5  -8   70.46   33.06
  -4   5  -8   17.24   50.69
   4  -5   8   94.68   34.17
   4  -5   8   77.60   28.85
  -3   5  -8 1782.60  406.80
  -5  -3  -8 1686.76  427.39
  -3   5  -8 1767.57  411.07
  -3   5  -8 1251.93  450.82
  -3   5  -8 1686.03  378.42
   3  -5   8 1853.01  412.36
   3  -5   8 1778.39  432.52
  -2   5  -8  191.31   54.98
  -2   5  -8  187.68   41.76
  -2   5  -8  122.80   61.75
  -2   5  -8  164.01   47.32
   2  -5   8  171.99   52.68
   2  -5   8  208.90   56.65
   2  -5   8  211.94   47.33
  -1   5  -8 1858.74  529.59
   1  -5  -8 1775.22  431.86
  -1   5  -8 1910.81  418.88
  -1   5  -8 1999.41  443.77
   1  -5   8 1573.26  456.42
  -1   5   8 1763.11  478.36
   5   1   8 1996.39  410.48
   1  -5   8 1711.38  463.69
  -1   5   8 1858.39  420.16
   0   5  -8   48.76   40.08
   0   5  -8  -11.37   20.32
  -5   0  -8   -7.29   22.28
   0   5  -8    1.82   37.39
   0  -5  -8   -8.71   14.88
  -5   0  -8   12.42   27.96
   0  -5   8   89.04   52.79
   0   5   8   18.06   53.09
   5   0   8  -19.63   17.00
  -1  -5  -8 1515.06  405.81
  -5   1  -8 1974.64  406.97
  -2  -5  -8  199.99   47.01
  -2  -5  -8  141.83   40.79
  -5   2  -8  160.88   43.80
  -5   2  -8  227.55   49.79
   5  -2   8  103.33   40.14
   2   5   8  122.21   37.00
   2   5   8  178.24   47.47
  -3  -5  -8 1742.67  460.14
  -5   3  -8 2006.40  431.28
   3   5   8 1619.01  422.21
  -5   4  -8   88.25   29.37
  -5   4  -8   94.21   45.91
  -4  -5  -8   76.41   40.67
  -4  -5  -8   63.67   30.83
  -5   4  -8   98.13   40.06
   5  -4   8   57.74   27.09
   4   5   8   65.25   69.05
  -5   5  -8 1201.88  339.51
  -5  -5  -8 1397.31  295.18
   5   5   8 1011.67  300.87
  -5   6  -8  305.45   97.71
  -5   6  -8  367.51   83.50
   6   5   8  254.69  102.25
   5  -6   8  391.55   83.76
  -4   6  -8  426.39  140.22
  -4   6  -8  514.87  137.16
  -4   6  -8  570.98  124.46
   4  -6   8  618.30  151.07
  -3   6  -8 1996.91  565.39
  -3   6  -8 1932.14  498.59
  -3   6  -8 2087.37  478.10
  -3   6  -8 2119.78  516.44
   3  -6   8 2096.99  494.58
   3  -6   8 2095.66  517.94
   3  -6   8 2135.65  548.99
   3  -6   8 2360.09  483.00
   2  -6  -8  734.86  222.44
  -2   6  -8 1003.51  208.67
  -2   6  -8 1020.54  221.39
  -2   6  -8  845.06  200.81
  -2   6  -8  930.85  242.43
  -2   6   8  749.53  244.36
   2  -6   8  955.25  220.55
   2  -6   8 1020.28  216.48
   2  -6   8  955.55  232.17
  -1   6  -8  277.03   57.40
   1  -6  -8  220.01   69.79
  -1   6  -8  177.35   68.58
  -1   6  -8  158.84   74.99
  -1   6   8  272.27   88.55
   1  -6   8  210.01   81.37
  -1   6   8  297.62   67.33
   0  -6  -8   83.94   26.39
   0   6  -8  110.48   29.73
  -6   0  -8   81.23   37.77
   0  -6  -8  124.58   40.97
   0   6  -8   96.02   49.91
   0  -6   8  134.98   66.83
   0   6   8   82.46   39.50
   6   0   8   83.58   29.83
   0   6   8   84.62   68.36
  -6   1  -8  224.59   64.88
   1   6  -8  230.33   62.20
  -6   1  -8  213.95   68.96
  -1  -6  -8  240.43   70.21
   6  -1   8  273.61   59.28
   1   6   8  219.14   64.93
   1   6   8  172.61   94.01
  -2  -6  -8 1103.60  212.19
  -2  -6  -8  823.68  226.26
  -2  -6  -8  917.34  230.87
  -6   2  -8  943.80  223.14
  -2  -6  -8 1005.67  246.31
  -6   2  -8  974.86  215.44
   6  -2   8  926.74  206.44
   2   6   8  898.81  240.06
   2   6   8  866.77  247.51
   2   6   8  887.91  218.29
   2   6   8  830.23  212.88
  -3  -6  -8 2076.23  564.22
  -3  -6  -8 1697.01  498.48
  -3  -6  -8 2238.59  573.99
  -6   3  -8 2196.75  532.75
   3   6   8 2322.76  521.64
   3   6   8 2528.73  556.02
   3   6   8 1942.26  558.01
  -6   4  -8  672.82  147.90
  -6   4  -8  709.84  157.99
  -4  -6  -8  525.85  163.05
   4   6   8  823.72  162.52
  -6   5  -8  458.25  116.92
  -5  -6  -8  418.54   96.22
  -6   5  -8  131.61   98.03
  -6   5  -8  322.31   85.98
   6  -5   8  353.05   83.50
   5   6   8  261.81  105.43
   5   6   8  424.39  126.89
  -6   6  -8   24.25   48.77
  -6   6  -8    7.55   30.70
   6   6   8   10.96   57.44
   6  -6   8   30.65   28.62
  -6   7  -8   -2.64   32.14
  -6   7  -8   23.48   71.71
  -6   7  -8   14.33   55.11
   6  -7   8   -2.51   30.18
  -5   7  -8   -2.01   41.89
  -5   7  -8   28.78   31.70
  -5   7  -8   12.97   49.13
  -5   7  -8   49.63   69.46
   5  -7   8   48.64   30.45
   5  -7   8   -2.07   41.93
  -4   7  -8 1075.96  233.97
  -4   7  -8  939.24  242.48
  -4   7  -8  879.70  218.41
  -4   7  -8  780.99  266.94
   4  -7   8  926.54  263.64
  -3   7  -8  459.82  117.69
  -3   7  -8  570.34  131.58
  -3   7  -8  421.36  147.94
   3  -7   8  483.28  123.52
   3  -7   8  453.31  141.34
   3  -7   8  550.05  120.04
  -2   7  -8  663.85  264.97
   2  -7  -8 1279.42  239.94
  -2   7  -8  782.95  241.00
  -2   7   8 1011.14  226.08
   2  -7   8  819.35  232.78
   2  -7   8  805.09  259.93
  -2   7   8  998.36  268.65
   1  -7  -8  756.22  152.19
  -1   7  -8  614.09  138.27
   1  -7   8  459.40  160.21
  -1   7   8  541.99  180.80
   0   7  -8 -257.57  101.89
   0   7  -8  -40.78   29.79
   0   7  -8 -108.52   66.10
   0   7  -8  -84.73   62.62
   0  -7  -8   13.00   45.83
   0   7   8 -101.26   88.87
   0  -7   8 -140.30   92.03
   0  -7   8 -113.24   57.38
   0   7   8  -54.12   45.30
   1   7  -8  505.67  133.66
   1   7   8  543.08  187.55
  -2  -7  -8 1338.26  260.85
  -2  -7  -8 1063.41  279.08
   2   7   8 1087.03  298.92
   2   7   8 1135.95  261.42
  -3  -7  -8  502.85  130.26
  -7   3  -8  523.80  138.21
  -3  -7  -8  592.54  155.26
   3   7   8  587.59  157.22
   3   7   8  455.99  139.73
  -7   4  -8  982.56  250.61
  -4  -7  -8  841.00  238.61
   4   7   8 1019.85  256.24
   7  -4   8 1185.74  227.12
   4   7   8  889.17  275.90
  -5  -7  -8    4.17   51.13
  -7   5  -8    2.32   45.24
  -7   5  -8    2.90   35.30
   7  -5   8   77.67   30.91
   5   7   8  -49.45   64.73
   5   7   8   15.32   88.77
  -7   6  -8   31.88   55.40
  -7   6  -8   15.04   37.80
   6   7   8   37.32   66.96
   7  -6   8    5.29   31.86
  -7   7  -8  335.35   94.37
  -7   7  -8  339.92  135.55
  -7   7  -8  308.15  109.75
   7  -7   8  443.24   92.20
  -7   8  -8   36.24   62.91
  -7   8  -8   -3.28   40.38
  -7   8  -8   -2.41   87.56
   7  -8   8  -38.72   38.92
  -6   8  -8  240.32   95.44
  -6   8  -8  170.16   52.17
  -6   8  -8  129.60   70.48
   6  -8   8  118.09   48.86
  -5   8  -8   16.46   31.51
  -5   8  -8   23.43   80.27
  -5   8  -8  -42.77   45.26
  -5   8  -8   18.47   52.01
   5  -8   8   -9.52   30.75
   5  -8   8   21.71   52.63
  -4   8  -8  -13.26   41.68
  -4   8  -8   14.04   72.31
  -4   8  -8  -16.92   50.02
  -4   8  -8   -1.99   24.56
   4  -8   8  -28.48   49.79
   4  -8   8    2.12   47.62
   4  -8   8   -6.71   29.92
  -3   8  -8  939.24  267.65
   3  -8  -8  984.59  271.59
  -3   8  -8  993.25  293.69
  -3   8  -8 1212.83  250.60
   3  -8   8  849.08  267.13
   3  -8   8 1013.32  258.55
  -3   8   8 1320.88  301.38
   3  -8   8 1072.24  291.90
  -2   8  -8   89.93   47.88
  -2   8  -8   -7.84   66.98
  -2   8  -8    9.27   22.88
  -2   8  -8   17.19   42.44
   2  -8  -8   20.05   50.79
  -2   8   8    2.53   73.44
   2  -8   8  -31.01   54.09
   2  -8   8   15.45   37.20
   2  -8   8   16.24   54.85
  -2   8   8   66.99   47.18
  -1   8  -8  438.20  113.34
  -1   8  -8  424.80  131.66
  -1   8  -8  320.20   91.00
   1  -8  -8  401.26  104.14
  -1   8  -8  408.97  106.13
   1  -8   8  326.85  106.26
  -1   8   8  338.34  134.18
   1  -8   8  465.14  129.02
  -1   8   8  343.42   96.88
   0   8  -8  310.47   99.78
   0   8  -8  331.52   75.43
   0   8  -8  281.38  120.90
   0   8  -8  442.73   96.36
   0  -8  -8  295.46   88.42
   0  -8   8  287.89  121.65
   0   8   8  270.73   83.24
   0   8   8  319.35  123.83
   0  -8   8  245.21   92.19
   1   8  -8  488.63  119.05
   1   8  -8  402.30   96.25
  -1  -8  -8  337.82  111.14
   1   8   8  453.63  139.93
   1   8   8  326.39  101.90
  -2  -8  -8   30.44   62.60
  -2  -8  -8   -3.33   45.66
   2   8   8  -21.21   51.34
   2   8   8   10.79   85.42
  -3  -8  -8 1039.67  310.83
  -3  -8  -8 1185.46  271.58
   3   8   8 1256.60  304.60
   3   8   8 1092.15  283.66
  -4  -8  -8   -3.91   48.49
   4   8   8  -86.27   99.15
   4   8   8    6.02   67.75
  -5  -8  -8   31.54   57.30
   5   8   8  -62.17   73.97
   5   8   8    6.73   96.41
  -6  -8  -8   50.68   65.82
   6   8   8  147.35   82.34
  -8   7  -8   43.23   64.65
  -8   8  -8  644.52  177.65
  -8   9  -8    3.20   75.46
  -7   9  -8  610.32  139.03
  -7   9  -8  503.71  159.59
   7  -9   8  547.14  135.81
  -6   9  -8  102.39   49.24
  -6   9  -8  116.96  107.36
  -6   9  -8   55.99   69.63
   6  -9   8   41.94   63.08
   6  -9   8  180.59   48.58
  -5   9  -8   41.39   61.81
  -5   9  -8    7.20   48.27
  -5   9  -8   12.50   32.05
  -5   9  -8  -21.98   90.32
   5  -9   8    2.24   59.40
   5  -9   8   -2.69   55.77
   5  -9   8   -5.14   34.46
  -4   9  -8   87.53   39.29
  -4   9  -8   39.21   87.77
  -4   9  -8  138.79   52.66
  -4   9  -8   69.23   60.30
   4  -9   8   58.47   60.01
   4  -9   8  126.65   64.01
   4  -9   8  105.71   41.35
  -3   9  -8   69.27   34.48
   3  -9  -8  121.26   63.36
  -3   9  -8   40.21   54.93
  -3   9  -8  100.04   82.58
  -3   9  -8   65.35   49.91
   3  -9   8   84.17   36.28
  -3   9   8  165.97   90.05
   3  -9   8   76.05   48.50
  -3   9   8  188.66   62.31
   3  -9   8  109.67   62.53
   3  -9   8   55.63   62.16
  -2   9  -8   -8.90   74.84
   2  -9  -8   74.47   56.17
  -2   9  -8   -6.59   50.47
  -2   9  -8   37.49   50.60
  -2   9  -8   10.08   25.84
   2  -9   8    5.55   64.89
  -2   9   8   33.85   50.57
   2  -9   8  -13.77   65.37
  -2   9   8   67.08   91.59
   2  -9   8   48.01   41.94
  -1   9  -8   81.86   80.42
  -1   9  -8   23.34   26.15
  -1   9  -8    2.50   54.74
  -1   9  -8   64.76   59.82
   1  -9  -8  -23.01   55.45
   1  -9   8   44.76   74.05
   1  -9   8   20.45   45.86
  -1   9   8  -65.80   49.77
   1  -9   8  -50.29   73.75
  -1   9   8  -93.62   95.74
   0   9  -8  -36.97   68.21
   0   9  -8  -51.57   62.25
   0  -9  -8   -2.92   58.72
   0   9  -8   -5.97   88.89
   0   9  -8   14.44   26.39
   0   9   8    6.13  101.01
   0   9   8   43.32   51.30
   0  -9   8  -14.14   85.15
   0  -9   8   39.38   48.70
   1   9  -8   21.49   31.28
   1   9  -8   46.41   74.06
  -1  -9  -8    3.15   62.80
   1   9   8   37.43  102.47
   1   9   8   22.38   52.78
  -1  -9   8   -8.81   47.91
  -2  -9  -8   -3.53   71.91
  -2  -9  -8   15.36   52.04
   2   9  -8  -47.13   78.04
   2   9   8   21.38   99.94
   2   9   8   86.74   64.02
  -3  -9  -8   98.99   58.53
  -3  -9  -8   39.94   91.29
   3   9   8  128.48   74.22
   3   9   8   57.15  100.86
  -4  -9  -8  100.67   66.53
   4   9   8   60.71   82.69
   4   9   8  132.20  105.36
  -5  -9  -8  -34.44   58.34
   5   9   8   77.34  108.87
   5   9   8   69.82   80.42
  -6  -9  -8  141.57   71.16
   6   9   8  177.71   95.59
   7   9   8  497.79  157.49
  -8  10  -8  333.51  119.01
  -7  10  -8   83.44   57.55
  -7  10  -8   89.86   80.92
   7 -10   8  198.10   56.42
  -6  10  -8   85.97   54.39
  -6  10  -8  137.92   72.93
  -6  10  -8  124.40  116.90
  -6  10  -8  216.10   71.63
   6 -10   8   44.22   76.77
   6 -10   8  162.29   49.94
  -5  10  -8  402.30  124.87
  -5  10  -8  244.22   81.18
  -5  10  -8  245.60   70.65
  -5  10  -8  226.77   87.36
   5 -10   8  243.82   92.12
   5 -10   8  244.31   97.69
   5 -10   8  237.12   73.16
  -4  10  -8  -27.77   57.37
  -4  10  -8  -18.59   33.50
  -4  10  -8   96.43   94.20
  -4  10  -8  -52.46   55.69
   4 -10   8  -38.50   39.41
   4 -10   8  -13.34   49.88
   4 -10   8  -26.68   65.83
   4 -10   8    8.29   62.05
  -3  10  -8  -20.90   53.43
  -3  10  -8   59.77   30.36
  -3  10  -8    5.04   91.35
  -3  10  -8   -2.25   52.69
   3 -10  -8   18.94   66.95
   3 -10   8   -9.48   33.44
   3 -10   8  -32.71   48.65
  -3  10   8   -6.28   61.26
   3 -10   8  -18.30   65.87
  -3  10   8  -29.30  103.91
   3 -10   8   17.13   64.87
  -2  10  -8   47.13   93.63
  -2  10  -8  118.21   71.45
  -2  10  -8  186.00   48.60
  -2  10  -8   44.60   71.80
   2 -10  -8  186.26   79.92
   2 -10   8  297.06   86.61
   2 -10   8  186.88   91.86
  -2  10   8  110.46  116.03
   2 -10   8  209.43   55.58
   2 -10   8  233.37   65.28
  -2  10   8  222.30   70.24
  -1  10  -8   32.28   65.95
   1 -10  -8   -3.27   67.78
  -1  10  -8  -26.45   25.73
  -1  10  -8  -27.02   61.03
  -1  10  -8  -31.12   93.90
  -1  10   8    3.41  108.48
   1 -10   8  -21.83   83.62
   1 -10   8   -3.82   50.87
   1 -10   8   25.09   87.77
  -1  10   8  -10.90   58.22
   0  10  -8  313.18   82.50
   0  10  -8  397.47  112.27
   0  10  -8  240.78  115.59
   0 -10  -8  417.17  107.10
   0  10  -8  425.35  137.76
   0 -10   8  263.33  100.95
   0 -10   8  238.95  144.59
   0  10   8  423.87  145.58
   0  10   8  373.89   96.33
   1  10  -8  -23.50   85.20
   1  10  -8   21.45   32.62
   1  10  -8   43.37  102.46
  -1 -10  -8   10.91   81.12
  -1 -10   8   24.10   61.17
   1  10   8 -116.48   65.74
   1  10   8  -10.39  115.39
  -2 -10  -8  136.39   80.34
  -2 -10  -8  276.29  102.71
   2  10  -8  139.18   99.62
   2  10   8  299.89  126.08
   2  10   8  246.90   84.83
  -3 -10  -8  -68.27   99.78
  -3 -10  -8  -27.24   66.53
   3  10   8  120.98  107.90
   3  10   8  147.33   78.88
  -4 -10  -8  -63.77   62.26
  -4 -10  -8   14.97  112.70
   4  10   8  -45.52   84.67
   4  10   8  -76.96  117.62
  -5 -10  -8  220.75   86.74
   5  10   8 -188.50  146.27
   5  10   8  299.80  107.24
  -6 -10  -8   35.46   75.70
   6  10   8   47.25  100.39
   6  10   8  264.27  133.46
   7  10   8  152.41  105.22
  -8  11  -8  -28.59   90.56
  -7  11  -8   57.24   50.57
  -7  11  -8  128.56   82.62
   7 -11   8   74.76   47.72
  -6  11  -8  101.87   85.11
  -6  11  -8  110.87   59.66
  -6  11  -8  237.43   75.65
   6 -11   8  146.85   57.37
   6 -11   8  161.49   84.51
   6 -11   8  134.31   89.86
  -5  11  -8   23.17   42.13
  -5  11  -8   19.63   60.11
  -5  11  -8   58.14   66.07
  -5  11  -8  -47.04  117.94
   5 -11   8   25.34   72.01
   5 -11   8    3.29   69.78
   5 -11   8   52.95   37.91
   4 -11  -8  258.73   86.56
  -4  11  -8   70.61   65.25
  -4  11  -8   61.78  114.38
  -4  11  -8  149.44   69.65
  -4  11  -8  103.21   47.76
   4 -11   8  186.51   68.72
   4 -11   8  111.03   79.59
  -4  11   8  295.84  126.01
   4 -11   8  164.52   79.11
   4 -11   8  155.82   49.70
  -3  11  -8   52.32   64.78
   3 -11  -8  219.91   84.67
  -3  11  -8  113.87   40.24
  -3  11  -8    2.83  101.75
  -3  11  -8  136.73   62.44
   3 -11   8  200.55   80.91
  -3  11   8  108.13   72.92
   3 -11   8   86.49   76.26
  -3  11   8 -313.51  125.58
   3 -11   8  107.21   43.23
   3 -11   8   97.84   61.28
  -2  11  -8   16.67   97.78
  -2  11  -8  114.23   34.56
  -2  11  -8   80.42   68.79
  -2  11  -8   85.33   66.67
   2 -11   8   29.53   37.59
  -2  11   8   52.56  144.36
   2 -11   8   73.34   86.09
   2 -11   8 -103.86   87.95
   2 -11   8   58.42   58.86
  -2  11   8 -245.07   83.61
  -1  11  -8  955.53  209.15
  -1  11  -8  559.62  194.19
  -1  11  -8  734.14  180.86
  -1  11  -8  576.14  163.82
   1 -11   8  768.49  231.35
   1 -11   8  772.30  199.22
   1 -11   8  675.89  179.48
  -1  11   8  909.12  235.96
   0 -11  -8    7.70   95.23
   0  11  -8  -15.32   85.75
   0  11  -8    1.92   32.68
   0  11  -8   13.97  106.18
   0 -11   8   17.23  121.01
   0 -11   8   47.34   64.70
   1  11  -8  520.24  157.21
   1  11  -8  613.72  214.05
  -1 -11  -8 1157.32  190.92
   1  11  -8  699.06  190.82
  -1 -11   8  546.22  179.61
   2  11  -8  157.99  102.23
  -2 -11  -8   75.03   81.58
  -2 -11  -8 -266.62  118.48
  -3 -11  -8  123.13   75.40
  -3 -11  -8  209.84  122.75
   3  11   8    3.85   88.93
   3  11   8   11.08  135.13
  -4 -11  -8  274.80   83.53
  -4 -11  -8   11.19  136.29
   4  11   8 -129.72  139.78
   4  11   8  155.88  102.66
  -5 -11  -8  148.30   78.40
   5  11   8  -52.68  135.53
   5  11   8 -343.81  102.94
  -6 -11  -8  141.54   88.37
   6  11   8  351.49  115.33
   6  11   8    4.68  141.44
   7  11   8   24.52  108.42
  -8  12  -8   69.77   95.89
  -7  12  -8   39.86   83.24
   7 -12   8  -42.11  101.65
   7 -12   8   34.04   52.49
  -6  12  -8    5.99   77.59
  -6  12  -8   50.29   49.35
   6 -12   8   49.33   82.83
   6 -12   8   27.95   48.49
   6 -12   8   20.57   89.18
  -5  12  -8    6.95  131.02
  -5  12  -8   45.74   66.04
   5 -12   8    5.41   80.02
   5 -12   8  -15.77   45.62
   5 -12   8   21.70   79.32
  -4  12  -8  -13.07  124.10
  -4  12  -8  115.65   68.37
   4 -12   8   55.44   78.23
   4 -12   8   -2.87   47.01
   4 -12   8   34.94   71.52
   4 -12   8   31.76   80.01
  -3  12  -8  -70.72   66.61
  -3  12  -8  -75.75  113.07
   3 -12  -8   27.49   85.40
  -3  12   8   25.63   76.83
   3 -12   8  -42.89   65.15
   3 -12   8    7.26   82.89
  -2  12  -8  753.76  229.11
   2 -12  -8  769.41  202.87
  -2  12  -8  592.70  188.69
   2 -12   8  431.86  212.46
  -2  12   8  813.58  181.06
   2 -12   8  533.18  199.01
   1 -12  -8   42.06   88.41
  -1  12  -8  -68.88  111.52
  -1  12  -8   21.89   83.00
  -1  12   8    4.22  145.52
   1 -12   8   33.75   67.65
   1 -12   8  -41.15  107.54
  -1  12   8    3.37   74.34
   0  12  -8 1687.60  355.82
   0 -12  -8 1417.55  355.45
   0  12  -8 1262.29  395.71
   0  12   8 1450.04  403.95
   0 -12   8 1228.64  349.10
   0  12   8 1502.42  326.35
   0 -12   8 1102.16  381.97
  -1 -12  -8  -85.51  107.16
  -1 -12  -8  -34.03   86.79
   1  12  -8    4.80  105.84
   1  12  -8 -152.63  121.10
  -1 -12   8   11.41   73.89
   1  12   8 -247.55  147.24
   1  12   8 -203.87   87.14
  -2 -12  -8 1052.46  263.77
  -2 -12  -8  843.06  236.15
   2  12  -8 1152.99  254.42
   2  12   8 1095.32  233.68
   2  12   8  571.24  274.35
  -3 -12  -8  -51.92   90.69
  -3 -12  -8   91.94  128.49
   3  12   8 -184.69  136.70
   3  12   8   21.35   96.59
  -4 -12  -8  267.19  154.17
  -4 -12  -8  356.68   97.34
   4  12   8   79.13  114.41
  -5 -12  -8 -105.47  149.89
   5  12   8  -39.63  114.64
  -5  13  -8  307.94   94.35
  -5  13  -8  731.81  168.69
   5 -13   8  -15.85  109.47
   5 -13   8   77.67  104.92
  -4  13  -8  -10.89  128.74
  -4  13  -8  -32.24   72.17
   4 -13  -8  -37.65   99.77
  -4  13   8  -25.24   82.74
   4 -13   8  -54.49   79.22
   4 -13   8   50.05   85.76
   3 -13  -8  499.07  105.97
  -3  13  -8   36.13   74.60
  -3  13  -8 -149.01  125.44
   3 -13   8    4.91   75.85
  -3  13   8  275.88   83.91
  -3  13   8 -242.40  153.87
   3 -13   8  -20.30   95.58
  -2  13  -8   71.31   81.40
  -2  13  -8  -70.21  118.17
   2 -13   8  -10.10   72.22
   2 -13   8   44.70  106.40
  -2  13   8    4.62  159.06
  -1  13  -8  444.22  179.82
  -1  13  -8  677.10  151.30
  -1  13   8  675.93  211.17
   1 -13   8  465.05  174.13
   1 -13   8  332.52  142.97
   0  13  -8  -28.78  129.32
   0  13  -8  -23.24  106.78
   0 -13   8 -102.50  133.27
   0 -13   8   -5.74   75.86
   1  13  -8  552.15  184.65
   1  13  -8  811.38  165.15
  -1 -13   8   93.00  140.18
   2  13  -8    5.74  128.65
  -2 -13   8   -6.56   67.83
  -3 -13  -8  105.14   97.22
   3  13   8  159.78  160.16
  -4 -13  -8  -13.88   94.78
   4  13   8   -4.95  161.29
  -5 -13  -8  283.72  184.05
  -5 -13  -8   58.10  116.10
   5  13   8  662.69  191.86
   5  13   8  217.16  140.31
  -6 -13  -8    7.71  101.74
   6  13   8  -33.91  130.80
   6  13   8  236.48  171.20
   7  13   8  124.36  134.58
   5 -14   8   -4.34   96.94
  -4  14  -8   17.75   82.62
   4 -14  -8 -242.81  112.90
   4 -14   8  -29.83  100.28
  -4  14   8  -91.38   92.22
   3 -14  -8  -51.06  110.93
  -3  14  -8  -21.91   83.27
  -3  14   8    4.39   90.84
   3 -14   8  -18.06  108.73
   2 -14  -8  112.81  110.10
  -2  14  -8  -75.29   92.97
  -2  14   8 -214.52   93.92
  -2  14   8   -5.10  181.09
   2 -14   8    9.87  121.04
   1 -14  -8   21.56  121.49
  -1  14   8 -519.86  196.79
  -1  14   8    4.21  101.06
   0 -14  -8  569.59  179.46
   0 -14  -8  335.00  183.58
   0  14   8  247.32  164.93
  -1 -14  -8 -290.88  150.84
  -1 -14  -8 -208.20  175.01
   1  14   8 -423.35  145.71
   1  14   8 -383.03  195.09
  -2 -14  -8  -43.27  109.98
  -2 -14  -8  -71.91  152.54
   2  14  -8  496.03  133.53
  -2 -14   8   -7.07   96.63
   2  14   8 -357.01  126.17
  -3 -14  -8  -14.06  161.05
  -3 -14  -8    7.41  109.29
   3  14   8 -427.89  175.97
   3  14   8  298.01  123.23
  -4 -14  -8  288.18  181.23
  -4 -14  -8    7.73  110.05
   4  14   8    5.48  182.29
   4  14   8   -5.60  127.88
  -5 -14  -8   -7.98  186.91
  -5 -14  -8  121.15  122.30
   5  14   8    5.75  179.10
   5  14   8  338.08  139.29
  -6 -14  -8  -67.75  116.36
  -6 -14  -8   24.87  197.19
   6  14   8 -329.08  186.46
   6  14   8  210.71  139.90
   7  14   8  154.22  149.40
   4 -15  -8  -72.34  124.54
  -4  15  -8 -149.73  155.46
  -4  15  -8  -93.51   86.48
   4 -15   8   -9.42  107.46
   4 -15   8  101.94   99.58
  -4  15   8 -114.88  101.25
   3 -15  -8    6.35  125.49
  -3  15  -8  -25.17  142.96
  -3  15  -8  -32.64   92.47
  -3  15   8   67.88  101.51
   3 -15   8    6.29   94.97
   3 -15   8   29.88  120.26
  -2  15  -8    4.39  101.28
   2 -15  -8   78.66  117.52
  -2  15  -8  -87.89  145.23
  -2  15   8    5.63  191.49
  -2  15   8    4.67   97.04
   2 -15   8  -32.81  124.96
   2 -15   8   19.48   98.20
  -1  15  -8   24.50  112.45
  -1  15  -8  -41.67  144.74
   1 -15  -8  -60.92  127.66
   1 -15   8    6.12  144.88
  -1  15   8   -4.78  101.57
   1 -15   8   -6.63   92.08
  -1  15   8  -22.39  203.85
   0 -15  -8  -48.64  123.09
   0  15  -8   78.15  153.51
   0  15  -8   22.16  124.49
   0 -15  -8   38.07  135.17
   0  15   8  198.70  199.10
   0  15   8 -330.62  116.49
   0 -15   8    6.82  157.60
   0 -15   8 -189.05   94.17
  -1 -15  -8  -80.52  128.15
   1  15  -8   31.04  139.33
   1  15  -8   66.46  154.28
  -1 -15  -8  102.16  146.69
  -1 -15   8    7.38   96.09
   1  15   8 -349.61  128.04
  -1 -15   8   -7.50  180.25
   1  15   8    5.50  191.07
   2  15  -8   -6.80  147.09
  -2 -15  -8  -32.65  124.54
  -2 -15  -8 -276.58  169.27
   2  15   8 -174.05  122.40
   2  15   8  119.24  187.50
  -2 -15   8  -22.96   95.66
  -3 -15  -8 -101.53  184.71
  -3 -15  -8 -116.75  123.62
   3  15   8   22.65  188.27
   3  15   8   17.27  124.09
  -4 -15  -8  -24.91  190.26
  -4 -15  -8  146.51  124.45
   4  15   8  -30.54  135.65
   4  15   8  211.21  204.76
  -5 -15  -8  -26.29  206.96
  -5 -15  -8  -71.87  118.48
   5  15   8   -6.33  195.09
   5  15   8  -51.94  146.33
  -6 -15  -8  -65.34  120.41
  -6 -15  -8  490.23  221.87
   6  15   8 -254.25  201.10
   6  15   8 -134.84  149.83
  -7 -15  -8  171.46  128.43
  -7 -15  -8   83.81  225.16
   7  15   8  361.53  165.73
   5 -16  -8   82.97  138.46
  -5  16   8 -375.92  218.21
   4 -16  -8    7.32  146.93
  -4  16   8   -5.47  115.69
   4 -16   8  -57.14  136.19
   4 -16   8 -530.38  124.01
  -3  16  -8 -243.41  122.60
   3 -16  -8 -505.93  150.10
   3 -16   8    7.16  121.44
   3 -16   8   -5.49  143.89
  -3  16   8    5.38  113.15
   2 -16  -8 -409.71  143.00
  -2  16  -8  -48.52  114.81
   2 -16   8  102.11  107.53
  -2  16   8    5.21  111.13
   2 -16   8  -12.02  144.24
  -2  16   8    6.14  215.11
   1 -16  -8   -9.17  136.05
  -1  16  -8 -244.47  172.96
  -1  16  -8   53.65  123.68
   1 -16  -8  137.52  146.67
   1 -16   8   81.99  107.26
   1 -16   8  -13.35  160.40
  -1  16   8 -200.35  215.89
  -1  16   8   -5.34  117.47
   0  16  -8 -286.71  168.63
   0 -16  -8 -117.69  144.38
   0 -16  -8 -100.15  156.52
   0  16  -8  -42.21  138.52
   0 -16   8  -23.25  106.62
   0 -16   8   -7.46  182.54
   0  16   8  -18.01  203.85
   0  16   8   -5.50  119.30
  -1 -16  -8  320.44  174.22
   1  16  -8   67.50  155.15
   1  16  -8  309.29  168.23
  -1 -16  -8 -153.00  142.33
  -1 -16   8   48.96  194.79
  -1 -16   8  104.94  112.63
   1  16   8  427.80  137.40
   1  16   8   29.86  206.80
  -2 -16  -8   -8.10  180.44
  -2 -16  -8  118.34  138.87
   2  16  -8    7.35  168.04
   2  16   8    6.03  136.84
  -2 -16   8  -74.75  120.88
   2  16   8  -17.61  211.35
  -2 -16   8   17.48  207.88
  -3 -16  -8  171.47  196.58
  -3 -16  -8   94.52  133.19
   3  16   8 -324.08  148.23
   3  16   8    6.26  211.28
  -4 -16  -8   -9.12  214.63
  -4 -16  -8  -76.90  141.21
   4  16   8 -120.04  155.83
   4  16   8 -251.80  229.33
  -5 -16  -8  -19.09  228.03
  -5 -16  -8   30.03  137.28
   5  16   8 -245.52  153.03
   5  16   8 -276.60  227.70
  -6 -16  -8  691.96  242.16
  -6 -16  -8  -30.93  140.21
   6  16   8   28.44  217.71
   6  16   8   14.64  162.31
  -7 -16  -8   30.49  231.97
   7  16   8   75.49  165.22
   5 -17  -8    8.39  159.20
  -5  17   8    6.98  236.24
   4 -17  -8   -8.19  162.18
  -4  17   8    6.05  118.89
  -4  17   8  157.69  234.99
   3 -17  -8  344.78  164.05
  -3  17  -8   20.00  108.30
  -3  17  -8  164.29  178.04
  -3  17   8 -185.46  127.28
   3 -17   8  -18.12  145.40
   3 -17   8 -242.98  121.07
   2 -17  -8 -285.87  161.19
   2 -17  -8  -10.32  158.90
  -2  17  -8   48.29  121.99
  -2  17  -8  -65.33  179.57
   2 -17   8   74.17  120.54
   2 -17   8   -6.60  151.45
  -2  17   8 -215.10  122.97
  -1  17  -8  -70.91  127.64
  -1  17  -8 -320.92  181.25
   1 -17  -8  -10.17  152.50
   1 -17  -8  364.77  172.92
   1 -17   8   29.09  175.46
  -1  17   8   -5.96  128.13
   1 -17   8 -115.97  113.69
  -1  17   8   13.16  224.44
   0  17  -8  -32.82  145.01
   0  17  -8  -81.09  174.70
   0 -17  -8 -249.35  172.49
   0 -17  -8  -30.34  165.61
   0  17   8  -91.62  227.46
   0  17   8    6.20  135.94
   0 -17   8  -40.45  196.17
   0 -17   8  214.55  120.34
   1  17  -8  233.44  187.35
  -1 -17  -8  345.12  164.59
   1  17  -8  -94.59  174.20
  -1 -17  -8 -169.70  188.58
  -1 -17   8  -53.06  134.31
   1  17   8    6.44  226.71
   1  17   8   12.87  141.14
  -1 -17   8   53.30  219.39
  -2 -17  -8   41.32  153.77
   2  17   8  348.10  151.87
   2  17   8   -6.52  216.68
  -3 -17  -8 -137.89  160.83
  -3 -17  -8  -28.43  212.63
   3  17   8   69.95  158.62
   3  17   8    6.95  231.23
  -4 -17  -8  -21.64  150.60
  -4 -17  -8  307.92  222.35
   4  17   8 -358.67  233.31
   4  17   8  189.56  165.40
  -5 -17  -8  156.40  145.27
  -5 -17  -8   72.63  239.40
   5  17   8 -205.24  168.91
   5  17   8 -173.76  236.01
  -6 -17  -8  205.34  154.30
  -6 -17  -8  723.31  243.33
   6  17   8 -402.58  180.56
   6  17   8 -186.46  232.40
  -7 -17  -8  622.55  856.95
   7  17   8 5224.74  777.78
   5 -18  -8    9.35  181.92
  -5  18   8 -276.16  278.12
  -4  18   8 4300.28  927.74
   3 -18   8   26.51  154.95
   3 -18   8   18.42  145.87
  -2  18  -8  -53.19  131.44
   2 -18  -8  314.49  189.31
  -2  18  -8 -170.03  206.82
   2 -18   8  156.18  137.00
  -2  18   8  -99.44  143.16
   2 -18   8   -7.25  165.56
  -1  18  -8  198.32  200.75
   1 -18  -8 -411.74  191.86
  -1  18  -8  -45.39  148.92
   1 -18  -8  -34.03  168.63
   1 -18   8    9.22  128.78
   1 -18   8  -23.91  182.49
  -1  18   8 -266.09  142.16
  -1  18   8  193.31  246.72
   0  18  -8 -221.20  188.41
   0 -18  -8   11.29  173.38
   0  18  -8  -92.97  161.60
   0 -18  -8   63.30  203.05
   0  18   8   -6.90  147.04
   0 -18   8  -43.71  208.30
   0 -18   8   -9.59  138.54
   0  18   8  -28.42  257.38
   1  18  -8  -87.01  175.53
  -1 -18  -8   11.44  176.63
   1  18  -8   -6.51  196.14
  -1 -18  -8   37.82  211.69
   1  18   8   28.07  240.88
  -1 -18   8  155.34  132.54
   1  18   8    7.20  153.72
  -1 -18   8   -9.60  232.60
  -2 -18  -8 -538.19  226.75
  -2 -18  -8  -69.73  165.45
   2  18  -8  -60.27  192.73
   2  18   8 -592.25  167.78
  -2 -18   8  -82.25  250.87
   2  18   8 -182.07  245.21
  -3 -18  -8   11.98  169.63
  -3 -18  -8  260.08  240.94
   3  18   8 -453.72  187.09
  -4 -18  -8 1481.54  705.88
   4  18   8 2865.04  613.09
  -5 -18  -8   37.69  170.37
  -5 -18  -8 -316.92  277.87
   5  18   8 -173.62  196.20
   5  18   8-1000.00  286.87
  -6 -18  -8 -281.09  271.36
  -6 -18  -8  -12.65  156.66
   6  18   8  -17.19  185.02
   6  18   8  -25.52  259.13
  -7 -18  -8 -277.46  286.43
   7  18   8  214.01  198.52
   5 -19  -8   20.94  202.14
   4 -19  -8   10.34  211.05
  -4  19   8 -450.81  167.35
  -4  19   8 -452.74  287.05
   3 -19  -8  -40.85  219.63
  -3  19   8  144.57  297.11
  -3  19   8  -97.37  157.09
   2 -19  -8   10.01  217.52
  -2  19  -8  -52.50  151.19
  -2  19  -8   -6.71  215.56
  -2  19   8    7.41  159.19
   2 -19   8 -227.92  159.30
   2 -19   8   47.51  182.91
  -1  19  -8  -14.20  159.35
   1 -19  -8   25.30  207.21
  -1  19  -8  219.20  222.73
   1 -19  -8   29.66  215.25
  -1  19   8   23.40  257.82
  -1  19   8 -212.32  167.05
   1 -19   8   52.08  204.74
   1 -19   8 -146.67  145.68
   0  19  -8    6.90  208.69
   0  19  -8  -31.17  178.41
   0 -19  -8   12.71  202.29
   0 -19  -8  111.77  224.28
   0 -19   8  -28.36  235.64
   0 -19   8   21.31  150.96
   0  19   8   15.35  174.68
   0  19   8 -267.76  261.02
  -1 -19  -8  -73.50  242.33
   1  19  -8 -213.28  211.90
   1  19  -8  -76.61  188.35
  -1 -19  -8   12.75  184.33
   1  19   8 -290.49  260.73
  -1 -19   8  -64.16  144.29
   1  19   8    7.99  173.61
  -1 -19   8   41.39  259.59
   2  19  -8    9.24  205.47
  -2 -19  -8  -92.43  209.48
  -2 -19  -8  342.05  246.65
  -2 -19   8  -11.09  269.38
   2  19   8    8.08  275.22
   2  19   8    8.26  179.88
  -3 -19  -8  267.11  201.28
  -3 -19  -8 -481.50  261.53
   3  19   8 -382.38  289.53
   3  19   8  144.28  191.19
  -4 -19  -8 -261.26  279.14
  -4 -19  -8   95.80  208.16
   4  19   8 -317.03  285.81
   4  19   8   -8.74  211.70
  -5 -19  -8  -42.06  195.47
  -5 -19  -8  822.79  290.67
   5  19   8    9.02  272.89
   5  19   8 -152.67  203.83
  -6 -19  -8  190.39  295.20
   6  19   8  371.33  222.95
   2 -20   8  196.36  177.29
  -1  20  -8  -93.73  178.11
  -1  20  -8 -285.41  254.73
   1 -20   8  -11.74  161.47
   1 -20   8  -28.39  221.78
   0  20  -8  393.58  234.09
   0  20  -8  -59.49  191.51
   0 -20   8   11.85  166.66
   0 -20   8  -41.23  241.19
   1  20  -8 -138.23  209.99
  -1 -20   8  -47.22  153.45
  -1 -20   8  -11.13  265.23
   2  20  -8   49.81  222.33
  -2 -20   8  -35.81  284.68
   0   0  -9   12.74   15.64
   0   0  -9    3.46   26.82
   0   0   9   -5.93   36.80
  -1   0  -9 2198.97  466.30
   0   1  -9 1976.46  456.86
  -1   0  -9 2054.91  430.86
   0   1   9 1633.83  478.01
   0  -1   9 2261.44  483.44
   1   0   9 1830.58  473.67
  -1  -1  -9  -12.59   11.76
  -1   1  -9   17.25   28.13
  -1  -1  -9   33.74   26.21
   1   1   9  -10.65   20.85
   1  -1   9  -26.78   33.17
   1   1   9    9.62   30.73
  -2  -1  -9   17.19   26.63
  -2  -1  -9    8.67   11.99
  -2  -1  -9   24.40   13.19
   2   1   9   18.22   16.04
   2   1   9   24.65   23.81
   2   1   9   33.82   26.43
  -2   0  -9  -11.72   26.25
  -2   0  -9   22.98   11.37
   0  -2  -9   -7.20   16.63
   0   2   9    3.54   24.25
   2   0   9   -8.47   24.83
  -1  -2  -9   31.69   17.42
  -1  -2  -9   34.12   14.15
  -1  -2  -9   13.53   28.73
   1   2   9   26.21   31.29
   1   2   9   28.45   33.65
   1   2   9   14.08   21.70
  -2  -2  -9    3.47   27.30
  -2  -2  -9   10.49   17.49
  -2  -2  -9   -0.78   11.49
   2   2   9    1.41   19.05
   2   2   9   11.93   36.33
   2   2   9   15.20   24.56
  -2   3  -9  244.42   69.20
  -2   3  -9  247.48   58.18
  -3  -2  -9  277.54   63.49
  -3  -2  -9  249.62   64.80
  -2   3  -9  246.53   59.68
  -3  -2  -9  175.97   68.65
   3   2   9  231.74   66.96
   3   2   9  259.95   78.99
   2  -3   9  252.37   70.58
   2  -3   9  235.77   63.83
   3   2   9  313.20   56.97
   3   2   9  250.06   62.40
  -3  -1  -9  187.79   31.69
  -3  -1  -9  133.11   41.71
  -3  -1  -9  119.18   34.00
  -1   3  -9   82.89   33.29
  -3  -1  -9  120.65   35.64
   3   1   9   80.50   44.70
   3   1   9  135.33   31.04
   3   1   9  145.93   40.24
   3   1   9   97.69   32.99
   0   3  -9   39.19   21.67
   0  -3  -9   21.30   18.98
   0   3   9   55.80   36.49
  -1  -3  -9   91.18   35.71
  -1  -3  -9   87.96   31.07
  -1  -3  -9  183.46   41.79
   1   3   9   89.96   37.34
   1   3   9  147.96   47.33
   1   3   9   95.59   52.68
  -2  -3  -9  271.20   64.16
  -2  -3  -9  243.41   70.79
  -3   2  -9  280.50   69.96
  -3   2  -9  255.23   59.23
  -2  -3  -9  231.35   59.33
   2   3   9  226.12   80.99
   2   3   9  239.86   63.07
   3  -2   9  237.51   69.59
   2   3   9  329.32   70.33
  -3  -3  -9   -4.88   28.98
  -3   3  -9   -1.24   15.10
  -3   3  -9    7.87   32.23
  -3  -3  -9    3.74   13.44
  -3  -3  -9    7.65   22.69
  -3   3  -9    1.68   23.77
  -3  -3  -9   -9.39   25.28
  -3   3  -9    6.09   13.65
   3   3   9   -7.90   22.41
   3   3   9   -4.70   42.65
   3   3   9    5.27   12.59
   3  -3   9   -4.59   13.37
   3  -3   9  -14.13   31.64
   3   3   9   -1.00   26.47
   3  -3   9    6.10   12.98
  -4  -3  -9  483.68  134.13
  -4  -3  -9  359.77  134.96
  -3   4  -9  497.92  132.92
  -3   4  -9  537.96  119.07
  -3   4  -9  582.38  132.39
  -4  -3  -9  474.21  137.15
  -3   4  -9  406.63  147.76
   4   3   9  532.44  154.09
   3  -4   9  483.44  127.63
   3  -4   9  500.89  138.03
   3  -4   9  566.44  130.91
   4   3   9  604.62  123.38
   4   3   9  850.61  134.27
  -2   4  -9    0.80   20.83
  -2   4  -9  -22.08   39.22
  -4  -2  -9    7.08   26.78
  -2   4  -9   21.26   39.38
  -2   4  -9   12.99   16.58
   2  -4   9    8.94   36.04
   4   2   9  -14.80   27.60
   2  -4   9    0.97   27.40
   2  -4   9   -5.62   20.97
  -1   4  -9  274.17   86.29
  -1   4  -9  326.45   71.41
  -1   4  -9  306.13   78.87
   4   1   9  302.81   79.85
   1  -4   9  326.68   91.94
   0  -4  -9   -2.41   18.55
   0   4  -9    1.77   21.01
   0   4  -9   -2.18   44.05
  -4   0  -9  -26.75   18.56
   0  -4  -9   20.05   27.44
   4   0   9   19.57   16.14
   0  -4   9   55.57   53.19
   0   4   9    5.91   29.37
  -4   1  -9  181.35   69.04
  -4   1  -9  388.25   80.21
  -1  -4  -9  326.16   74.29
   4  -1   9  338.63   68.20
   1   4   9  266.55   87.23
   1   4   9  188.21   73.44
   1   4   9  311.03   97.98
  -2  -4  -9    7.51   10.09
  -2  -4  -9   -2.69   28.54
  -2  -4  -9  -16.41   28.77
  -4   2  -9   11.16   17.04
  -4   2  -9   -7.63   32.46
   2   4   9   -3.39   27.48
   2   4   9   -8.11   10.05
   2   4   9    7.37   53.48
   2   4   9   14.29   27.38
   4  -2   9   10.44   17.47
  -3  -4  -9  569.01  133.03
  -4   3  -9  466.27  131.23
  -3  -4  -9  492.59  121.10
  -3  -4  -9  495.59  127.68
  -4   3  -9  545.96  142.33
  -3  -4  -9  487.17  135.93
   3   4   9  378.55  143.09
   3   4   9  583.03  132.94
   3   4   9  476.65  125.57
  -4  -4  -9   59.69   28.74
  -4   4  -9   15.23   33.47
  -4   4  -9    1.76   37.21
  -4  -4  -9    4.54   19.63
  -4   4  -9    9.51   21.01
  -4  -4  -9    3.12   26.25
   4   4   9  -40.62   39.77
   4  -4   9  -17.28   20.08
   4   4   9   -1.15   15.21
  -4   5  -9  799.08  209.97
  -4   5  -9  614.14  223.97
  -4   5  -9  885.94  185.49
  -4   5  -9  701.60  206.42
  -5  -4  -9  934.12  215.78
   4  -5   9  768.12  208.21
   4  -5   9 1013.05  186.51
   4  -5   9  629.44  219.08
  -3   5  -9  922.25  233.06
  -3   5  -9  832.83  228.70
  -3   5  -9  790.33  261.64
   3  -5   9  820.69  245.16
   3  -5   9 1011.65  225.90
   3  -5   9  943.89  235.16
  -5  -2  -9  919.36  188.54
  -2   5  -9  785.97  185.24
  -2   5  -9  570.05  172.90
  -2   5  -9  608.23  222.84
   2  -5   9  779.04  193.28
   2  -5   9  736.02  183.19
   2  -5   9  850.66  190.89
   1  -5  -9  415.94  113.99
  -1   5  -9  501.34  109.75
  -5  -1  -9  417.20  113.71
  -1   5  -9  522.75  119.59
  -5  -1  -9  414.24  110.04
  -1   5  -9  399.16   99.66
   1  -5   9  530.31  126.44
  -1   5   9  359.41  112.13
   1  -5   9  463.93  117.87
  -1   5   9  223.31  129.46
   5   1   9  586.46  102.96
  -5   0  -9  826.49  192.20
   0  -5  -9  767.68  201.73
   0   5  -9  825.14  174.34
   0   5  -9  557.18  201.29
   0  -5  -9  792.44  186.15
  -5   0  -9  778.34  184.08
   5   0   9  811.58  176.70
   0  -5   9  661.16  219.96
   0   5   9  939.23  216.88
  -5   1  -9  502.96  112.01
  -5   1  -9  357.25  103.59
  -1  -5  -9  439.91  104.90
   5  -1   9  429.42  100.29
   1   5   9  405.98  135.14
  -2  -5  -9  833.98  200.09
  -2  -5  -9  756.89  186.09
  -5   2  -9  844.11  190.07
   2   5   9  757.06  203.57
   5  -2   9  915.32  174.15
   2   5   9  621.68  171.93
  -3  -5  -9 1206.35  284.83
  -5   3  -9 1326.00  269.87
  -3  -5  -9 1123.87  255.56
  -5   3  -9 1106.77  319.42
   3   5   9  942.24  260.12
   3   5   9 1382.41  287.38
   3   5   9 1019.35  279.19
  -5   4  -9  848.26  192.36
  -5   4  -9  830.78  212.34
  -4  -5  -9 1092.68  225.15
  -4  -5  -9  554.58  204.04
  -5   4  -9  975.60  248.02
   4   5   9  903.39  236.75
   5  -4   9  731.48  192.69
  -5   5  -9  -11.71   45.62
  -5  -5  -9  -31.34   28.65
  -5   5  -9  -24.17   43.72
  -5  -5  -9   -6.85   39.76
  -5   5  -9   -6.00   26.67
   5  -5   9  -26.62   25.39
   5   5   9  -49.81   52.77
  -5   6  -9  122.18   53.13
  -5   6  -9   25.42   30.27
   5  -6   9   39.56   32.05
   6   5   9   82.49   57.04
  -4   6  -9  982.89  243.05
  -4   6  -9 1090.97  282.75
  -4   6  -9 1315.52  263.44
  -4   6  -9 1022.11  264.14
   4  -6   9 1054.32  245.20
   4  -6   9 1200.24  279.13
   4  -6   9 1329.55  266.08
  -6  -3  -9 1604.90  399.57
  -3   6  -9 1596.32  428.88
  -3   6  -9 1485.59  373.66
   3  -6   9 1708.47  389.69
   3  -6   9 1516.61  376.85
   3  -6   9 1541.24  410.39
  -2   6  -9  840.79  187.04
  -2   6  -9  917.43  241.98
  -2   6  -9  819.81  209.46
  -2   6  -9  798.92  195.25
  -6  -2  -9  661.43  209.56
  -2   6   9  867.79  231.64
   2  -6   9  892.55  219.58
   2  -6   9  989.50  210.61
   2  -6   9  747.08  207.00
  -1   6  -9  438.86  105.54
   1  -6  -9  462.70  119.55
  -6  -1  -9  443.44  118.69
  -1   6  -9  467.17  115.79
  -1   6  -9  570.66  126.96
  -1   6   9  551.47  115.84
  -1   6   9  494.89  137.85
   1  -6   9  496.28  135.99
   6   1   9  317.05  109.50
  -6   0  -9   18.22   25.92
   0  -6  -9  -13.44   15.43
  -6   0  -9  -11.37   32.78
   0   6  -9    7.49   49.18
   0   6  -9   -1.83   25.07
   0  -6  -9  -17.21   35.76
   6   0   9    7.45   20.82
   0  -6   9  -22.75   63.63
   0   6   9   18.88   34.87
   0   6   9   36.53   65.14
  -1  -6  -9  419.58  113.73
  -6   1  -9  583.35  117.57
   1   6  -9  546.31  114.59
  -1  -6  -9  516.20  118.98
  -6   1  -9  459.72  122.14
   1   6   9  492.27  115.25
   1   6   9  474.78  148.10
   6  -1   9  458.66  111.84
  -6   2  -9  751.39  201.68
  -6   2  -9  768.93  211.56
  -2  -6  -9  910.94  211.11
  -2  -6  -9  906.53  217.93
  -2  -6  -9  980.29  221.51
   2   6   9  871.03  199.36
   2   6   9  832.79  199.26
   2   6   9  778.73  232.12
   2   6   9  999.79  239.93
  -3  -6  -9 1451.39  422.25
  -3  -6  -9 1871.28  434.75
  -3  -6  -9 1441.20  381.24
  -6   3  -9 1523.70  402.03
   3   6   9 1867.00  397.04
   3   6   9 1289.95  425.85
   3   6   9 2217.50  432.20
  -6   4  -9 1161.86  317.21
  -6   4  -9 1296.24  269.03
  -6   4  -9 1336.15  253.95
  -4  -6  -9  964.08  260.84
  -4  -6  -9 1058.96  287.87
   6  -4   9 1253.19  251.19
   4   6   9 1216.36  273.80
   4   6   9 1106.73  291.67
  -5  -6  -9   77.97   35.18
  -5  -6  -9   97.56   48.12
  -6   5  -9   74.15   48.96
  -6   5  -9   86.04   55.92
  -6   5  -9   16.73   34.41
   5   6   9   95.38   83.63
   5   6   9   79.21   58.70
   6  -5   9   82.31   32.00
  -6   6  -9  -10.02   30.09
  -6   6  -9  -18.77   50.97
   6   6   9  -35.13   60.28
   6  -6   9  -17.04   30.95
  -6   7  -9  -13.19   31.41
  -6   7  -9   -5.70   71.52
  -6   7  -9  -27.46   58.27
   6  -7   9  -12.98   32.80
  -5   7  -9  336.98   95.34
  -5   7  -9  460.67  126.20
  -5   7  -9  313.27  111.55
  -5   7  -9  392.02  108.08
   5  -7   9  473.46   97.39
  -4   7  -9   24.48   61.50
  -4   7  -9   23.06   25.75
  -4   7  -9   14.96   49.04
   4  -7   9  -20.66   49.30
   4  -7   9    4.36   27.71
  -3   7  -9 2815.11  795.98
  -3   7  -9 3409.82  870.75
   3  -7   9 3252.97  855.87
   3  -7   9 3157.47  777.56
   2  -7  -9   93.06   47.69
  -2   7  -9   22.19   23.34
  -2   7  -9   25.08   47.16
  -2   7  -9   95.00   64.35
  -2   7   9   78.39   49.52
  -2   7   9   32.48   67.17
   2  -7   9    6.08   54.52
   2  -7   9   56.72   35.98
  -1   7  -9 1107.78  326.28
   1  -7  -9 1185.21  260.70
  -1   7  -9  906.73  257.30
  -1   7  -9 1157.99  238.84
  -1   7  -9  982.84  278.50
   1  -7   9  803.19  301.59
  -1   7   9 1081.36  245.60
  -1   7   9 1057.30  298.17
   0  -7  -9  -33.00   43.55
   0   7  -9  -24.41   30.01
   0   7  -9  -69.67   60.13
   0  -7  -9   -1.19   11.02
   0   7  -9  -61.67   55.30
   0   7   9  -41.03   82.83
   0  -7   9  -34.22   75.82
   0   7   9  -22.93   41.87
   0  -7   9  -69.18   44.98
  -7   1  -9  967.47  259.53
   1   7  -9 1219.96  270.11
   1   7  -9 1109.93  240.41
  -1  -7  -9 1127.38  254.88
   1   7   9  850.62  301.60
   7  -1   9 1152.12  241.46
   1   7   9  695.03  240.08
  -2  -7  -9   19.81   52.92
  -7   2  -9   35.74   34.47
  -7   2  -9   72.15   44.95
  -2  -7  -9   41.31   43.02
   2   7   9   57.09   45.51
   2   7   9  119.17   85.22
   7  -2   9   45.52   29.56
  -3  -7  -9 3440.80  876.59
  -3  -7  -9 3539.42  785.81
  -7   3  -9 3290.75  827.38
   3   7   9 3200.65  812.95
   3   7   9 3328.41  875.49
  -7   4  -9  -22.56   34.23
  -7   4  -9   26.77   47.40
  -4  -7  -9  -37.90   45.21
   4   7   9    7.68   58.93
   4   7   9  -44.65   82.02
   7  -4   9   -2.46   29.76
  -5  -7  -9  413.22  104.34
  -7   5  -9  242.44  106.72
  -7   5  -9  386.93   95.04
   7  -5   9  397.63   92.11
   5   7   9  335.05  116.78
   5   7   9  381.97  136.98
  -7   6  -9    9.07   38.87
  -7   6  -9    2.50   55.50
   7  -6   9   27.47   34.98
   6   7   9   43.15   67.83
  -7   7  -9  -13.54   59.22
  -7   7  -9   18.95   39.63
   7  -7   9   -5.82   37.81
   7   7   9   38.67   75.29
  -7   8  -9  295.54  139.92
  -7   8  -9  440.59  120.21
   7  -8   9  609.64  118.56
  -6   8  -9  153.21   48.19
  -6   8  -9   89.81   71.09
   6  -8   9  108.13   45.00
  -5   8  -9   11.92   33.98
  -5   8  -9   44.21   76.36
  -5   8  -9   12.22   57.66
  -5   8  -9  -28.62   47.90
   5  -8   9   57.48   60.19
   5  -8   9   10.08   32.68
   5  -8   9  -25.85   49.26
  -4   8  -9   18.16   55.33
  -4   8  -9  179.43   76.19
  -4   8  -9   78.32   45.61
  -4   8  -9   59.35   34.93
   4  -8   9   91.67   36.25
   4  -8   9   41.59   53.05
   4  -8   9  135.86   58.41
  -3   8  -9   56.16   54.36
  -3   8  -9   31.94   68.22
  -3   8  -9   56.01   42.06
  -3   8  -9   42.94   28.13
   3  -8   9   14.80   51.66
   3  -8   9   -7.20   39.02
   3  -8   9   57.40   57.38
   3  -8   9   53.94   32.03
   2  -8  -9  647.18  144.27
  -2   8  -9  530.34  134.08
  -2   8  -9  574.09  126.28
  -2   8  -9  478.70  146.45
  -2   8  -9  533.45  164.31
  -2   8   9  621.89  134.32
   2  -8   9  531.91  160.62
   2  -8   9  487.00  140.27
   2  -8   9  271.56  146.49
  -2   8   9  471.78  168.71
   1  -8  -9  219.48   86.42
  -1   8  -9  288.43   88.06
  -1   8  -9  332.60   94.98
  -1   8  -9  293.56   72.51
  -1   8  -9  324.62  115.82
   1  -8   9  304.60  111.69
  -1   8   9  277.84  112.21
   1  -8   9  213.82   87.21
  -1   8   9  406.48   83.53
   0   8  -9  -66.00   60.61
   0   8  -9  -53.83   81.02
   0   8  -9    8.34   57.65
   0  -8  -9   25.27   48.08
   0   8  -9   17.43   28.94
   0  -8   9  -52.08   47.90
   0  -8   9   -6.89   86.76
   0   8   9   -5.55   89.89
   0   8   9    4.33   44.99
  -1  -8  -9  230.59   90.75
   1   8  -9  246.91   76.16
   1   8  -9  472.86  101.69
   1   8   9  316.54   82.11
   1   8   9  255.21  123.93
  -2  -8  -9  569.60  155.00
  -2  -8  -9  671.83  164.73
   2   8   9  725.20  187.13
   2   8   9  600.09  151.15
  -3  -8  -9   46.82   75.02
  -3  -8  -9   63.01   49.85
   3   8   9   48.93   58.41
   3   8   9   82.03   90.87
  -4  -8  -9   50.38   56.56
  -4  -8  -9   86.64   83.38
   4   8   9   91.08   93.15
   4   8   9   98.90   69.76
  -8   5  -9   13.09   53.91
  -5  -8  -9    4.42   53.40
   5   8   9  -61.18   76.32
   8  -5   9   23.17   32.87
   5   8   9   -6.63  104.50
  -6  -8  -9  129.23   64.42
  -8   6  -9   85.41   70.27
   6   8   9   37.64   82.47
   8  -6   9  127.39   45.70
  -8   7  -9  573.22  142.76
   7   8   9  523.14  150.97
   8  -7   9  453.95  123.15
  -8   8  -9   -3.10   70.37
   8  -8   9   60.84   45.45
  -8   9  -9  411.25  159.92
   8  -9   9  626.78  134.49
  -7   9  -9  -17.41   42.84
  -7   9  -9  -24.51   71.61
   7  -9   9   39.48   40.11
  -6   9  -9  157.34   51.75
  -6   9  -9   95.66   74.81
   6  -9   9   29.31   63.23
   6  -9   9   32.53   45.90
  -5   9  -9  136.76   96.61
  -5   9  -9   98.69   50.86
  -5   9  -9  205.13   64.87
  -5   9  -9  193.65   73.87
   5  -9   9  200.74   52.23
   5  -9   9  141.88   72.69
   5  -9   9  137.86   76.33
  -4   9  -9  127.43   80.37
  -4   9  -9  257.10   62.84
  -4   9  -9  256.44  101.77
  -4   9  -9  262.82   72.12
   4  -9   9  308.41   65.41
   4  -9   9  121.88   79.01
   4  -9   9  130.66   87.82
   4  -9   9  293.98   70.88
  -3   9  -9   61.93   54.71
  -3   9  -9    6.47   77.45
   3  -9  -9   -7.15   60.63
  -3   9  -9   34.28   46.45
  -3   9  -9   11.76   28.62
   3  -9   9    4.91   57.40
  -3   9   9   47.62   86.22
   3  -9   9  -15.92   64.18
   3  -9   9  -25.25   43.20
   3  -9   9   -4.79   32.61
  -2   9  -9  -18.24   78.71
  -2   9  -9   66.33   52.45
  -2   9  -9   -2.38   53.62
   2  -9  -9   58.91   63.47
  -2   9  -9   50.08   28.87
   2  -9   9   28.17   71.03
   2  -9   9  -16.52   70.15
  -2   9   9    2.77   54.47
   2  -9   9   74.51   46.04
  -2   9   9  -38.03   91.90
   1  -9  -9  -11.81   57.54
  -1   9  -9    3.64   27.34
  -1   9  -9   61.84   83.86
  -1   9  -9   44.24   58.60
  -1   9  -9  -30.01   61.27
  -1   9   9    6.14   93.89
   1  -9   9  -15.28   76.78
  -1   9   9   25.21   51.62
   1  -9   9    7.14   46.57
   0   9  -9   39.89   91.48
   0   9  -9   49.31   66.14
   0   9  -9   21.77   65.06
   0  -9  -9   46.47   57.79
   0   9  -9   55.88   32.21
   0   9   9   -3.12  104.26
   0   9   9  -31.43   51.84
   0  -9   9   20.60   51.19
   0  -9   9   -3.79   92.90
   1   9  -9   25.88   33.81
  -1  -9  -9   52.40   62.77
   1   9  -9   21.75   76.46
   1   9   9  -14.81   54.31
   1   9   9   50.88  105.45
  -2  -9  -9   20.41   77.01
  -2  -9  -9    7.88   55.86
   2   9   9   62.39  103.82
   2   9   9   18.47   60.51
  -3  -9  -9   61.46   82.02
  -3  -9  -9   64.20   55.72
   3   9   9   67.72   72.06
   3   9   9  -30.54  100.38
  -4  -9  -9  122.16   73.97
  -4  -9  -9  128.87  109.13
   4   9   9  192.26  115.62
   4   9   9  226.68   87.01
  -5  -9  -9  186.31   74.96
   5   9   9  150.90   92.78
   5   9   9  170.44  114.12
  -6  -9  -9   64.66   79.48
   6   9   9  398.22  133.94
   6   9   9  329.22  104.54
   7   9   9   80.38   90.33
  -9   9  -9  -86.12   86.35
  -8  10  -9  106.17   86.49
   8 -10   9   26.59   47.95
  -7  10  -9  117.29   58.10
  -7  10  -9  183.33   84.89
   7 -10   9  164.27   57.01
  -6  10  -9  342.74  118.74
  -6  10  -9  297.72   96.65
   6 -10   9  297.65  134.71
   6 -10   9  453.25   97.78
  -5  10  -9   29.78   64.80
  -5  10  -9    5.53   36.37
  -5  10  -9    2.59   56.27
  -5  10  -9  -15.90   99.88
   5 -10   9  -12.68   71.07
   5 -10   9  -26.15   60.40
   5 -10   9    5.71   37.86
  -4  10  -9   23.89   39.89
  -4  10  -9   22.23   63.56
  -4  10  -9  125.53   60.28
  -4  10  -9  143.80   95.39
   4 -10   9   67.80   65.14
   4 -10   9  137.38   70.35
   4 -10   9  102.76   55.40
   4 -10   9   29.81   42.00
  -3  10  -9   -2.30   53.01
  -3  10  -9   -4.86   59.33
  -3  10  -9    2.14   29.29
  -3  10  -9   65.92   87.95
   3 -10  -9   15.65   69.08
  -3  10   9   13.23   99.11
   3 -10   9   49.00   49.66
  -3  10   9   -3.25   64.14
   3 -10   9    9.85   69.01
   3 -10   9   50.63   35.20
   3 -10   9   -5.63   64.77
  -2  10  -9  -20.48   87.37
  -2  10  -9    7.74   27.00
  -2  10  -9  -45.92   61.78
  -2  10  -9  -47.72   56.52
   2 -10  -9   60.17   63.68
   2 -10   9    7.06   52.65
   2 -10   9   18.81   75.18
  -2  10   9   29.89   59.25
  -2  10   9   50.85  107.15
   2 -10   9   11.24   78.42
  -1  10  -9  180.07   61.15
  -1  10  -9  345.39   90.19
  -1  10  -9  273.74  116.22
  -1  10  -9  199.94   85.82
   1 -10  -9  270.68   85.58
   1 -10   9  214.81   78.20
   1 -10   9  318.67  103.81
  -1  10   9   71.30   76.96
  -1  10   9  426.55  131.99
   1 -10   9  203.13  112.49
   0  10  -9    9.92   72.23
   0  10  -9    9.95  101.80
   0  10  -9  -18.23   30.80
   0  10  -9  -20.91   76.84
   0 -10  -9   16.63   68.47
   0  10   9 -136.54  118.19
   0 -10   9  -45.13   57.40
   0 -10   9   87.79  103.91
   0  10   9  -49.19   57.13
   1  10  -9  147.78  100.91
   1  10  -9  237.87   62.22
  -1 -10  -9  284.49   91.07
  -1 -10   9  152.50   78.77
   1  10   9  247.69   80.93
   1  10   9   95.60  134.03
  -2 -10  -9   13.50   63.24
  -2 -10  -9   35.30   81.65
   2  10  -9   13.22   93.11
   2  10   9  -94.16  118.34
   2  10   9   72.41   65.89
  -3 -10  -9   -4.57   67.29
  -3 -10  -9  -74.66  101.03
   3  10   9  225.60  116.61
   3  10   9 -130.32   75.27
  -4 -10  -9  233.87  119.76
  -4 -10  -9  245.93   85.27
   4  10   9  351.50  100.92
   4  10   9 -170.50  133.01
  -5 -10  -9  -52.79   69.35
   5  10   9 -100.42   91.00
   5  10   9    7.97  122.08
  -6 -10  -9  510.64  127.31
   6  10   9  446.85  144.46
   6  10   9  460.13  174.41
   7  10   9   97.05  102.64
  -8  11  -9  114.35  105.89
   8 -11   9  266.01   70.00
  -7  11  -9  -19.29   52.84
  -7  11  -9    6.76   85.83
   7 -11   9   18.60   51.13
   7 -11   9   16.19   95.00
  -6  11  -9   54.16   47.25
  -6  11  -9    3.08   76.79
   6 -11   9   50.21   84.19
   6 -11   9   23.73   49.89
  -5  11  -9  -55.33   71.16
  -5  11  -9   81.99   48.37
   5 -11   9  138.93   82.87
   5 -11   9   41.76   70.45
   5 -11   9   88.62   47.34
  -4  11  -9   67.49   65.53
  -4  11  -9   23.24   61.56
  -4  11  -9  -33.49  102.18
  -4  11  -9   41.75   40.53
   4 -11   9  -33.29   57.17
   4 -11   9  -39.59   69.25
   4 -11   9   43.52   41.37
   4 -11   9   10.59   78.69
  -3  11  -9  -92.15   95.21
  -3  11  -9   15.84   33.74
  -3  11  -9  -20.73   59.69
  -3  11  -9  -35.92   63.69
   3 -11  -9   42.77   81.33
   3 -11   9   13.44   38.25
   3 -11   9   11.22   54.07
  -3  11   9  171.65  128.28
   3 -11   9  -57.42   79.11
   3 -11   9  -63.05   79.27
  -3  11   9  -97.10   69.54
  -2  11  -9  303.33  103.52
  -2  11  -9  220.63  133.10
   2 -11  -9  444.21  113.56
  -2  11  -9  346.39   87.34
  -2  11  -9  269.02  110.59
   2 -11   9  294.45  118.58
   2 -11   9  279.81  103.60
  -2  11   9  349.48  100.89
   2 -11   9  334.42   90.46
  -2  11   9  639.99  156.12
   2 -11   9  442.95  134.87
  -1  11  -9  -27.57   72.38
  -1  11  -9  -99.42   74.45
  -1  11  -9   70.83  105.80
  -1  11  -9   10.09   32.11
   1 -11  -9 -223.65   88.47
   1 -11   9   40.81   92.78
   1 -11   9  -45.36  100.57
   1 -11   9   30.60   58.20
   0  11  -9  633.66  174.82
   0  11  -9  465.31  119.78
   0  11  -9  766.79  152.38
   0 -11  -9  429.44  149.14
   0 -11   9  457.65  199.51
   0 -11   9  365.20  139.56
   1  11  -9   13.15   93.56
   1  11  -9  -28.32   38.46
  -1 -11  -9  -78.14   81.42
  -1 -11  -9 -167.23  100.19
  -1 -11   9  -42.63   64.56
   2  11  -9  346.12  138.63
   2  11  -9  284.18   90.84
  -2 -11  -9  463.02  131.81
  -2 -11  -9  168.98  114.28
   2  11   9  327.99  110.71
   2  11   9  498.40  163.88
  -3 -11  -9   14.85  110.76
  -3 -11  -9  -77.76   73.40
   3  11   9  -14.93   85.88
   3  11   9  185.81  132.03
  -4 -11  -9  -21.81  120.37
  -4 -11  -9  -44.26   80.30
   4  11   9  -64.89  132.85
   4  11   9  127.60   95.65
  -5 -11  -9   11.71   74.82
  -5 -11  -9   76.12  135.68
   5  11   9  172.50  102.78
   5  11   9  -70.04  139.43
  -6 -11  -9   38.45   83.49
   6  11   9 -254.33  142.77
   6  11   9  102.76  107.48
   7  11   9   34.16  111.18
  -9  12  -9  805.01  227.46
  -7  12  -9 -163.48   92.33
  -7  12  -9   -4.09   60.24
   7 -12   9  -27.51   53.71
   7 -12   9  -57.76  108.10
  -6  12  -9    9.51   78.57
  -6  12  -9   25.52   53.44
   6 -12   9   10.79   47.89
   6 -12   9  -40.31   89.21
  -5  12  -9    9.53   46.58
  -5  12  -9    2.84   69.11
   5 -12   9   52.53   85.73
   5 -12   9  -19.64   47.44
  -4  12  -9    3.13  111.05
  -4  12  -9   59.50   69.68
  -4  12  -9   -2.86   65.50
  -4  12  -9   98.81   42.40
   4 -12   9   14.43   85.74
   4 -12   9  -18.41   45.41
   4 -12   9   67.64   66.64
   4 -12   9  -33.99   75.99
  -3  12  -9   31.93   65.75
  -3  12  -9  248.08  109.69
   3 -12   9   63.83   66.51
   3 -12   9   17.24   41.11
   3 -12   9    6.10   91.73
   3 -12   9   28.67   83.09
  -2  12  -9  -89.03   70.42
  -2  12  -9  265.70  111.52
   2 -12  -9 -140.42   90.40
   2 -12   9   -7.90   95.24
   2 -12   9  -16.65   38.00
   2 -12   9  109.24   66.89
  -2  12   9    3.50   74.98
  -1  12  -9  895.36  202.28
  -1  12  -9  911.83  237.74
   1 -12  -9  808.96  208.79
   1 -12   9  621.54  204.14
  -1  12   9  745.64  186.88
   1 -12   9  757.92  223.82
   0  12  -9  -55.06   96.83
   0 -12  -9  -21.64   93.21
   0  12  -9   -3.86  119.98
   0  12   9  169.04  143.74
   0  12   9   45.11   75.11
   0 -12   9   10.79   72.79
  -1 -12  -9  551.42  194.81
   1  12  -9  960.92  205.68
  -1 -12  -9  563.32  200.57
   1  12  -9  499.89  231.59
  -1 -12   9  409.87  186.35
   1  12   9  739.49  244.79
   1  12   9  623.26  178.00
  -2 -12  -9 -104.28   87.68
   2  12  -9   74.33  116.31
  -2 -12  -9   70.81  113.27
   2  12   9   26.93   88.18
   2  12   9    4.27  144.68
  -3 -12  -9    5.58  128.78
  -3 -12  -9  153.36   86.90
   3  12   9   29.12  103.05
  -4 -12  -9   -6.21   71.10
  -4 -12  -9  304.73  146.39
   4  12   9  -58.88  105.50
   5  12   9   -4.87  116.32
  -4  13  -9  -18.88   76.13
   4 -13  -9  -76.81  104.39
   4 -13   9    3.77   91.56
   4 -13   9  -52.83   80.32
  -4  13   9  -94.43  163.78
  -3  13  -9    9.74   75.77
  -3  13  -9  -39.87  119.09
   3 -13  -9   98.55   97.52
  -3  13   9    4.72  148.35
   3 -13   9 -121.21   73.01
   3 -13   9   75.85   94.73
  -3  13   9    4.08   79.47
   2 -13  -9  471.26  117.98
  -2  13  -9  289.94  137.44
  -2  13  -9  201.24   98.21
  -2  13   9  475.57   97.97
   2 -13   9  101.47  121.15
   2 -13   9  102.38  102.02
  -2  13   9    4.67  167.52
  -1  13  -9  129.56   93.25
  -1  13  -9   65.46  122.03
   1 -13   9   10.02  119.26
   1 -13   9 -130.03   73.75
  -1  13   9 -169.55  160.35
   0  13  -9  326.00  128.62
   0  13  -9  540.72  158.19
   0 -13   9  212.39  112.94
   0  13   9   61.69  185.62
   0 -13   9  333.80  154.17
   1  13  -9  238.89  136.22
  -1 -13  -9  -39.37  102.30
   1  13  -9   89.54  123.43
  -1 -13   9   81.25   79.90
   1  13   9   -4.69  159.82
   2  13  -9  370.08  149.32
  -2 -13  -9  202.22  122.74
   2  13   9  490.13  191.77
  -3 -13  -9   66.18   96.10
   3  13   9 -128.60  159.71
  -4 -13  -9 1422.28  249.52
   4  13   9  885.75  216.41
  -5 -13  -9  129.63  167.59
  -5 -13  -9  -57.73   96.79
   5  13   9    5.28  176.74
   5  13   9   -5.34  129.38
  -6 -13  -9   77.18   92.50
  -6 -13  -9  269.62  177.80
   6  13   9    5.60  125.77
   6  13   9   -5.48  173.06
  -7 -13  -9  -79.72   96.79
   7  13   9  -17.48  135.00
   4 -14  -9  -48.41  112.45
  -4  14   9    4.64   92.69
  -4  14   9   20.87  177.59
   4 -14   9  -29.21   94.51
   3 -14  -9 -144.36  109.15
  -3  14  -9   71.99   84.54
  -3  14   9    5.15  181.78
   3 -14   9   26.61  101.70
  -3  14   9    4.45   91.83
  -2  14  -9   47.20   94.06
   2 -14  -9  -10.88  109.79
  -2  14   9   12.87   87.51
  -2  14   9    5.15  174.21
   2 -14   9   19.46  116.85
   1 -14  -9   -5.39  111.96
  -1  14   9    4.25   92.49
  -1  14   9  -10.39  184.01
   0 -14  -9  -44.69  118.10
   0 -14  -9  -11.15  121.41
   0  14   9 -100.15  108.99
   0  14   9 -123.62  192.41
  -1 -14  -9 -173.07  132.24
  -1 -14  -9  -73.57  119.05
   1  14   9   -4.58  113.94
   1  14   9 -169.02  190.82
  -2 -14  -9  125.39  123.74
  -2 -14  -9  185.61  153.09
   2  14  -9  278.05  140.41
   2  14   9  139.76  120.47
   2  14   9    5.10  187.55
  -3 -14  -9  -60.19  114.53
  -3 -14  -9 -110.72  156.28
   3  14   9    5.13  118.84
   3  14   9  112.37  180.14
  -4 -14  -9  475.11  188.23
  -4 -14  -9   23.41  110.21
   4  14   9   10.96  125.51
   4  14   9  323.54  189.01
  -5 -14  -9   48.14  108.98
  -5 -14  -9 -276.31  187.19
   5  14   9  374.89  136.36
   5  14   9 -312.83  185.60
  -6 -14  -9   25.55  110.64
  -6 -14  -9  164.47  187.75
   6  14   9  -54.98  136.17
   6  14   9   29.90  180.19
  -7 -14  -9    8.71  107.64
   7  14   9 -151.40  144.07
   4 -15  -9 -113.93  127.57
  -4  15   9 -319.10  106.08
   3 -15  -9   19.33  125.74
  -3  15  -9   62.70  138.35
  -3  15  -9  -28.09   90.75
  -3  15   9  158.74  193.90
  -3  15   9   34.36   97.59
   3 -15   9   39.21  112.46
   3 -15   9   -6.24   97.00
   2 -15  -9 -198.63  128.32
  -2  15  -9   95.66  100.85
  -2  15  -9  -13.16  143.54
  -2  15   9    9.54  100.13
   2 -15   9  -38.89   95.35
   2 -15   9    5.38  128.46
  -2  15   9   45.33  195.76
   1 -15  -9   73.08  127.89
  -1  15  -9   18.52  145.00
  -1  15  -9    4.88  110.27
  -1  15   9  107.58  202.33
   1 -15   9   12.10  140.06
   1 -15   9   39.79   95.19
  -1  15   9   -4.74   97.81
   0 -15  -9  231.17  130.51
   0  15  -9   19.42  146.62
   0 -15  -9  220.56  140.39
   0  15  -9  -16.80  130.32
   0 -15   9    7.09  100.64
   0 -15   9   13.61  168.41
   0  15   9  408.87  203.25
   0  15   9  -14.78  111.15
  -1 -15  -9  100.29  146.09
   1  15  -9   31.11  138.42
   1  15  -9 -128.94  156.98
  -1 -15  -9   -8.24  141.67
   1  15   9  257.41  199.58
  -1 -15   9 -183.91   95.44
   1  15   9 -123.16  123.35
  -1 -15   9  -52.24  178.60
   2  15  -9   -6.84  149.22
  -2 -15  -9  132.37  129.29
  -2 -15  -9 -100.36  170.41
   2  15   9  166.26  122.81
   2  15   9   82.80  193.39
  -3 -15  -9   25.41  125.25
  -3 -15  -9  -15.28  172.94
   3  15   9  221.90  189.72
   3  15   9 -107.85  130.71
  -4 -15  -9  -32.74  191.82
  -4 -15  -9   17.58  128.04
   4  15   9   -6.00  143.47
   4  15   9 -340.64  189.21
  -5 -15  -9  396.91  200.88
  -5 -15  -9    9.07  115.18
   5  15   9    6.34  144.07
   5  15   9 -323.68  207.22
  -6 -15  -9  251.31  215.96
  -6 -15  -9    9.42  124.25
   6  15   9  365.96  209.47
   6  15   9   73.04  154.66
  -7 -15  -9   76.44  139.33
  -7 -15  -9  601.52  230.59
   7  15   9   68.51  160.14
   4 -16  -9  417.63  159.44
   3 -16  -9 -195.05  148.65
  -3  16   9 -454.92  222.85
  -3  16   9 -163.19  114.28
   3 -16   9   26.91  138.84
   3 -16   9 -330.86  118.36
  -2  16  -9  364.78  122.30
  -2  16  -9 -493.24  185.10
   2 -16  -9  195.74  144.77
   2 -16   9  -23.63  155.68
  -2  16   9  180.55  114.99
   2 -16   9    7.21  111.13
  -2  16   9    6.23  219.09
  -1  16  -9  -85.57  134.48
   1 -16  -9  -27.98  139.38
   1 -16  -9  302.86  154.34
  -1  16   9   -5.30  117.85
   1 -16   9 -257.17  112.28
   1 -16   9  -19.77  170.71
   0  16  -9  108.99  140.39
   0 -16  -9 -192.07  156.16
   0  16  -9 -373.17  172.73
   0 -16  -9 -221.12  150.69
   0  16   9  -55.01  125.48
   0 -16   9  -93.47  119.38
   0 -16   9  -22.17  187.64
   1  16  -9 -122.37  166.57
  -1 -16  -9 -202.42  172.69
  -1 -16  -9  -36.79  141.90
  -1 -16   9   57.02  199.71
   1  16   9 -211.86  132.21
  -1 -16   9   40.02  109.26
  -2 -16  -9  -15.97  179.77
  -2 -16  -9  -55.97  146.41
   2  16  -9 -383.69  172.65
   2  16   9  440.33  215.65
   2  16   9  244.76  139.34
  -3 -16  -9  -84.80  192.55
  -3 -16  -9   85.82  136.30
   3  16   9 -549.00  227.93
   3  16   9  106.52  151.12
  -4 -16  -9  -78.41  144.38
  -4 -16  -9 -670.75  223.74
   4  16   9    6.69  212.44
   4  16   9   72.27  146.64
  -5 -16  -9 -394.81  216.77
  -5 -16  -9   50.62  149.64
   5  16   9 -125.85  226.99
   5  16   9 -289.30  156.88
  -6 -16  -9   98.15  228.42
  -6 -16  -9   10.44  144.29
   6  16   9 -142.91  223.18
   6  16   9 -250.93  160.32
  -7 -16  -9   94.75  135.22
  -7 -16  -9  192.20  234.73
   7  16   9   67.26  175.07
   4 -17  -9 -116.69  161.85
  -4  17   9  153.41  121.23
   3 -17  -9  -89.25  161.14
  -3  17   9  -84.57  121.51
   2 -17  -9   15.81  154.97
  -2  17  -9 -102.41  178.32
  -2  17  -9   -5.30  118.01
   2 -17   9   19.47  153.91
  -2  17   9  169.12  241.41
   2 -17   9  -32.13  112.08
  -2  17   9   71.10  125.23
  -1  17  -9   64.55  129.88
   1 -17  -9    7.78  164.73
   1 -17  -9  566.93  171.44
  -1  17  -9  -38.80  176.23
  -1  17   9  -94.89  123.37
   1 -17   9   35.82  175.43
  -1  17   9 -245.95  228.33
   1 -17   9  -49.75  114.09
   0  17  -9  205.35  178.71
   0 -17  -9  -82.37  162.03
   0 -17  -9   56.15  170.28
   0  17  -9   26.21  153.60
   0  17   9   19.88  231.01
   0 -17   9  -32.02  188.52
   0  17   9  202.35  131.71
   0 -17   9 -231.63  116.70
  -1 -17  -9   31.05  165.48
  -1 -17  -9  234.85  183.63
   1  17  -9 -132.49  178.79
   1  17   9 -307.21  223.24
   1  17   9 -147.57  137.83
  -1 -17   9    8.82  212.32
  -1 -17   9 -253.44  114.94
  -2 -17  -9 -311.22  200.32
   2  17  -9  -95.86  190.28
  -2 -17  -9   10.40  155.55
   2  17   9 -196.51  215.70
   2  17   9 -152.32  146.99
  -2 -17   9    9.45  239.49
  -3 -17  -9 -129.61  161.76
  -3 -17  -9  149.43  209.07
   3  17   9  345.38  156.86
   3  17   9 -273.57  235.38
  -4 -17  -9   98.44  235.58
  -4 -17  -9   32.82  153.19
   4  17   9   14.70  240.50
   4  17   9 -201.81  157.96
  -5 -17  -9  308.09  236.77
  -5 -17  -9   79.35  145.98
   5  17   9 -320.92  244.40
   5  17   9 -186.94  166.25
  -6 -17  -9 -162.33  147.24
  -6 -17  -9  -95.93  245.18
   6  17   9  -46.81  179.02
   6  17   9 -101.66  246.96
  -7 -17  -9   81.52  153.48
  -7 -17  -9 -417.44  262.36
   3 -18  -9 2159.07  428.13
  -3  18   9  825.01  350.60
   2 -18  -9  244.08  184.54
   2 -18  -9 -928.64  205.62
   2 -18   9   28.44  174.91
   2 -18   9   63.21  134.12
  -1  18  -9   70.69  149.40
   1 -18  -9   11.50  176.31
  -1  18  -9 -231.66  194.35
   1 -18  -9   87.95  190.46
  -1  18   9 -558.46  260.78
  -1  18   9    6.75  141.69
   1 -18   9  -23.53  185.95
   1 -18   9 -101.75  132.17
   0  18  -9  -21.38  156.90
   0 -18  -9 -241.19  182.18
   0  18  -9   62.11  196.55
   0 -18  -9   90.30  195.95
   0  18   9 -251.74  253.74
   0  18   9 -348.44  153.98
   0 -18   9    8.63  207.00
   0 -18   9    9.47  133.70
   1  18  -9   15.80  185.12
  -1 -18  -9 -102.95  202.21
  -1 -18  -9   11.56  171.35
   1  18   9 -747.68  167.24
  -1 -18   9  -85.64  242.01
   1  18   9 -227.50  250.13
  -1 -18   9 -191.31  123.51
  -2 -18  -9  -94.46  182.30
  -2 -18  -9 -167.91  225.51
   2  18  -9   25.89  190.13
   2  18   9 -762.18  182.51
  -2 -18   9   10.22  259.63
  -3 -18  -9  557.43  494.98
  -3 -18  -9 1681.70  545.17
   3  18   9 3095.87  563.23
   3  18   9 2335.79  478.94
  -4 -18  -9 -382.00  193.51
  -4 -18  -9  -85.94  261.11
  -5 -18  -9   12.67  172.90
  -5 -18  -9 -156.08  252.93
   5  18   9    8.15  179.25
   5  18   9    8.36  249.70
  -6 -18  -9  -11.56  265.47
  -6 -18  -9  -77.28  171.26
   6  18   9 -479.45  258.14
   6  18   9  354.08  199.49
  -7 -18  -9   51.68  170.78
  -7 -18  -9  107.16  288.38
   7  18   9  348.47  200.56
   4 -19  -9   21.04  205.72
  -4  19   9   -7.59  153.40
   3 -19  -9   41.40  222.73
  -3  19   9    7.57  160.34
   2 -19  -9 -101.10  211.33
   2 -19  -9   12.88  209.50
  -2  19   9   14.82  162.60
  -2  19   9 -119.18  275.46
  -1  19  -9  -77.32  154.16
   1 -19  -9   12.84  198.13
   1 -19  -9 -180.45  220.54
   1 -19   9   -8.53  196.16
  -1  19   9   47.28  275.02
   1 -19   9   72.00  147.90
  -1  19   9    7.53  157.58
   0 -19  -9 -245.25  196.90
   0 -19  -9   50.80  223.94
   0  19  -9  128.99  207.63
   0  19  -9  -69.58  176.77
   0  19   9 -195.35  266.32
   0  19   9    7.71  168.24
   0 -19   9   10.46  138.51
   0 -19   9    9.40  218.23
  -1 -19  -9  441.18  206.13
   1  19  -9 -127.62  192.23
  -1 -19  -9  -20.94  237.02
   1  19   9   69.03  268.44
  -1 -19   9   30.75  263.46
  -1 -19   9  -84.07  140.10
   1  19   9 -418.03  176.90
  -2 -19  -9 -501.44  251.89
  -2 -19  -9   13.30  186.86
   2  19  -9  194.44  217.35
   2  19   9    8.11  268.48
   2  19   9    8.20  183.33
  -2 -19   9   33.21  264.92
  -3 -19  -9  170.51  246.17
  -3 -19  -9 -259.07  192.12
   3  19   9 -193.19  187.11
   3  19   9   51.39  273.36
  -4 -19  -9   58.78  273.69
  -4 -19  -9  -13.74  189.04
   4  19   9   17.80  279.79
   4  19   9    8.65  202.81
  -5 -19  -9 -872.06  294.60
   5  19   9  204.76  216.44
   5  19   9 -365.63  291.98
   0  20  -9   16.87  186.88
   0  20  -9   -7.43  222.00
   0 -20   9  173.28  163.99
   0 -20   9   50.75  247.10
   1  20  -9  -27.60  215.19
  -1 -20   9   11.00  262.50
  -1 -20   9   11.60  153.86
   2  20  -9 -140.28  224.21
  -2 -20   9   11.90  286.04
   0   0 -10 8922.49 2247.80
  -1   0 -10   10.23   34.84
   0  -1 -10   -5.08   19.64
   1   0  10    5.05   38.60
  -1  -1 -10  593.45  130.25
  -1  -1 -10  555.41  145.15
   1   1  10  395.01  149.12
   1   1  10  588.00  156.48
  -1   2 -10   97.66   21.86
  -1   2 -10   -1.87   31.48
  -2  -1 -10  101.59   35.75
   2   1  10   64.19   34.10
   2   1  10   60.46   35.75
   1  -2  10   -1.84   37.28
  -2   1 -10   86.16   23.06
  -1  -2 -10   60.21   23.02
  -1  -2 -10  135.29   37.52
   1   2  10   89.98   43.83
   1   2  10   65.96   38.89
  -2  -2 -10  844.93  249.15
  -2   2 -10  747.14  240.05
  -2  -2 -10 1115.14  233.60
  -2  -2 -10  958.03  221.74
  -2   2 -10 1068.15  214.50
   2   2  10  866.71  236.20
   2  -2  10  690.95  244.24
   2   2  10 1145.29  266.28
  -3  -2 -10  603.99  116.85
  -2   3 -10  440.77  114.21
  -3  -2 -10  405.55  128.10
  -2   3 -10  374.10  126.11
  -3  -2 -10  623.73  119.54
   3   2  10  566.59  110.17
   3   2  10  631.51  132.98
   3   2  10  508.01  116.57
   3   2  10  418.88  126.48
   2  -3  10  437.85  129.56
  -1   3 -10  172.24   61.02
  -3  -1 -10  170.95   48.51
  -3  -1 -10  194.83   46.17
  -1   3 -10  149.53   45.09
   3   1  10  110.98   46.26
   3   1  10  281.94   58.79
   1  -3  10  194.61   66.83
  -3   0 -10  -12.02   14.74
   0   3 -10    1.88   24.09
   0   3 -10  -31.68   44.05
   0  -3 -10   -1.49   20.67
   0  -3  10  -30.05   54.86
   0   3  10   -7.13   36.45
  -1  -3 -10  222.94   47.98
  -3   1 -10  133.08   57.15
  -1  -3 -10  196.33   51.54
  -1  -3 -10  192.54   57.79
  -3   1 -10  193.35   44.89
   1   3  10  207.26   53.65
   1   3  10  173.61   67.59
   1   3  10  160.39   64.49
   3  -1  10  159.02   56.88
  -3   2 -10  441.14  125.11
  -2  -3 -10  564.06  118.24
  -3   2 -10  464.42  111.18
  -2  -3 -10  412.12  130.41
   2   3  10  536.78  140.29
   2   3  10  521.83  129.86
   3  -2  10  524.55  126.54
   2   3  10  516.84  118.07
  -3  -3 -10    8.48   14.34
  -3   3 -10    5.20   38.51
  -3  -3 -10   11.85   22.41
  -3   3 -10   14.40   23.94
  -3  -3 -10   24.91   27.40
  -3  -3 -10   18.34   30.67
  -3   3 -10   10.85   12.73
   3  -3  10   22.66   14.17
   3  -3  10    7.06   34.04
   3   3  10   34.72   13.65
   3   3  10   32.32   26.85
   3   3  10   63.47   45.60
   3   3  10   17.94   26.49
   3  -3  10    6.03   12.98
  -3   4 -10    8.56   18.75
  -3   4 -10   -1.83   38.06
  -3   4 -10   17.64   38.04
  -4  -3 -10  -12.94   28.61
  -3   4 -10   -6.04   20.05
  -4  -3 -10   19.80   29.51
   3  -4  10    5.66   21.92
   3  -4  10    6.30   23.02
   4   3  10   24.78   55.66
   3  -4  10   -4.66   37.30
   4   3  10  -12.89   33.50
  -2   4 -10  172.28   58.56
  -2   4 -10  179.28   41.45
  -2   4 -10  130.35   43.60
   2  -4  10  231.82   59.56
   4   2  10  137.96   47.23
  -1   4 -10  151.49   69.21
  -1   4 -10  273.92   61.93
  -4  -1 -10  318.02   63.19
  -1   4 -10  211.87   77.82
   4   1  10  263.80   65.84
   1  -4  10  390.09   85.30
   4   1  10  216.35   60.82
  -4   0 -10   -5.33   17.77
   0   4 -10   16.79   46.96
  -4   0 -10   29.38   32.47
   0  -4 -10   -1.37   19.10
   0   4 -10   19.41   22.88
   4   0  10    4.13   17.30
   0  -4  10   32.01   61.53
  -4   1 -10  254.59   61.94
  -4   1 -10  285.37   71.73
  -1  -4 -10  228.16   65.15
  -1  -4 -10  282.68   67.24
   1   4  10  193.43   67.60
   1   4  10  235.68   81.81
   4  -1  10  277.00   60.41
  -2  -4 -10  128.07   38.60
  -2  -4 -10  108.88   46.63
  -4   2 -10  154.45   40.10
  -4   2 -10  120.62   53.33
  -2  -4 -10  142.19   52.26
   2   4  10  311.91   71.87
   2   4  10  253.35   54.55
   4  -2  10  141.79   39.94
   2   4  10  108.64   45.96
  -4   3 -10   11.71   21.40
  -3  -4 -10   30.84   25.19
  -3  -4 -10   -1.14   30.38
  -4   3 -10    1.78   36.74
  -3  -4 -10  -64.14   35.03
  -3  -4 -10    1.91   14.80
   4  -3  10   16.29   36.22
   3   4  10  -11.02   33.61
   3   4  10   36.91   25.94
   3   4  10    0.88   13.75
   3   4  10   88.91   54.93
  -4   4 -10  630.11  137.01
  -4   4 -10  628.08  161.26
  -4  -4 -10  690.87  156.79
  -4  -4 -10  514.48  153.71
  -4   4 -10  673.15  151.89
   4  -4  10  746.37  137.32
   4   4  10  520.82  140.56
   4   4  10  687.83  150.59
   4  -4  10  521.16  158.25
  -4   5 -10  681.39  193.26
  -4   5 -10  741.03  171.18
  -4   5 -10  741.00  205.15
  -4   5 -10  965.71  190.90
   4  -5  10  627.35  199.94
   4  -5  10  691.07  192.08
   4  -5  10  759.98  171.28
  -5  -3 -10  269.13   60.94
  -3   5 -10  249.44   52.91
  -3   5 -10  206.43   56.81
  -3   5 -10  197.87   72.38
  -3   5 -10  116.90   67.35
   3  -5  10  242.65   70.14
   5   3  10  210.18   66.72
   3  -5  10  207.64   58.23
   5   3  10  204.22   54.28
   3  -5  10  193.26   60.73
  -5  -2 -10  737.79  182.25
  -2   5 -10  684.36  170.08
  -2   5 -10  675.71  230.21
  -2   5 -10  650.19  184.75
  -5  -2 -10  726.39  185.90
   2  -5  10  681.80  194.77
   5   2  10  788.26  188.80
   5   2  10  791.00  168.99
   2  -5  10  777.06  180.68
   2  -5  10  692.66  191.65
  -5  -1 -10   56.98   32.57
  -1   5 -10    8.93   46.69
  -5  -1 -10   36.88   24.77
  -1   5 -10    1.46   36.49
  -1   5 -10    3.31   22.99
   1  -5  10   18.22   54.48
   5   1  10   36.27   18.86
  -1   5  10    8.83   50.29
  -5   0 -10  -13.83   20.13
  -5   0 -10  -12.52   33.75
   0   5 -10  -30.60   51.64
   0   5 -10   41.23   26.46
   0  -5 -10   -9.53   19.30
   0  -5 -10   12.79   32.59
   5   0  10   21.83   19.44
   0   5  10  -19.00   36.53
   0   5  10   17.26   55.81
   0  -5  10    8.59   61.03
  -5   1 -10   29.38   20.01
  -1  -5 -10   42.91   14.79
  -5   1 -10   11.61   36.39
   1   5  10   23.92   64.98
   5  -1  10   24.87   20.20
  -2  -5 -10  742.26  179.85
  -5   2 -10  837.91  188.56
  -5   2 -10  817.91  172.76
  -2  -5 -10  736.86  198.76
   5  -2  10  795.15  170.94
   2   5  10  697.02  167.06
   2   5  10  769.27  214.06
   2   5  10  687.56  204.12
  -5   3 -10  165.52   66.62
  -3  -5 -10  184.93   64.83
  -5   3 -10  255.62   69.10
  -3  -5 -10  252.62   56.92
  -3  -5 -10  192.73   58.74
   3   5  10  240.18   61.96
   3   5  10  201.56   51.23
   3   5  10  198.58   84.41
  -5   4 -10 1027.89  199.51
  -4  -5 -10  924.49  191.56
  -5   4 -10  847.10  220.54
  -4  -5 -10  779.16  214.33
  -4  -5 -10  886.33  210.84
   5  -4  10  860.03  182.10
   4   5  10  432.22  226.85
   4   5  10  770.90  190.41
  -5  -5 -10  -13.39   40.81
  -5   5 -10   10.89   47.45
  -5   5 -10  -10.66   44.87
  -5  -5 -10  -47.87   32.34
  -5   5 -10  -30.91   27.84
   5  -5  10    8.70   27.05
   5   5  10  -98.53   81.32
   5   5  10 -119.85   51.72
  -5   6 -10  224.01   79.21
  -5   6 -10  146.78   73.86
  -5   6 -10   98.26   56.53
   5  -6  10  201.68   76.46
   6   5  10  284.92   78.19
   5  -6  10  303.10   56.70
  -4   6 -10   66.83   54.27
  -4   6 -10  107.15   57.33
  -4   6 -10   93.73   41.72
  -6  -4 -10   45.97   42.49
  -4   6 -10   91.00   33.82
   4  -6  10   92.95   36.05
   4  -6  10   81.26   42.88
   4  -6  10  102.28   55.79
   4  -6  10  122.53   36.92
  -3   6 -10 2720.33  661.10
  -6  -3 -10 2987.11  713.48
  -3   6 -10 3172.27  682.74
  -3   6 -10 2449.36  754.86
   3  -6  10 2865.71  686.76
   3  -6  10 2862.05  688.47
   3  -6  10 3099.42  719.39
  -6  -2 -10  283.30   86.12
  -2   6 -10  182.62   90.29
  -2   6 -10  370.96   73.69
  -2   6 -10  261.93   80.20
  -2   6 -10  491.72  115.33
   2  -6  10  384.20   88.52
   2  -6  10  327.36   91.46
   2  -6  10  177.27   99.42
   6   2  10  359.64   77.27
  -1   6 -10 1031.87  239.15
  -1   6 -10 1353.46  280.11
   1  -6 -10 1283.33  270.19
  -1   6 -10 1000.44  258.92
  -6  -1 -10 1013.71  270.57
  -1   6  10  641.52  300.05
  -1   6  10  870.72  258.79
   6   1  10 1204.72  249.97
   1  -6  10 1123.46  298.52
  -6   0 -10  158.26   54.48
   0   6 -10  178.37   47.88
  -6   0 -10  157.70   48.48
   0  -6 -10  181.37   55.62
   0  -6 -10  184.32   49.79
   0   6 -10  274.36   70.74
   0  -6  10  123.82   87.44
   0   6  10  170.00   83.68
   6   0  10  188.30   45.41
   0   6  10  112.23   56.75
  -6   1 -10 1083.66  263.13
   1   6 -10  970.09  242.65
  -1  -6 -10 1154.75  253.32
  -6   1 -10 1156.96  252.51
   1   6  10  890.91  244.65
   1   6  10  873.28  308.50
  -2  -6 -10  327.51   91.90
  -2  -6 -10  324.95   91.85
  -6   2 -10  335.82   88.94
  -6   2 -10  323.15   82.63
  -2  -6 -10  246.67   82.52
   2   6  10  344.23   75.88
   6  -2  10  336.30   79.49
   2   6  10  427.08  102.80
   2   6  10  425.76   91.84
  -3  -6 -10 3320.48  729.19
  -3  -6 -10 2675.76  773.73
  -3  -6 -10 3180.33  790.39
  -3  -6 -10 3210.21  679.62
   3   6  10 3196.29  691.06
   3   6  10 2875.59  762.73
   3   6  10 3263.81  754.99
   3   6  10 2662.29  704.51
  -6   4 -10   84.59   41.97
  -4  -6 -10  105.22   50.49
  -4  -6 -10  138.27   66.66
  -6   4 -10  164.89   57.18
  -4  -6 -10  143.69   45.41
   4   6  10  137.65   40.69
   4   6  10   91.55   80.77
   6  -4  10  137.76   39.77
   4   6  10  143.15   59.24
  -5  -6 -10  252.54   71.11
  -6   5 -10  252.56   73.05
  -6   5 -10  129.09   58.12
  -5  -6 -10  221.08   66.01
   6  -5  10  226.40   56.70
   5   6  10  188.61   81.65
   5   6  10  247.55  103.32
  -6   6 -10   -2.45   53.71
  -6   6 -10  -32.65   33.91
   6   6  10   -5.34   65.76
   6  -6  10   32.63   30.73
  -6   7 -10   71.53   37.49
  -6   7 -10   10.42   61.44
   6  -7  10    2.68   35.29
   7   6  10   16.95   65.05
  -5   7 -10  122.68   43.94
  -5   7 -10   80.56   63.24
  -5   7 -10  193.16   70.62
   7   5  10   97.36   66.00
   5  -7  10  104.16   65.36
   5  -7  10  147.37   44.41
  -4   7 -10 1210.31  267.27
  -7  -4 -10  880.44  300.30
  -4   7 -10 1050.93  291.81
   4  -7  10 1217.87  314.07
   4  -7  10 1450.71  270.49
  -3   7 -10    5.29   26.02
  -7  -3 -10   28.60   37.11
  -3   7 -10  -22.05   51.94
   3  -7  10  -28.62   52.92
   2  -7 -10 1601.31  478.60
  -2   7 -10 2056.97  478.90
  -2   7 -10 1856.40  561.27
   2  -7  10 1776.33  511.02
   2  -7  10 2126.20  490.80
  -1   7 -10  610.05  155.72
  -1   7 -10  546.91  127.85
   1  -7 -10  580.98  145.23
  -1   7 -10  516.72  142.27
  -1   7 -10  592.04  184.56
  -7  -1 -10  554.62  144.16
  -1   7  10  509.90  137.21
   1  -7  10  487.73  170.39
  -1   7  10  542.30  169.07
   1  -7  10  612.26  154.59
  -7   0 -10   -3.76   36.21
   0   7 -10   17.60   56.75
   0   7 -10  -37.60   59.50
   0   7 -10   -6.15   27.61
   0  -7 -10   27.01   44.72
   0   7  10  -17.13   81.17
   0  -7  10  -10.17   74.30
   0   7  10  -29.70   41.38
   7   0  10   17.69   26.01
  -7   1 -10  587.24  145.76
   1   7 -10  658.47  135.23
  -7   1 -10  703.54  142.94
  -1  -7 -10  661.70  143.26
   7  -1  10  368.38  133.55
   1   7  10  450.85  136.26
   1   7  10  560.02  180.00
  -2  -7 -10 2079.56  490.60
   7  -2  10 2100.01  460.08
   2   7  10 2235.74  550.35
   2   7  10 1833.14  463.26
  -3  -7 -10    9.13   41.44
  -3  -7 -10  -13.61   60.88
  -7   3 -10    8.65   48.04
   7  -3  10   -2.44   27.90
   3   7  10   19.35   51.44
   3   7  10    7.32   86.25
  -7   4 -10 1085.46  268.42
  -4  -7 -10 1180.27  273.82
  -4  -7 -10 1569.36  317.45
   4   7  10  970.13  311.95
   4   7  10  970.55  290.40
  -5  -7 -10   98.96   53.40
  -7   5 -10   31.53   56.40
  -7   5 -10   32.12   40.93
   5   7  10   99.87   68.16
   7  -5  10   69.21   38.68
   5   7  10  100.45   94.92
  -7   6 -10   13.15   58.45
  -6  -7 -10    4.54   53.35
  -7   6 -10   39.54   38.46
   7  -6  10   36.61   37.21
   6   7  10   29.95   73.81
  -7   7 -10   31.05   65.06
  -7   7 -10   38.19   42.56
   7   7  10   32.10   73.23
   7  -7  10   53.75   39.01
  -7   8 -10   36.79   43.62
  -7   8 -10    3.00   68.00
   7  -8  10    9.53   42.86
  -6   8 -10  -27.93   65.36
  -6   8 -10   17.27   36.28
   6  -8  10  -40.13   38.26
  -5   8 -10   78.60   36.88
  -5   8 -10  -36.34   59.11
   5  -8  10   34.72   36.90
   5  -8  10   48.14   52.45
   5  -8  10   35.15   64.67
  -4   8 -10  259.03   90.89
  -4   8 -10  263.72   80.17
  -4   8 -10  214.46   69.63
  -4   8 -10  174.82   61.17
   4  -8  10  292.57   85.20
   4  -8  10  144.42   75.02
   4  -8  10  192.63   66.40
   4  -8  10  294.33   64.04
  -3   8 -10  239.26   83.18
  -3   8 -10   81.94   69.17
  -3   8 -10  209.28   49.10
  -3   8 -10  148.28   57.55
   3  -8  10  180.63   54.06
   3  -8  10  152.58   59.54
   3  -8  10  160.86   66.69
   3  -8  10  164.10   76.27
   2  -8 -10  403.85   82.23
  -2   8 -10  152.05   62.36
  -2   8 -10  259.07   73.78
  -2   8 -10  221.15   84.34
  -2   8 -10  267.30   99.18
  -2   8  10  211.64  104.56
   2  -8  10  282.46   94.64
   2  -8  10  300.35   75.83
  -2   8  10  326.21   78.95
   2  -8  10  146.38   84.28
   1  -8 -10  186.24   64.43
  -1   8 -10   56.55   93.95
  -1   8 -10   93.79   71.14
  -1   8 -10  234.88   65.52
  -1   8 -10  182.37   44.96
   1  -8  10   30.05   89.24
   1  -8  10  209.36   62.98
  -1   8  10  145.09   58.46
  -1   8  10   77.94   94.11
   0   8 -10  126.70   45.23
   0   8 -10  120.51   75.18
   0   8 -10  219.05   73.29
   0  -8 -10  133.16   60.62
   0   8  10  130.49  102.00
   0  -8  10  222.41   99.33
   0   8  10  144.03   58.65
   1   8 -10  158.77   82.76
   1   8 -10  153.15   52.53
  -1  -8 -10  208.31   67.67
   1   8  10  192.47  107.40
   1   8  10  152.17   61.88
  -2  -8 -10  160.66   84.03
  -2  -8 -10  222.83   78.09
   2   8  10  315.76  116.43
   2   8  10  245.42   75.85
  -3  -8 -10  165.16   83.40
  -3  -8 -10  158.75   67.32
  -8   3 -10  220.90   70.50
   3   8  10  158.69  108.27
   3   8  10  129.02   74.89
   8  -3  10  249.04   55.05
  -4  -8 -10  252.24   83.13
  -8   4 -10  433.19   88.01
  -4  -8 -10  290.21  104.75
   4   8  10  224.99  119.11
   4   8  10  306.92   96.22
  -8   5 -10   50.80   44.89
  -8   5 -10    2.65   58.63
  -5  -8 -10   -4.28   56.16
   5   8  10   68.26  104.23
   5   8  10   75.10   75.52
   8  -5  10   11.86   37.04
  -8   6 -10  -30.90   62.62
  -6  -8 -10  -53.84   60.75
  -8   6 -10    3.50   46.30
   6   8  10  -10.15   78.26
   8  -6  10   31.22   36.34
   6   8  10  -32.15  106.89
  -8   7 -10   25.46   48.13
  -8   7 -10   -3.03   67.87
   7   8  10  -14.31   81.77
   8  -7  10   -6.60   40.55
  -8   8 -10  619.76  175.44
  -8   8 -10  573.52  154.32
   8  -8  10  656.28  152.59
  -8   9 -10    3.98   54.06
  -8   9 -10  -38.01   90.24
   8  -9  10   59.17   49.73
  -7   9 -10  176.01   59.69
  -7   9 -10  203.59   87.57
   7  -9  10  125.17   56.93
  -6   9 -10  325.92  105.18
  -6   9 -10  319.61   80.49
   6  -9  10  297.01   80.93
   6  -9  10  260.40  115.19
  -5   9 -10  117.14   46.47
  -5   9 -10   52.15   70.74
   5  -9  10  108.61   45.28
   5  -9  10   37.37   76.71
  -4   9 -10   20.88   79.25
  -4   9 -10    5.04   60.57
  -4   9 -10    8.18   47.72
  -4   9 -10   37.19   32.87
   4  -9  10   28.12   55.98
   4  -9  10   10.68   37.05
   4  -9  10   81.01   44.73
   4  -9  10    7.20   68.22
  -3   9 -10  239.78   64.68
  -3   9 -10  308.44   99.50
  -3   9 -10  178.93   85.35
  -3   9 -10  248.60   73.07
  -3   9  10  353.64  113.18
   3  -9  10  106.86   83.77
   3  -9  10  204.35   75.53
   3  -9  10  273.08   69.51
   3  -9  10  227.65   95.45
  -2   9 -10  140.15   72.45
  -2   9 -10  135.22   91.44
  -2   9 -10  218.00   62.39
   2  -9 -10  122.81   70.15
  -2   9 -10  165.05   44.31
   2  -9  10   43.61   74.11
   2  -9  10   74.94   82.40
  -2   9  10  276.24   67.17
  -2   9  10  101.16  101.69
   2  -9  10  108.00   59.16
  -1   9 -10   13.84   30.47
  -1   9 -10   65.97   62.03
  -1   9 -10   61.97   88.10
   1  -9 -10  -21.30   56.52
  -1   9 -10   61.70   63.76
   1  -9  10   23.13   88.48
  -1   9  10  114.60  105.36
  -1   9  10   -2.61   52.74
   1  -9  10   71.78   50.15
   0  -9 -10   23.34   56.37
   0   9 -10    3.31   69.62
   0   9 -10   19.52   33.29
   0   9 -10   31.43   72.65
   0  -9  10  -52.72  101.18
   0   9  10  -12.71  109.41
   0   9  10  -41.65   53.26
   0  -9  10   42.05   50.69
   1   9 -10   -2.56   35.68
   1   9 -10  187.13   77.23
  -1  -9 -10   45.31   66.11
   1   9  10   48.70  108.41
   1   9  10  -24.79   55.61
  -2  -9 -10  183.85   84.77
  -2  -9 -10  129.29   70.66
   2   9  10  166.86  122.44
   2   9  10  238.24   73.92
  -3  -9 -10  298.07  106.23
  -3  -9 -10  230.91   85.57
   3   9  10  251.49  128.36
   3   9  10  338.21   92.54
  -4  -9 -10 -103.54   95.71
  -4  -9 -10   60.62   58.10
   4   9  10  114.87   75.06
   4   9  10    3.23  113.18
  -5  -9 -10  152.06   75.08
   5   9  10  254.72  123.67
   5   9  10  178.26   91.33
  -6  -9 -10  330.77   94.96
   6   9  10  162.25  137.96
   6   9  10  181.65  110.72
   7   9  10  185.71  103.69
  -9   8 -10    3.46   81.15
  -9   9 -10   78.43   90.25
  -8  10 -10  104.40   69.82
  -8  10 -10  116.68   97.82
   8 -10  10  180.27   61.45
  -7  10 -10   96.40   51.91
  -7  10 -10  142.21   85.18
   7 -10  10   82.98   92.83
   7 -10  10   32.41   50.64
  -6  10 -10   24.94   76.02
  -6  10 -10   16.12   49.51
   6 -10  10    6.52   42.90
   6 -10  10  -37.66   82.78
  -5  10 -10  118.50   58.32
  -5  10 -10  234.73   82.84
   5 -10  10  183.79   92.49
   5 -10  10  170.32   61.05
  -4  10 -10  169.58   62.81
  -4  10 -10  126.04   98.61
  -4  10 -10  186.94   49.80
  -4  10 -10   66.43   74.87
   4 -10  10  139.84   80.82
   4 -10  10  111.64   72.90
   4 -10  10  148.47   55.77
   4 -10  10  128.72   61.90
  -3  10 -10  317.39   75.70
   3 -10 -10 -112.80   93.09
  -3  10 -10  302.33  109.73
  -3  10 -10  517.67   89.96
   3 -10  10  190.75   59.57
   3 -10  10  141.46  103.26
  -3  10  10 -234.16  125.56
   3 -10  10  175.34   87.89
   3 -10  10  118.69   65.68
  -2  10 -10   25.17   57.76
   2 -10 -10   -3.72   69.66
  -2  10 -10  -21.40   91.11
  -2  10 -10   16.53   66.07
  -2  10 -10   10.24   30.93
  -2  10  10   -3.08   62.18
   2 -10  10   14.71   50.67
  -2  10  10 -111.78  113.74
   2 -10  10   21.84   75.98
   2 -10  10  -74.56   85.70
  -1  10 -10    8.31   29.64
  -1  10 -10   17.77   70.50
   1 -10 -10  -20.36   63.69
  -1  10 -10   24.41   96.01
  -1  10 -10  -21.62   70.68
   1 -10  10  -57.63   84.15
  -1  10  10  -95.94   63.12
  -1  10  10    3.53  118.04
   1 -10  10  -36.71   98.57
   1 -10  10  -33.22   53.50
   0  10 -10  332.23  120.03
   0 -10 -10  272.54   83.41
   0  10 -10  182.34   59.39
   0  10 -10   84.69   92.13
   0  10 -10  243.31   91.86
   0  10  10  206.60   73.64
   0 -10  10  189.71   76.51
   0 -10  10   57.81  128.46
   0  10  10  331.23  133.84
  -1 -10 -10   66.38   74.33
   1  10 -10   89.03   91.86
   1  10 -10  -48.64   40.58
   1  10  10  -70.40   62.66
   1  10  10   29.12  123.32
  -2 -10 -10    3.79   81.40
  -2 -10 -10   -4.63   68.20
   2  10  10  -68.00   66.50
   2  10  10  -89.13  121.72
  -3 -10 -10   18.63   76.63
  -3 -10 -10  -84.43  101.29
   3  10  10   16.10   85.57
   3  10  10 -382.97  135.85
  -4 -10 -10  180.99   78.65
  -4 -10 -10  150.66  116.17
   4  10  10    7.24  124.57
   4  10  10  172.79   90.53
  -5 -10 -10  390.08  134.95
  -5 -10 -10  195.60   87.17
   5  10  10  399.54  108.89
   5  10  10  102.99  138.41
  -6 -10 -10  -23.28   73.12
   6  10  10 -158.74  101.46
   6  10  10   50.42  129.05
   7  10  10  223.96  112.29
   8  10  10  113.80  109.04
  -9  11 -10  562.89  171.88
  -7  11 -10   78.02   56.36
  -7  11 -10  130.87   89.14
   7 -11  10   -6.77   92.25
   7 -11  10  -54.12   50.69
  -6  11 -10  -16.25   82.39
  -6  11 -10   27.25   50.17
   6 -11  10  -45.58   51.17
   6 -11  10   56.04   89.70
  -5  11 -10   11.70   72.18
  -5  11 -10    2.98   46.15
   5 -11  10    3.20   43.50
   5 -11  10   28.72   82.93
  -4  11 -10  -16.68   66.33
  -4  11 -10  -10.76   41.75
   4 -11  10   24.40   42.32
   4 -11  10   75.76   56.99
   4 -11  10   43.31   81.27
   4 -11  10  -62.71   73.63
  -3  11 -10  -16.53   37.77
  -3  11 -10   -7.88   94.09
  -3  11 -10    2.56   59.00
   3 -11 -10    4.40   81.11
  -3  11 -10   -2.77   67.71
   3 -11  10    3.14   72.50
  -3  11  10  132.39  126.53
   3 -11  10  -26.22   56.26
   3 -11  10  -69.47   86.63
   3 -11  10   17.18   42.74
  -3  11  10   42.88   70.41
  -2  11 -10   98.93   65.53
  -2  11 -10  -24.22   33.93
  -2  11 -10  -76.86   97.98
   2 -11 -10  -28.76   84.46
  -2  11 -10   -2.94   70.37
  -2  11  10  -50.03   66.87
   2 -11  10    4.12   58.47
   2 -11  10   52.66   84.31
  -2  11  10  -27.05  126.93
   2 -11  10  -24.09   98.62
  -1  11 -10  685.91  136.58
  -1  11 -10  322.58  144.37
  -1  11 -10  331.19  167.30
  -1  11 -10  447.03  112.93
   1 -11 -10  570.20  135.94
  -1  11  10  375.98  121.63
   1 -11  10  399.98  182.13
  -1  11  10  564.77  183.65
   1 -11  10  383.81  133.77
   1 -11  10  566.47  150.71
   0  11 -10  120.88  112.20
   0  11 -10    2.28   30.85
   0 -11 -10  -68.12   83.78
   0  11 -10  -58.62   88.04
   0 -11  10   33.99  124.00
   0  11  10  -27.83   69.33
   0  11  10 -122.91  135.40
   0 -11  10   10.12   66.07
   1  11 -10  483.75  120.15
  -1 -11 -10  738.05  149.39
   1  11 -10  406.74  156.12
   1  11  10  428.98  194.50
   1  11  10  414.57  131.88
  -2 -11 -10   21.00   81.99
  -2 -11 -10   69.19   93.76
   2  11  10  -50.30   78.13
   2  11  10 -233.53  147.25
  -3 -11 -10  126.88   73.70
  -3 -11 -10    4.76  110.80
   3  11  10  -25.47   88.08
   3  11  10   23.18  137.88
  -4 -11 -10   95.07  120.11
  -4 -11 -10  -38.67   80.85
   4  11  10  120.99  137.89
   4  11  10   43.84   96.28
  -5 -11 -10   82.39   81.97
  -5 -11 -10   -5.74  123.00
   5  11  10   -4.34  101.59
   5  11  10  -13.12  137.53
  -6 -11 -10    6.38   86.71
   6  11  10    9.25  104.12
   6  11  10  -68.77  141.48
  -7 -11 -10  181.23   86.43
   7  11  10   48.38  117.61
  -9  12 -10   30.45  110.01
   8 -12  10  -17.59   56.79
  -7  12 -10    7.33  102.81
  -7  12 -10  199.93   56.38
   7 -12  10   14.32  109.15
  -6  12 -10  -56.05   86.32
  -6  12 -10  -47.98   55.01
   6 -12  10  -96.20  103.20
   6 -12  10  -11.11   50.76
  -5  12 -10  118.26   78.17
  -5  12 -10  -42.06   44.86
   5 -12  10  -44.06   46.35
   5 -12  10   79.27   93.42
  -4  12 -10    2.92   43.22
  -4  12 -10   31.88   73.11
   4 -12  10   81.33   46.57
   4 -12  10   66.22   92.00
  -3  12 -10    2.86   67.43
  -3  12 -10  106.59  106.00
  -3  12 -10    2.55   38.55
  -3  12 -10   17.44   70.10
   3 -12  10   -9.06   46.60
   3 -12  10  -52.84   81.50
   3 -12  10   72.96   67.71
   3 -12  10  -40.24   98.42
  -2  12 -10   22.09   79.67
  -2  12 -10   72.59   79.15
  -2  12 -10  166.36  112.23
  -2  12 -10   52.04   45.52
   2 -12  10  134.71   76.07
   2 -12  10   94.40  100.97
   2 -12  10   78.01   47.58
   2 -12  10  144.40  115.66
  -1  12 -10   84.64   85.63
   1 -12 -10   80.68   89.74
  -1  12 -10   25.17  119.78
   1 -12  10  -13.44  124.28
  -1  12  10   31.30   78.29
   1 -12  10   35.15   73.66
   1 -12  10  -76.45  111.38
   0 -12 -10  309.77  118.75
   0  12 -10  470.03  148.57
   0  12 -10  463.40  123.32
   0 -12  10  198.17  103.77
   0  12  10  291.88  102.32
   0  12  10   -4.40  161.96
   1  12 -10   29.30  112.21
  -1 -12 -10   63.69  105.40
  -1 -12 -10  228.88   94.60
   1  12  10    7.20   83.44
   2  12 -10  182.54  119.76
  -2 -12 -10   73.86  114.91
  -2 -12 -10  237.41   95.71
   2  12  10  181.37   94.36
  -3 -12 -10  134.77  123.21
  -3 -12 -10  292.86   88.13
   3  12  10   -4.27  132.18
   3  12  10   56.86   98.20
  -4 -12 -10  142.10  144.68
   4  12  10    8.88  101.41
  -7 -12 -10   21.85   94.15
   8  12  10  -87.74  125.18
   9 -13  10  -39.50  135.79
   8 -13  10   18.53   60.54
   4 -13 -10  -78.22   99.94
  -4  13  10    9.58  154.75
   3 -13 -10  -90.46  103.80
  -3  13  10 -220.02   84.88
   3 -13  10  -48.58   75.36
   3 -13  10   -3.93   94.29
  -3  13  10 -113.56  159.09
  -2  13 -10   -3.51   82.90
   2 -13 -10   24.94   98.15
  -2  13 -10 -212.22  122.87
  -2  13  10    4.72  158.19
  -2  13  10 -186.92   84.46
   2 -13  10  -21.74  108.43
   2 -13  10    5.17   75.17
  -1  13 -10 -101.40  124.57
  -1  13 -10  193.99   95.42
  -1  13  10 -519.34  168.27
   1 -13  10   44.26   80.90
   1 -13  10   89.81  121.60
   0  13 -10 -103.21  111.56
   0  13 -10   37.76  124.03
   0 -13  10   95.75   83.72
   0 -13  10  -73.10  134.24
   0  13  10 -250.35  163.07
   1  13 -10 -106.85  122.80
  -1 -13 -10    6.71   97.82
  -1 -13  10    6.33   78.35
   1  13  10 -114.88  166.42
  -2 -13 -10  107.02  102.42
   2  13 -10   23.29  125.99
  -3 -13 -10   -6.06  124.32
  -3 -13 -10   74.58  105.83
   3  13  10   -4.55   89.34
  -4 -13 -10  393.90  150.29
  -4 -13 -10  -42.39   97.03
   4  13  10  180.35  117.37
   4  13  10 -260.22  179.43
  -5 -13 -10  138.85  111.94
  -5 -13 -10   14.10  169.63
   5  13  10  143.18  180.38
   5  13  10  194.80  127.85
  -6 -13 -10    7.40  168.16
  -6 -13 -10   38.74  103.44
   6  13  10    5.49  166.73
   6  13  10   77.31  133.15
  -7 -13 -10  -55.66   98.80
   7  13  10   -5.72  133.24
   8  13  10  101.54  139.86
   4 -14 -10  -55.35  107.01
  -4  14  10    5.30  169.58
   3 -14 -10  -41.32  116.33
  -3  14  10  255.88  177.90
  -3  14  10   72.50   92.52
   2 -14 -10  -61.43  110.67
  -2  14 -10    3.90   90.72
  -2  14  10  244.48  181.15
  -2  14  10 -193.70   94.38
   2 -14  10   -9.64  118.88
   1 -14 -10  129.65  112.78
  -1  14  10 -162.92  183.73
  -1  14  10   95.01   92.96
   1 -14  10  -10.95  132.31
   0 -14 -10   -5.54  123.16
   0 -14 -10 -129.75  118.28
   0  14  10 -139.42  103.59
   0  14  10 -326.95  190.48
  -1 -14 -10  105.05  135.21
  -1 -14 -10   52.66  113.14
   1  14  10  -22.69  108.97
   1  14  10   83.68  188.07
  -2 -14 -10  175.75  151.09
   2  14 -10  255.71  141.24
  -2 -14 -10  -75.00  114.70
   2  14  10 -291.41  198.17
   2  14  10   42.86  113.57
  -3 -14 -10   68.34  109.80
  -3 -14 -10 -161.75  165.12
   3  14  10  180.04  191.52
   3  14  10 -101.03  116.58
  -4 -14 -10   29.12  173.86
  -4 -14 -10  119.04  108.74
   4  14  10 -105.05  182.39
   4  14  10  -10.75  125.16
  -5 -14 -10   -7.74  182.42
  -5 -14 -10   16.28  106.01
   5  14  10  102.86  131.97
   5  14  10  157.37  192.33
  -6 -14 -10 -105.42  197.65
  -6 -14 -10   25.72  108.16
   6  14  10   66.04  189.31
   6  14  10   18.06  134.37
  -7 -14 -10  -92.36  207.93
  -7 -14 -10   61.05  104.50
   7  14  10   81.40  137.37
   8  14  10 -232.91  151.74
   4 -15 -10 -156.55  126.82
  -4  15  10   64.22  194.93
   3 -15 -10  125.06  130.95
  -3  15  10 -263.50  191.22
  -3  15  10  -99.62   99.39
   2 -15 -10  119.26  132.17
  -2  15 -10  133.41   99.11
   2 -15  10   37.02  125.82
  -2  15  10   81.16  100.35
  -2  15  10 -240.21  195.86
   2 -15  10  -12.75   92.92
  -1  15 -10  -37.02  143.13
   1 -15 -10  -12.22  134.00
  -1  15 -10   38.86  112.86
   1 -15  10  128.05   91.75
   1 -15  10  -29.87  144.36
  -1  15  10   -5.73  191.83
  -1  15  10    4.82  103.85
   0 -15 -10  162.93  132.06
   0  15 -10    4.85  147.52
   0  15 -10   11.19  124.97
   0 -15 -10  -33.71  123.25
   0  15  10   -5.71  204.14
   0  15  10  102.24  110.07
   0 -15  10  -26.95  157.94
   0 -15  10 -113.76   93.08
   1  15 -10  -94.10  143.55
  -1 -15 -10   46.04  142.58
  -1 -15 -10  -84.14  133.94
   1  15  10   -5.11  115.80
  -1 -15  10  -37.08  181.51
  -1 -15  10   29.52   96.06
   1  15  10   85.30  204.33
  -2 -15 -10  118.45  125.81
   2  15 -10 -103.12  152.11
  -2 -15 -10 -161.85  157.41
   2  15  10   -5.62  189.30
   2  15  10  153.80  120.01
  -3 -15 -10  -77.65  135.70
  -3 -15 -10  187.96  173.46
   3  15  10  508.96  136.41
   3  15  10   28.53  195.37
  -4 -15 -10 -223.97  181.71
  -4 -15 -10  115.61  126.39
   4  15  10 -170.68  199.81
   4  15  10   53.03  137.43
  -5 -15 -10 -169.33  194.94
  -5 -15 -10   18.14  126.19
   5  15  10 -199.09  145.82
   5  15  10 -333.05  212.59
  -6 -15 -10   71.14  203.32
  -6 -15 -10   85.61  125.77
   6  15  10 -164.14  205.24
   6  15  10  295.72  155.84
  -7 -15 -10  -38.42  114.43
  -7 -15 -10   55.12  220.57
   7  15  10 -244.54  156.60
  -8 -15 -10  244.27  217.91
   8  15  10   20.95  158.24
   4 -16 -10  204.35  145.37
  -4  16  10   -6.37  222.71
   3 -16 -10 -169.53  141.38
  -3  16  10    6.30  212.79
  -3  16  10   38.53  109.88
   2 -16 -10  -77.70  143.42
  -2  16  10 -389.77  218.47
   2 -16  10 -128.57  111.89
   1 -16 -10  -76.06  160.16
   1 -16 -10  382.36  156.63
  -1  16 -10  255.08  142.30
   1 -16  10   19.46  170.97
  -1  16  10  173.46  229.92
   1 -16  10 -298.17  120.75
  -1  16  10   10.76  120.71
   0  16 -10  344.48  225.80
   0 -16 -10  141.46  239.68
   0 -16 -10  446.11  234.13
   0 -16  10   36.56  250.93
   0 -16  10  233.03  206.87
   0  16  10 1081.76  201.34
   0  16  10 1636.57  301.17
   1  16 -10  285.60  177.46
  -1 -16 -10  405.83  174.49
  -1 -16 -10   28.19  159.54
  -1 -16  10  -48.48  205.70
   1  16  10  197.38  229.67
  -1 -16  10  -16.00  118.92
   1  16  10  330.51  140.67
   2  16 -10 -103.70  174.96
  -2 -16 -10   47.26  175.15
  -2 -16 -10   76.42  158.79
   2  16  10 -629.86  224.51
   2  16  10 -307.00  144.93
  -3 -16 -10  -16.66  187.61
  -3 -16 -10   48.57  144.08
   3  16  10 -254.28  221.26
   3  16  10 -135.98  137.15
  -4 -16 -10  -30.02  144.87
  -4 -16 -10  106.02  208.23
   4  16  10 -246.58  148.48
   4  16  10    6.76  224.24
  -5 -16 -10  143.78  146.53
  -5 -16 -10   -9.28  214.90
   5  16  10  115.18  157.16
   5  16  10    7.03  221.79
  -6 -16 -10 -183.79  224.59
  -6 -16 -10 -190.29  145.58
   6  16  10 -100.57  224.99
   6  16  10  184.14  158.56
  -7 -16 -10   10.62  146.88
  -7 -16 -10 -169.77  234.71
   7  16  10 -471.11  168.72
   4 -17 -10    8.44  157.46
  -4  17  10  -48.94  231.27
   3 -17 -10   82.75  165.16
  -3  17  10  325.11  238.20
  -3  17  10  -67.21  122.96
   2 -17 -10 -239.21  163.90
  -2  17  10 -198.31  230.28
  -2  17  10 -219.33  123.80
   1 -17 -10  115.20  170.18
  -1  17 -10  -11.64  130.24
   1 -17 -10 -173.25  174.66
  -1  17  10  198.37  127.18
  -1  17  10  446.23  241.29
   1 -17  10  -32.92  118.96
   1 -17  10  -21.31  172.09
   0  17 -10  -32.73  149.73
   0  17 -10  107.55  174.95
   0 -17 -10 -223.77  168.19
   0 -17 -10 -188.74  155.85
   0  17  10  172.51  130.45
   0 -17  10  -31.68  182.15
   0 -17  10    8.49  120.72
   0  17  10  140.94  237.84
  -1 -17 -10 -257.11  185.42
   1  17 -10   44.15  166.22
  -1 -17 -10 -158.50  157.31
   1  17  10   13.40  227.18
  -1 -17  10  -17.40  111.69
  -1 -17  10   -8.74  213.70
   1  17  10  -57.04  136.53
   2  17 -10  -56.02  180.95
  -2 -17 -10  -42.50  152.50
  -2 -17 -10 -630.36  198.41
  -2 -17  10  -47.01  225.73
   2  17  10   13.19  234.45
   2  17  10  727.38  155.45
  -3 -17 -10 -264.32  162.69
  -3 -17 -10  323.17  208.31
   3  17  10   56.25  231.42
   3  17  10    6.85  152.31
  -4 -17 -10 -116.04  215.76
  -4 -17 -10  -44.65  168.54
   4  17  10  135.14  163.74
   4  17  10 -111.45  243.02
  -5 -17 -10  -57.43  163.89
  -5 -17 -10  100.87  227.82
   5  17  10    7.37  166.13
   5  17  10   61.93  255.68
  -6 -17 -10  247.06  180.23
  -6 -17 -10  -52.51  265.80
   6  17  10  574.33  202.46
  -7 -17 -10   54.15  255.29
  -7 -17 -10  -58.79  158.43
   7  17  10  174.28  181.21
  -2  18  10 3740.22  695.34
   1 -18 -10 -128.80  195.75
   1 -18 -10  214.02  192.40
   1 -18  10  192.72  136.20
  -1  18  10 -281.17  158.94
   0  18 -10 -467.20  202.26
   0  18 -10  -63.85  165.55
   0 -18 -10   72.07  205.00
   0 -18 -10   11.68  180.42
   0 -18  10   -9.30  127.16
   0 -18  10   68.75  211.85
  -1 -18 -10   23.55  182.50
   1  18 -10 -110.59  185.76
  -1 -18 -10   37.23  211.14
  -1 -18  10  -65.98  230.10
   1  18  10 -554.71  175.02
   1  18  10 -733.85  278.83
   2  18 -10  120.99  335.51
  -2 -18 -10  228.55  339.16
  -2 -18 -10 1799.05  379.36
  -2 -18  10   61.20  375.59
   2  18  10    7.31  427.56
  -3 -18 -10 -123.62  200.66
  -3 -18 -10 -275.44  249.28
   3  18  10 -709.43  297.31
  -4 -18 -10   12.59  194.77
  -4 -18 -10 -625.96  242.10
   4  18  10   38.99  177.11
   4  18  10   -8.15  267.85
  -5 -18 -10   44.25  273.43
  -5 -18 -10  193.39  198.47
   5  18  10   76.17  288.80
   5  18  10  676.98  196.88
  -6 -18 -10 -297.56  288.77
  -6 -18 -10  -52.44  175.91
   6  18  10 -465.29  194.39
   6  18  10 -207.22  275.99
  -7 -18 -10   78.43  169.89
  -7 -18 -10  153.55  279.00
   7  18  10  -17.11  191.54
   4 -19 -10  -10.65  215.31
   3 -19 -10  -10.53  225.15
  -3  19  10  114.31  158.81
  -3  19  10  461.96  309.31
   2 -19 -10 -292.34  223.15
   2 -19 -10  -91.20  196.38
  -2  19  10   -7.64  161.94
  -2  19  10 -635.13  281.46
   1 -19 -10   50.64  214.01
   1 -19 -10 -468.43  220.07
  -1  19  10 -217.03  163.14
  -1  19  10 -270.53  276.66
   0 -19 -10   13.01  201.18
   0 -19 -10 -233.74  223.21
   0  19  10   -7.66  167.26
   0 -19  10 -255.46  139.53
   0  19  10   -7.90  262.69
   0 -19  10  -55.57  223.25
  -1 -19 -10  -13.24  200.66
  -1 -19 -10   20.89  227.90
   1  19 -10    8.49  194.85
   1  19  10    7.75  267.00
  -1 -19  10  -40.59  253.31
   1  19  10 -520.64  178.52
  -2 -19 -10 -256.69  208.95
  -2 -19 -10   10.81  241.48
   2  19  10   32.62  278.45
   2  19  10   65.42  180.79
  -3 -19 -10 -112.84  246.15
  -3 -19 -10 -139.52  202.23
   3  19  10 -285.14  191.45
   3  19  10  308.97  294.69
  -4 -19 -10 -665.04  296.49
  -4 -19 -10 -477.28  217.90
   4  19  10 -402.07  208.37
   4  19  10 -449.59  302.02
  -5 -19 -10 -602.02  286.09
   5  19  10  -52.80  203.97
   1  20 -10   27.50  211.46
  -1 -20  10   43.83  277.93
   0   1 -11 3471.38  723.09
   0   1 -11 3073.66  782.67
   0  -1  11 2648.63  839.73
  -1   1 -11   -4.58   20.60
  -1   1 -11   38.46   38.52
   1   1  11  -26.05   25.96
   1  -1  11   30.01   47.44
  -1   2 -11  489.49  168.00
   1  -2  11  606.24  174.89
   2   1  11  891.77  182.23
   0  -2 -11   49.97   22.54
  -2   0 -11    3.71   16.19
   0   2 -11    4.74   43.12
   0   2 -11   -2.03   24.68
   0  -2  11  -23.92   56.84
  -1  -2 -11  525.72  144.56
  -2   1 -11  716.02  155.35
  -1  -2 -11  424.46  156.37
   1   2  11  578.29  165.62
   2  -1  11  559.49  156.35
   1   2  11  618.63  176.00
  -2   2 -11   11.23   17.62
  -2  -2 -11  -15.80   35.52
  -2   2 -11  -26.37   39.43
  -2  -2 -11  -22.56   20.69
   2  -2  11    8.39   39.91
   2   2  11   28.20   37.04
   2   2  11   15.98   40.40
   2   2  11    2.81   24.02
  -3  -2 -11  181.16   39.77
  -3  -2 -11  147.67   40.64
  -2   3 -11   81.05   37.62
  -2   3 -11  117.11   55.93
   2  -3  11  169.95   57.73
   3   2  11  192.26   41.33
   3   2  11  213.14   54.62
  -3  -1 -11    9.02   15.06
  -1   3 -11    8.85   40.05
  -3  -1 -11   39.27   15.61
  -3  -1 -11   12.78   14.54
   3   1  11    3.81   16.54
   1  -3  11  -11.09   48.50
   3   1  11   30.13   27.55
   0   3 -11  129.25   59.17
   0  -3 -11  167.61   43.03
  -3   0 -11  167.69   52.15
  -3   0 -11  138.65   37.49
   0   3  11  151.67   57.52
   3   0  11  113.97   48.79
   0  -3  11  153.21   72.45
  -3   1 -11   -1.70   36.14
  -1  -3 -11   10.49   17.43
  -1  -3 -11  -11.99   35.60
  -1  -3 -11   -6.83   23.52
  -3   1 -11   -1.28   16.53
   1   3  11   12.18   44.17
   3  -1  11   -4.14   32.00
   1   3  11    4.00   28.97
   1   3  11   59.75   46.77
  -2  -3 -11   89.32   34.58
  -3   2 -11  164.82   51.07
  -2  -3 -11  106.22   49.87
  -2  -3 -11  134.33   39.89
  -3   2 -11  102.53   35.87
   2   3  11  136.18   51.84
   2   3  11  110.77   63.28
   2   3  11  155.60   41.90
   3  -2  11  176.88   50.17
  -3   3 -11  -11.32   41.44
  -3  -3 -11  -32.04   33.93
  -3   3 -11   -3.11   11.35
  -3  -3 -11   -9.73   25.26
  -3  -3 -11    8.72   22.14
   3   3  11  -66.92   51.94
   3   3  11  -29.84   31.72
   3  -3  11   -3.32   11.75
   3  -3  11   12.61   39.28
  -3   4 -11   29.99   43.75
  -4  -3 -11   67.30   35.01
  -3   4 -11   54.80   22.56
  -3   4 -11   21.70   21.64
  -3   4 -11   49.35   39.25
  -4  -3 -11   46.76   30.69
   4   3  11   27.91   32.65
   3  -4  11   35.99   25.37
   3  -4  11   38.40   23.92
   3  -4  11   34.47   44.53
   4   3  11   99.90   56.38
  -2   4 -11  679.32  202.94
  -4  -2 -11  861.61  203.47
  -4  -2 -11  815.60  199.28
  -2   4 -11  639.64  185.35
  -4  -2 -11  778.00  188.65
  -2   4 -11  813.50  178.22
   4   2  11 1055.69  192.62
   2  -4  11  681.51  209.53
  -4  -1 -11   -0.60   18.73
  -1   4 -11   -6.96   23.25
  -4  -1 -11   14.92   18.74
  -4  -1 -11   29.44   35.60
  -1   4 -11   -9.33   47.48
   4   1  11   36.97   18.29
   4   1  11   17.45   17.46
   1  -4  11   33.10   57.42
   4   1  11   13.47   31.74
  -4   0 -11    1.38   18.72
  -4   0 -11   -4.93   35.77
   0   4 -11    2.62   52.32
   0   4 -11  -31.79   27.40
   0  -4 -11   -6.06   21.93
   4   0  11  -22.08   18.05
   4   0  11  -22.15   33.13
   0  -4  11  -29.28   64.64
  -1  -4 -11  -12.12   29.23
  -4   1 -11   51.42   20.45
  -1  -4 -11   19.73   17.39
  -4   1 -11   10.39   41.55
   1   4  11   35.62   32.87
   4  -1  11   26.61   33.33
   4  -1  11   30.20   21.81
   1   4  11   47.64   49.95
  -2  -4 -11 1004.93  220.39
  -4   2 -11  748.31  207.74
  -2  -4 -11  660.40  196.88
   2   4  11  885.65  223.85
   4  -2  11  639.06  214.32
   2   4  11 1136.83  196.82
  -4   3 -11   49.10   23.15
  -3  -4 -11    4.01   38.26
  -3  -4 -11   16.91   34.69
  -3  -4 -11  101.56   28.90
  -3  -4 -11   29.07   17.83
  -4   3 -11   17.57   43.99
   4  -3  11   30.44   16.35
   3   4  11   42.52   33.80
   3   4  11   34.69   16.74
   4  -3  11   87.74   41.17
   3   4  11  159.16   36.75
   4  -4  11  157.00   54.54
   4  -4  11  226.02   72.97
  -4   5 -11    9.12   25.38
  -4   5 -11   15.41   52.11
  -4   5 -11   16.81   43.29
  -4   5 -11  -10.01   27.18
  -5  -4 -11  -13.78   27.87
   5   4  11   -4.47   20.37
   4  -5  11   -8.64   26.47
   4  -5  11   42.89   47.28
   4  -5  11   -2.18   27.77
   4  -5  11    6.13   23.64
  -5  -3 -11  644.44  155.04
  -3   5 -11  573.06  157.12
  -3   5 -11  746.74  139.04
  -3   5 -11  611.72  188.79
  -5  -3 -11  656.98  159.95
  -3   5 -11  675.02  148.29
   3  -5  11  669.64  160.84
   5   3  11  641.68  143.39
   3  -5  11  436.82  161.55
   3  -5  11  639.93  153.89
  -2   5 -11   84.21   48.98
  -2   5 -11   24.77   28.24
  -2   5 -11   24.96   22.31
  -5  -2 -11  -20.04   42.70
  -5  -2 -11   23.16   27.44
   2  -5  11   -8.27   56.48
   5   2  11 -132.60   37.35
   5   2  11   54.09   21.06
  -5  -1 -11  216.50   60.25
  -1   5 -11  208.90   58.45
  -1   5 -11  189.62   49.02
  -5  -1 -11  138.01   50.14
  -1   5 -11  143.40   69.33
   5   1  11  212.26   54.30
  -1   5  11  163.98   74.72
   5   1  11  202.29   47.17
   1  -5  11  225.69   81.08
   0  -5 -11    6.86   21.80
   0  -5 -11   22.08   34.66
   0   5 -11   14.96   27.69
  -5   0 -11   18.70   37.77
   0   5 -11   -8.31   57.61
  -5   0 -11   40.10   23.66
   0  -5  11   12.50   69.14
   0   5  11   18.64   37.14
   0   5  11   33.90   58.19
   5   0  11   11.55   19.88
  -5   1 -11  216.51   61.11
  -1  -5 -11  193.97   49.67
  -1  -5 -11  276.98   57.23
  -5   1 -11  109.95   48.74
   5  -1  11  142.44   47.49
   1   5  11  235.98   85.37
   1   5  11  210.59   56.27
  -2  -5 -11   -1.46   15.01
  -2  -5 -11  -74.33   48.93
  -5   2 -11   35.36   23.14
  -5   2 -11   18.88   45.31
   2   5  11 -153.38   56.98
   5  -2  11   45.21   24.74
   2   5  11 -157.28   92.27
  -3  -5 -11  610.57  136.34
  -3  -5 -11  324.56  154.49
  -5   3 -11  547.44  141.94
  -3  -5 -11  619.79  131.01
   3   5  11  347.83  173.22
   3   5  11  599.28  124.04
   3   5  11  414.06  151.20
  -5   4 -11   -2.00   25.52
  -4  -5 -11  241.58   48.69
  -4  -5 -11  -16.86   22.54
  -4  -5 -11   11.44   36.00
  -5   4 -11   36.59   48.17
  -4  -5 -11   25.94   37.42
   4   5  11    6.93   16.92
   4   5  11   58.98   70.15
   4   5  11   33.22   30.12
   5  -4  11   -2.14   25.58
  -5   5 -11   38.12   28.59
  -5   5 -11   57.17   53.37
  -5  -5 -11  -13.04   42.33
   5   5  11   34.90   71.52
   5  -5  11   19.79   50.03
   5   5  11  -95.32   52.19
   5  -5  11   16.03   30.47
  -5   6 -11  174.95   52.76
  -5   6 -11  158.33   75.94
  -6  -5 -11  218.97   64.60
   5  -6  11   91.62   76.85
   5  -6  11  277.39   57.19
   6   5  11  164.64   77.01
  -6  -4 -11 2192.19  504.97
  -4   6 -11 1878.31  478.54
  -4   6 -11 1809.00  492.77
  -4   6 -11 1716.58  524.34
  -4   6 -11 1990.55  441.05
   4  -6  11 2151.21  442.76
   4  -6  11 2201.64  494.48
   4  -6  11 1907.87  471.14
   4  -6  11 1723.01  510.01
  -3   6 -11    7.02   23.41
  -3   6 -11   20.31   30.78
  -3   6 -11   47.15   55.39
  -3   6 -11   20.31   48.32
  -6  -3 -11   14.00   34.85
   3  -6  11    8.46   38.92
   3  -6  11   19.40   30.64
   3  -6  11   14.34   52.31
   6   3  11   47.11   42.55
   6   3  11   14.66   20.43
  -6  -2 -11 3739.39  813.20
  -2   6 -11 3083.46  743.84
  -2   6 -11 3282.13  992.35
  -2   6 -11 3631.75  714.12
  -6  -2 -11 3149.89  805.83
  -2   6 -11 2679.73  799.94
   2  -6  11 2876.16  840.22
   2  -6  11 3316.07  783.12
   6   2  11 3162.81  750.71
   2  -6  11 3261.52  859.90
  -1   6 -11  309.26   71.13
  -6  -1 -11  305.51   81.51
  -1   6 -11  278.41   81.82
   1  -6 -11  169.37   84.42
  -1   6 -11  370.75   95.41
  -6  -1 -11  352.76   77.27
  -1   6  11  301.36  102.85
   6   1  11  278.57   72.22
   1  -6  11  303.62  106.08
  -6   0 -11   10.64   37.92
   0  -6 -11  -21.58   39.35
   0  -6 -11  -18.89   20.95
   0   6 -11    2.18   27.84
   0   6 -11   23.48   57.75
  -6   0 -11    6.68   27.77
   0  -6  11   23.66   75.01
   0   6  11 -108.95   73.81
   6   0  11    3.81   24.00
   0   6  11  -33.76   46.63
  -1  -6 -11  251.17   77.80
  -6   1 -11  323.74   81.15
  -1  -6 -11  284.60   72.53
  -6   1 -11  250.56   72.93
   1   6  11  289.58  111.44
   1   6  11  250.63   76.68
   6  -1  11  338.78   70.04
  -2  -6 -11 3634.49  844.50
  -2  -6 -11 3053.76  783.67
  -6   2 -11 2994.07  801.40
   2   6  11 3013.94  913.15
   2   6  11 3181.76  752.28
   2   6  11 4057.75  903.98
   6  -2  11 3367.79  744.43
  -6   3 -11   42.66   46.66
  -3  -6 -11   13.15   38.02
  -3  -6 -11   18.04   36.21
  -3  -6 -11    8.59   46.65
  -3  -6 -11  -15.16   19.07
  -6   3 -11   11.35   30.55
   3   6  11   -6.39   36.05
   3   6  11   13.36   13.92
   6  -3  11    8.68   26.65
   3   6  11  -27.94   79.51
   3   6  11    1.75   43.46
  -6   4 -11 2015.37  444.85
  -6   4 -11 2154.83  483.61
  -4  -6 -11 1831.42  531.99
  -4  -6 -11 2088.33  459.88
  -4  -6 -11 1800.35  512.52
   6  -4  11 2319.04  444.79
   4   6  11 1846.88  513.07
   4   6  11 1556.59  480.56
  -5  -6 -11  269.14   67.74
  -6   5 -11  178.82   56.76
  -5  -6 -11  232.58   66.42
  -6   5 -11  154.13   72.51
   6  -5  11  199.97   56.45
   5   6  11  244.96   78.83
   5   6  11  150.94   99.09
  -6   6 -11  -47.06   35.07
  -6   6 -11  -10.28   56.74
   6  -6  11    7.80   33.73
   6   6  11   25.77   61.47
  -6   7 -11   41.50   66.65
  -6   7 -11   -8.27   37.17
   7   6  11   36.54   71.04
   6  -7  11  -19.42   35.68
  -5   7 -11   15.60   57.95
  -7  -5 -11    3.29   40.18
  -5   7 -11   11.87   31.93
   5  -7  11   31.55   36.10
   5  -7  11  -18.44   60.62
   7   5  11  102.82   60.06
  -7  -4 -11  157.78   62.35
  -4   7 -11  233.40   74.02
  -4   7 -11  181.35   52.05
   7   4  11  213.28   71.58
   4  -7  11  230.93   55.15
   4  -7  11  124.47   73.02
  -7  -3 -11  525.11  150.40
  -3   7 -11  640.96  150.63
  -3   7 -11  548.93  131.38
   3  -7  11  581.07  159.56
  -7  -2 -11  232.74   66.05
  -2   7 -11  226.34   75.17
  -2   7 -11  184.09   53.09
   2  -7  11  156.13   83.43
  -2   7  11  191.73   94.02
   2  -7  11  137.31   67.34
  -1   7 -11  322.78   67.80
  -7  -1 -11  267.17   80.92
  -1   7 -11  357.31   82.75
  -1   7 -11  328.63   95.34
   1  -7 -11  307.05   84.40
   7   1  11  222.94   69.63
  -1   7  11  216.37   80.02
  -1   7  11  193.86  109.02
   1  -7  11  253.98  107.82
   0   7 -11 1294.56  309.47
   0  -7 -11  856.92  279.02
   0   7 -11 1249.01  258.33
  -7   0 -11 1199.88  285.40
   0   7 -11 1245.68  291.13
   0  -7  11  940.14  345.94
   7   0  11 1115.92  266.23
   0   7  11 1099.51  265.11
   0   7  11 1163.92  333.01
  -7   1 -11  254.93   74.20
  -1  -7 -11  307.70   77.93
   1   7 -11  237.99   72.16
  -7   1 -11  317.42   81.28
   1   7  11  234.27   75.23
   7  -1  11  229.50   68.29
   1   7  11  226.61  117.41
  -2  -7 -11  197.91   73.59
  -7   2 -11  240.51   64.78
  -7   2 -11  290.11   72.91
   2   7  11  234.71  111.71
   7  -2  11  200.15   59.28
   2   7  11  227.73   69.59
  -3  -7 -11  536.55  146.97
  -7   3 -11  531.17  130.21
  -7   3 -11  551.60  139.15
  -3  -7 -11  424.03  135.68
   7  -3  11  526.53  126.49
   3   7  11  511.11  171.71
   3   7  11  496.89  135.48
  -4  -7 -11  112.71   80.22
  -7   4 -11  117.92   65.76
  -4  -7 -11  214.15   63.22
   4   7  11  209.28   96.11
   4   7  11  112.88   68.72
  -7   5 -11   20.56   62.18
  -7   5 -11   -2.93   36.92
  -5  -7 -11  -26.74   52.17
   5   7  11    8.02   64.68
   7  -5  11  -40.82   35.74
   5   7  11   -2.89   92.96
  -7   6 -11  -16.51   62.21
  -6  -7 -11   -8.88   50.37
  -7   6 -11   48.85   38.64
   6   7  11  -23.59   73.29
   7  -6  11    5.77   37.07
  -7   7 -11   -6.40   38.63
  -7   7 -11  -43.98   73.86
   7   7  11   69.48   78.82
   7  -7  11   21.46   41.34
  -7   8 -11   70.76   50.06
  -7   8 -11   34.38   73.69
   7  -8  11   39.13   45.22
  -6   8 -11   26.52   71.68
  -6   8 -11   14.58   38.97
   6  -8  11   31.85   74.03
   6  -8  11   68.21   38.89
  -5   8 -11  566.53  174.89
  -5   8 -11  628.54  151.80
   5  -8  11  685.99  190.80
   5  -8  11  705.72  157.54
  -4   8 -11   20.25   34.96
  -4   8 -11   43.54   59.63
   4  -8  11   41.24   39.34
   4  -8  11   73.97   65.78
   4  -8  11    5.97   49.35
   4  -8  11   31.53   34.66
  -3   8 -11  642.16  165.33
  -3   8 -11  469.72  130.70
  -3   8 -11  423.76  146.18
  -3   8 -11  617.57  125.59
   3  -8  11  365.04  141.43
   3  -8  11  582.98  159.27
   3  -8  11  431.23  141.63
   2  -8 -11  296.26  114.03
  -2   8 -11  301.83  117.58
  -2   8 -11  412.82  142.90
  -2   8 -11  499.12   95.17
  -2   8 -11  391.45  104.43
   2  -8  11  220.53  130.19
   2  -8  11  463.82  115.07
   2  -8  11  183.21  115.30
  -2   8  11  647.84  140.96
  -1   8 -11  274.75  116.58
  -1   8 -11  238.46   97.46
   1  -8 -11  312.97   89.10
  -1   8 -11  317.31   70.59
  -1   8 -11  310.89   87.32
   1  -8  11  185.70  112.95
   1  -8  11  225.79   85.63
  -1   8  11  285.95   81.89
  -1   8  11  286.93  115.92
   0   8 -11   -2.28   31.19
   0  -8 -11    5.23   49.16
  -8   0 -11  -19.35   44.61
   0   8 -11   -9.96   73.16
   0   8 -11   11.56   64.61
   0   8  11  -32.18   50.06
   0  -8  11   51.63   95.44
   0   8  11   -5.74   92.95
   1   8 -11  479.59  101.41
  -1  -8 -11  298.52   86.06
  -8   1 -11  281.60   87.18
   1   8 -11  385.31   79.06
   1   8  11  302.45  127.85
   8  -1  11  179.68   72.80
   1   8  11  228.34   82.64
  -8   2 -11  386.48  115.67
  -2  -8 -11  500.43  120.82
   2   8  11  449.98  156.40
   2   8  11  366.80  111.03
   8  -2  11  459.79  103.44
  -3  -8 -11  743.45  164.78
  -3  -8 -11  668.27  151.93
  -8   3 -11  418.61  145.78
  -8   3 -11  634.51  153.97
   8  -3  11  596.40  140.29
   3   8  11  523.45  185.67
   3   8  11  697.15  152.52
  -4  -8 -11   58.80   79.12
  -4  -8 -11   41.91   54.39
  -8   4 -11  127.31   56.20
   4   8  11   84.22   66.15
   4   8  11  102.36   97.97
  -8   5 -11  643.56  155.97
  -5  -8 -11  830.36  198.66
  -5  -8 -11  463.58  161.39
  -8   5 -11  632.04  166.01
   5   8  11  535.47  178.87
   5   8  11  593.06  197.88
   8  -5  11  676.45  150.19
  -8   6 -11    7.06   44.93
  -6  -8 -11   58.05   60.49
  -8   6 -11  -11.74   72.41
   6   8  11   49.95   78.17
   8  -6  11    9.70   41.78
   6   8  11  -62.72  111.45
  -8   7 -11   55.15   49.16
  -8   7 -11   47.35   70.05
   8  -7  11   64.93   45.35
   7   8  11   87.85   84.86
  -8   8 -11  -77.45   79.52
  -8   8 -11   -3.85   51.24
   8  -8  11    3.62   46.45
   8   8  11   63.10   88.93
  -8   9 -11  -50.00   86.39
  -8   9 -11   20.17   54.44
   8  -9  11   46.00   49.23
  -7   9 -11  241.49   90.09
  -7   9 -11  124.23   59.47
   7  -9  11  131.68   58.00
  -6   9 -11    6.26   75.08
  -6   9 -11   12.33   42.84
   6  -9  11  -53.91   42.07
   6  -9  11    5.70   78.05
  -5   9 -11  294.92   75.18
  -5   9 -11  137.62   98.48
   5  -9  11  338.60   80.12
   5  -9  11  264.08  105.56
  -4   9 -11  467.89  124.13
  -4   9 -11  509.15  143.88
   4  -9  11  561.67  157.16
   4  -9  11  539.77  127.43
  -3   9 -11  -34.56   78.21
  -3   9 -11   -3.92   46.77
  -3   9 -11  -19.70   31.38
  -3   9 -11   40.21   64.29
   3  -9  11   26.92   45.86
   3  -9  11   -9.54   59.55
   3  -9  11  -30.60   39.83
   3  -9  11   24.30   67.62
  -2   9 -11  299.19   77.90
   2  -9 -11  236.62   98.93
  -2   9 -11  375.80  122.19
  -2   9 -11  287.72   89.77
  -2   9 -11  244.09  102.92
   2  -9  11  306.90  118.90
  -2   9  11  305.99  128.00
   2  -9  11  238.66  102.74
   2  -9  11  271.23   92.94
  -2   9  11  387.46   94.12
   1  -9 -11   85.97   57.94
  -1   9 -11   60.85   63.34
  -1   9 -11   34.16   32.48
  -1   9 -11   93.69   72.69
  -1   9 -11   92.92   90.46
   1  -9  11  100.58   95.23
  -1   9  11   74.71   57.41
   1  -9  11   86.96   55.18
  -1   9  11   -3.15  102.97
   0  -9 -11   41.26   59.40
   0   9 -11   22.39   74.32
   0   9 -11   30.55   35.81
   0   9 -11   31.81   75.60
   0  -9  11   -4.34  107.97
   0   9  11   51.92  107.89
   0   9  11   12.51   54.31
   1   9 -11   59.49   82.27
   1   9 -11  -11.03   40.45
  -1  -9 -11  -26.68   62.37
   1   9  11   -3.31  113.54
   1   9  11   57.37   58.95
  -2  -9 -11  436.26  114.16
  -2  -9 -11  456.97  109.60
   2   9  11  239.80  150.11
   2   9  11  400.28  103.30
  -3  -9 -11  -28.95   59.39
  -3  -9 -11  -28.12   77.88
   3   9  11  -12.82  117.15
   3   9  11  -16.50   64.34
  -4  -9 -11  312.08  133.77
  -4  -9 -11  503.39  163.04
   4   9  11  619.96  143.59
   4   9  11  503.14  168.41
  -9   5 -11  379.67   96.09
  -5  -9 -11  137.62   94.85
  -5  -9 -11  388.42  131.74
   5   9  11  215.79  141.05
   5   9  11  374.48  111.11
  -9   6 -11   12.53   69.85
  -6  -9 -11  -47.46   67.24
   6   9  11   55.53   87.97
   9  -6  11  -92.27   42.31
   6   9  11    7.59  121.39
  -9   7 -11  156.35   89.68
   9  -7  11  141.74   57.65
   7   9  11  121.80   98.50
  -9   8 -11    3.60   88.32
   8   9  11  -44.99   91.61
  -9  10 -11   -4.09   69.40
   9 -10  11  -48.47   61.72
  -8  10 -11   -3.79   93.88
  -7  10 -11    3.74   54.02
  -7  10 -11  124.01   88.43
   7 -10  11   26.69   96.19
   7 -10  11   63.48   50.07
  -6  10 -11   39.53   86.72
  -6  10 -11   75.03   50.94
   6 -10  11   64.67   48.19
   6 -10  11    3.06   88.00
  -5  10 -11   52.44   45.29
  -5  10 -11   26.97   75.43
   5 -10  11   77.13   47.81
   5 -10  11   97.36   82.96
  -4  10 -11   62.58   71.17
  -4  10 -11   71.00   39.45
   4 -10  11   53.94   44.12
   4 -10  11   56.41   78.50
  -3  10 -11   79.22   72.78
  -3  10 -11   86.08   42.52
   3 -10  11   62.86   68.58
   3 -10  11  178.62   47.30
  -3  10  11 -150.41  109.25
   3 -10  11   95.31   57.04
   3 -10  11   89.91   85.07
  -2  10 -11   50.18  104.11
  -2  10 -11   23.83   77.50
  -2  10 -11   77.47   67.33
   2 -10 -11  478.79   95.93
   2 -10  11  -11.49   65.56
   2 -10  11   93.74   95.00
  -2  10  11  643.88   81.65
   2 -10  11   27.73   85.77
  -1  10 -11   31.41  101.45
  -1  10 -11   -6.72   34.67
  -1  10 -11   -3.31   73.27
   1 -10 -11 -169.04   75.59
  -1  10 -11   11.85   69.19
   1 -10  11  -70.77  108.32
   1 -10  11   56.54   62.38
  -1  10  11 -365.63  133.82
  -1  10  11 -189.52   69.28
   0 -10 -11 -116.74   76.03
   0  10 -11  -42.48   79.26
   0  10 -11  -24.07   37.38
   0 -10  11    9.45   58.67
   0  10  11 -377.15  142.93
   0 -10  11   47.18  120.43
  -1 -10 -11  -61.52   79.64
   1  10 -11   37.08   87.71
   1  10 -11  -55.33   43.89
  -2 -10 -11   90.27   76.97
  -2 -10 -11  161.71   91.47
  -3 -10 -11   52.63   94.98
  -3 -10 -11   80.33   71.42
   3  10  11  211.79  134.55
   3  10  11  -84.55   79.69
  -4 -10 -11   -9.84   67.58
  -4 -10 -11  -85.94   97.33
   4  10  11 -138.74   84.30
   4  10  11   72.05  124.02
  -5 -10 -11  144.88  119.00
  -5 -10 -11   78.74   73.87
   5  10  11   94.14  131.59
   5  10  11   19.11   91.64
  -6 -10 -11   40.43   77.62
   6  10  11  153.83  131.91
   6  10  11   -4.09   97.02
   7  10  11  169.68  106.78
   8  10  11  103.25  109.22
 -10  11 -11  -56.06  113.67
  -9  11 -11 -129.56  114.89
  -7  11 -11  225.81   60.47
  -7  11 -11   29.77   95.46
   7 -11  11   -7.13  105.39
  -6  11 -11  -33.95   86.44
  -6  11 -11  -28.34   50.91
   6 -11  11   39.04   93.55
   6 -11  11   18.14   53.23
  -5  11 -11   66.03   48.82
  -5  11 -11   31.08   79.33
   5 -11  11   88.66   51.85
   5 -11  11   64.96   87.80
  -4  11 -11  134.10   81.59
  -4  11 -11  124.58   54.04
   4 -11  11  144.40   60.79
   4 -11  11  160.00   97.91
  -3  11 -11   42.96   40.70
   3 -11 -11   40.70   79.63
  -3  11 -11   65.31   73.73
  -3  11  11  218.84  123.62
   3 -11  11   92.43   62.16
   3 -11  11  102.99   94.58
   3 -11  11   15.35   45.10
   3 -11  11  -30.94   74.58
   2 -11 -11  -12.65   78.67
  -2  11 -11   25.47   76.44
  -2  11 -11  106.75   67.56
  -2  11 -11   94.55  103.97
  -2  11 -11  -16.29   37.57
   2 -11  11   46.81   61.46
  -2  11  11 -130.46   71.69
   2 -11  11   87.10   84.59
   2 -11  11   51.68   96.68
  -2  11  11    7.78  129.12
   1 -11 -11  139.63   79.84
  -1  11 -11    2.35   37.04
  -1  11 -11   17.38   82.14
  -1  11 -11  -57.68  105.44
  -1  11 -11  -26.45   79.15
   1 -11  11  126.23  109.59
  -1  11  11    3.21   69.91
   1 -11  11  -52.10   99.38
   1 -11  11   71.47   66.98
  -1  11  11  134.91  132.19
   0  11 -11  518.13  146.49
   0  11 -11  463.12  114.09
   0 -11 -11  540.92  140.47
   0 -11  11  184.83  135.09
   0  11  11  534.20  128.77
   0  11  11  714.54  192.50
   0 -11  11  472.08  195.42
   1  11 -11  -31.26   98.95
  -1 -11 -11  -19.55   88.13
   1  11 -11  -50.32   43.32
   1  11  11   89.14   75.29
   1  11  11  294.38  150.46
  -2 -11 -11 -146.16   78.53
  -2 -11 -11   54.80   97.21
   2  11  11 -105.09  144.15
   2  11  11  -16.53   78.12
  -3 -11 -11  180.38  108.98
  -3 -11 -11   10.81   83.99
   3  11  11  262.80   87.86
   3  11  11  -55.73  137.40
  -4 -11 -11  270.06  129.12
  -4 -11 -11  150.62   91.53
   4  11  11  235.81  103.23
   4  11  11  209.99  147.98
  -5 -11 -11  212.06  134.40
  -5 -11 -11   58.68   82.48
   5  11  11   63.58  101.05
   5  11  11   65.15  149.66
  -6 -11 -11  155.14  143.07
  -6 -11 -11   -6.36   85.48
   6  11  11  287.46  142.37
   6  11  11  117.80  104.61
  -7 -11 -11   99.67   80.14
   7  11  11 -185.69  117.37
 -10  12 -11   34.27  121.75
  -9  12 -11   68.43  111.61
   9 -12  11   39.34  125.07
  -8  12 -11  300.97  109.44
  -8  12 -11   32.99   74.64
   8 -12  11  365.26  127.47
   8 -12  11   50.07   71.80
  -6  12 -11  -11.21   50.48
  -6  12 -11   52.19   87.63
   6 -12  11  -55.73  105.10
   6 -12  11   46.06   45.82
  -5  12 -11 -177.72   82.29
  -5  12 -11  -23.13   49.42
   5 -12  11  -97.51  103.25
   5 -12  11   89.78   52.19
  -4  12 -11  -36.14   42.11
  -4  12 -11  -46.62   81.12
   4 -12  11  -13.62   49.42
   4 -12  11  -26.97   98.71
  -3  12 -11  -51.93   41.96
  -3  12 -11  -87.31   77.35
   3 -12  11   22.05  106.66
  -3  12  11   -4.33  132.13
   3 -12  11   32.07   48.93
  -2  12 -11   29.82   38.89
  -2  12 -11  153.34  113.94
  -2  12 -11 -112.89   77.14
  -2  12 -11  -87.90   76.26
   2 -12  11  -56.58   65.97
   2 -12  11   24.40  113.35
   2 -12  11   42.65   94.66
  -1  12 -11   63.96   42.57
  -1  12 -11    3.66  117.10
  -1  12 -11   62.19   87.29
  -1  12 -11  256.80   89.16
  -1  12  11   -3.48   80.04
   1 -12  11   17.89  114.14
   1 -12  11   88.56   75.81
   1 -12  11  191.77  124.92
   0 -12 -11   34.32   91.22
   0  12 -11   64.49  100.45
   0  12 -11  -10.17   35.53
   0 -12  11   22.28   68.71
   0  12  11 -132.88   77.01
   1  12 -11  176.46  113.91
  -1 -12 -11  111.53   99.29
   1  12  11   78.89   85.48
  -2 -12 -11   -6.10   72.22
  -2 -12 -11   38.37  116.72
   2  12  11  -11.19   88.93
  -3 -12 -11  104.21  123.83
   3  12  11 -287.02   94.64
  -4 -12 -11  -85.87  135.24
   4  12  11   21.53  104.51
  -7 -12 -11   43.50   91.89
   8  12  11  200.70  135.14
 -10  13 -11 -148.95  134.24
  10 -13  11   49.12  142.37
  -9  13 -11 -221.73  124.42
   9 -13  11  299.24  134.08
   8 -13  11  -64.16  122.40
   8 -13  11   71.66   57.69
   7 -13  11  -17.91   59.16
   3 -13 -11  430.61  121.91
  -3  13  11   -4.80  167.32
  -3  13  11    8.50   96.74
   2 -13 -11 -243.20  108.68
   2 -13  11    4.28  102.73
   2 -13  11  -20.85   75.49
  -2  13  11 -243.87  171.44
  -2  13  11  -89.46   90.19
   1 -13 -11  -82.91  100.41
  -1  13 -11 -133.92  129.07
  -1  13 -11 -150.40   96.51
   1 -13  11  -44.37  121.31
  -1  13  11   65.70   86.31
  -1  13  11 -275.49  172.58
   1 -13  11    5.69   78.34
   0  13 -11  117.24  109.27
   0 -13 -11  296.57  101.51
   0  13 -11    4.28  128.62
   0  13  11   14.77  178.48
   0  13  11   66.51   85.50
   0 -13  11  -42.22   79.44
   0 -13  11  -22.32  133.94
   1  13 -11  -26.83  122.12
  -1 -13 -11  -20.66  112.72
   1  13  11  721.59  101.50
   1  13  11    4.90  184.39
  -2 -13 -11   20.59  112.00
  -2 -13 -11  587.60  164.87
   2  13  11 -321.69  225.12
   2  13  11  398.22  105.71
  -3 -13 -11  958.59  174.44
  -3 -13 -11  -97.27  120.87
   3  13  11  410.26  126.41
   3  13  11   23.95  213.30
  -4 -13 -11  165.11  162.09
  -4 -13 -11    7.17  102.88
   4  13  11   -5.01  173.97
   4  13  11  186.23  118.11
  -5 -13 -11 -213.19  163.16
  -5 -13 -11   44.43  108.33
   5  13  11  -21.21  176.36
   5  13  11   -5.12  117.45
  -6 -13 -11  -80.02  171.43
  -6 -13 -11   38.94  106.56
   6  13  11    5.44  129.30
   6  13  11  159.70  178.87
  -7 -13 -11  257.65  181.69
  -7 -13 -11  -39.75  102.27
   7  13  11  250.00  135.46
   8  13  11 -111.70  135.66
  -4  14  11   -5.38  172.93
   3 -14 -11  -54.00  112.81
  -3  14  11 -180.44  181.08
  -3  14  11    4.63   95.49
   2 -14 -11    5.78  117.16
  -2  14  11   40.27   92.03
  -2  14  11   21.03  183.40
   1 -14 -11   82.29  110.03
  -1  14  11 -176.20   95.93
  -1  14  11   -5.31  186.19
   1 -14  11  -10.81  130.00
   0 -14 -11  247.85  119.72
   0  14  11   48.11  199.63
   0  14  11   30.66  101.42
  -1 -14 -11  -74.45  127.67
  -1 -14 -11  -77.30  119.37
   1  14  11    5.31  193.46
   1  14  11 -180.39  102.19
  -2 -14 -11   84.60  125.57
   2  14 -11  199.13  140.12
   2  14  11 -122.05  109.83
   2  14  11 -366.20  195.13
  -3 -14 -11  342.04  162.64
  -3 -14 -11   62.25  112.47
   3  14  11 -129.90  194.21
   3  14  11   34.77  118.28
  -4 -14 -11  127.45  168.98
  -4 -14 -11  -24.21  112.80
   4  14  11   -5.58  185.73
   4  14  11 -221.08  126.85
  -5 -14 -11 -148.81  109.17
  -5 -14 -11  -68.05  172.28
   5  14  11  217.55  193.36
   5  14  11  151.01  130.08
  -6 -14 -11  -34.60  117.21
  -6 -14 -11  -48.03  192.93
   6  14  11 -144.93  191.79
   6  14  11  339.19  141.37
  -7 -14 -11  166.26  195.72
  -7 -14 -11   -8.76  110.76
   7  14  11 -135.85  144.81
  -8 -14 -11  153.43  204.71
   8  14  11  184.23  157.14
   4 -15 -11 -227.98  128.74
  -4  15  11    5.93  198.55
   3 -15 -11   86.80  128.88
  -3  15  11 -335.97  201.75
  -3  15  11   25.28  102.76
   2 -15 -11   64.79  126.40
  -2  15  11 -184.91  202.76
  -2  15  11    4.95  102.23
   1 -15 -11  167.43  121.99
  -1  15  11  -86.22  101.77
  -1  15  11 -175.12  204.48
   1 -15  11  -11.79  144.24
   1 -15  11 -115.90   92.65
   0  15 -11   16.74  126.10
   0 -15 -11   -8.67  129.30
   0 -15 -11  -43.64  136.52
   0  15 -11   78.13  152.43
   0 -15  11  -28.36   92.21
   0  15  11   46.28  204.83
   0 -15  11   26.66  165.70
   0  15  11 -117.31  111.23
   1  15 -11  -25.11  148.00
  -1 -15 -11  252.55  145.04
  -1 -15 -11  -94.78  137.17
   1  15  11  282.23  117.30
  -1 -15  11   29.46  177.06
  -2 -15 -11  103.96  129.16
  -2 -15 -11  373.16  158.74
   2  15 -11  -48.80  166.70
   2  15  11   -5.28  121.18
   2  15  11 -178.85  210.63
  -3 -15 -11  130.62  131.15
  -3 -15 -11  -22.07  174.24
   3  15  11    5.75  197.03
   3  15  11 -115.64  129.69
  -4 -15 -11  -18.12  136.75
  -4 -15 -11  -15.61  180.30
   4  15  11  209.32  207.79
   4  15  11  -64.00  133.40
  -5 -15 -11  166.46  195.21
  -5 -15 -11  -83.07  133.78
   5  15  11  368.22  218.64
   5  15  11   73.25  146.36
  -6 -15 -11  323.24  209.07
  -6 -15 -11 -144.31  137.23
   6  15  11   52.96  202.22
   6  15  11  -89.90  153.44
  -7 -15 -11   38.72  123.85
  -7 -15 -11  199.28  213.26
   7  15  11 -207.52  154.71
  -8 -15 -11   -9.30  216.69
   8  15  11    6.88  155.82
   4 -16 -11 -145.84  138.18
  -4  16  11    6.45  222.16
   3 -16 -11 -194.16  145.58
  -3  16  11   11.14  114.42
  -3  16  11  101.69  220.81
   2 -16 -11   72.97  144.29
  -2  16  11   49.47  117.52
  -2  16  11    6.35  215.66
   1 -16 -11 -463.08  143.54
  -1  16  11   -5.34  112.46
  -1  16  11    6.33  220.59
   0 -16 -11 -105.50  143.59
   0  16 -11 -517.82  144.12
   0 -16 -11   21.14  156.61
   0 -16  11   -7.70  101.89
   0  16  11 -288.17  220.08
   0  16  11    5.47  120.97
   0 -16  11  -14.45  172.84
  -1 -16 -11   76.84  148.21
   1  16 -11  -88.41  157.06
  -1 -16 -11 -131.54  156.91
   1  16  11    6.28  214.38
   1  16  11  190.79  124.53
  -1 -16  11  -32.03  189.81
  -2 -16 -11   67.77  136.61
   2  16 -11   15.01  168.50
  -2 -16 -11  -84.93  167.28
   2  16  11  100.09  125.98
   2  16  11  130.59  214.80
  -3 -16 -11  -40.95  183.59
  -3 -16 -11  217.57  153.99
   3  16  11  -44.76  215.97
   3  16  11   36.75  137.30
  -4 -16 -11  -30.73  144.51
  -4 -16 -11  311.32  194.68
   4  16  11  -81.41  222.86
   4  16  11 -364.33  150.85
  -5 -16 -11  -72.08  139.93
  -5 -16 -11  245.12  213.21
   5  16  11  -99.97  151.94
   5  16  11  -92.30  230.55
  -6 -16 -11  -10.71  147.22
  -6 -16 -11  418.43  227.35
   6  16  11  442.20  228.06
   6  16  11  -90.32  166.24
  -7 -16 -11  -42.87  137.07
  -7 -16 -11  -59.35  244.39
   7  16  11  382.12  168.77
  -8 -16 -11  691.32  595.40
   8  16  11 3188.71  532.11
   4 -17 -11  308.37  164.54
  -4  17  11    7.08  238.37
   3 -17 -11    8.38  157.15
  -3  17  11   -6.18  118.40
  -3  17  11   20.94  235.46
   2 -17 -11  115.05  165.02
  -2  17  11   13.81  236.05
  -2  17  11 -116.48  129.15
   1 -17 -11   10.73  161.06
   1 -17 -11    7.94  161.78
  -1  17  11  225.39  231.64
  -1  17  11   12.17  131.43
   0 -17 -11   85.49  183.76
   0 -17 -11  175.21  175.23
   0  17  11   30.47  133.94
   0 -17  11   -7.87  191.23
   0 -17  11  226.06  118.97
   0  17  11  264.84  244.35
   1  17 -11 -117.60  164.77
  -1 -17 -11  213.90  173.97
  -1 -17 -11  395.73  176.09
  -1 -17  11   43.30  215.54
   1  17  11  149.50  236.01
   1  17  11  -75.80  139.14
  -2 -17 -11  174.13  172.92
  -2 -17 -11  181.00  206.03
   2  17  11  340.93  238.87
   2  17  11  202.95  155.52
  -3 -17 -11 -282.01  214.16
  -3 -17 -11   22.24  163.41
   3  17  11  121.85  152.85
   3  17  11   -7.09  239.07
  -4 -17 -11   66.60  210.85
  -4 -17 -11 -114.10  157.30
   4  17  11 -316.21  158.77
   4  17  11    7.51  239.21
  -5 -17 -11 -239.51  241.46
  -5 -17 -11  -70.07  177.43
   5  17  11 -641.69  181.26
  -6 -17 -11  280.20  263.39
  -6 -17 -11  -11.94  158.05
  -7 -17 -11 -225.31  265.42
  -7 -17 -11   95.20  151.61
   7  17  11  164.33  177.35
  -8 -17 -11 -110.22  267.43
   8  17  11  267.02  189.79
   4 -18 -11  249.54  191.93
  -4  18  11  170.87  273.01
   3 -18 -11 -197.97  192.67
  -3  18  11   -7.67  260.20
  -3  18  11 -103.19  139.54
   2 -18 -11  155.56  199.33
   2 -18 -11 -492.99  207.54
   1 -18 -11  -11.87  198.11
   1 -18 -11 -512.57  207.33
   0 -18 -11  -36.01  214.07
   0 -18 -11 -178.30  192.70
   0  18  11 -728.74  175.97
  -1 -18 -11 -227.98  185.16
   1  18 -11  -47.31  185.81
  -1 -18 -11 -861.52  219.59
  -1 -18  11   18.66  222.19
  -2 -18 -11 -302.60  198.00
  -2 -18 -11   28.77  227.62
   2  18  11 -541.06  180.11
  -3 -18 -11  443.79  229.75
  -3 -18 -11   88.16  183.92
   3  18  11    7.87  259.41
   3  18  11  406.60  178.65
  -4 -18 -11  280.11  182.80
  -4 -18 -11  136.42  252.64
   4  18  11 -445.17  282.57
   4  18  11  300.88  180.32
  -5 -18 -11 -157.19  181.96
  -5 -18 -11  250.29  243.31
   5  18  11   25.71  279.09
   5  18  11   71.62  183.17
  -6 -18 -11  101.20  253.97
  -6 -18 -11  -13.33  180.91
   6  18  11   34.83  269.34
   6  18  11   -8.18  185.88
  -7 -18 -11  371.87  280.29
  -7 -18 -11   13.24  181.76
   7  18  11  455.23  208.31
   3 -19 -11 -521.88  215.50
  -3  19  11  138.84  158.91
   2 -19 -11   52.80  196.88
   2 -19 -11 -484.34  217.99
  -2  19  11 -223.26  159.89
  -2  19  11  212.27  257.97
   1 -19 -11   13.21  209.74
   1 -19 -11  -10.32  214.20
  -1  19  11 -321.41  281.80
  -1  19  11 -205.47  164.27
   0 -19 -11  198.55  206.19
   0 -19 -11 -295.35  218.00
   0  19  11 -503.47  279.86
   0  19  11  325.89  167.48
  -1 -19 -11  188.91  216.66
  -1 -19 -11   72.88  224.68
   1  19  11   23.40  171.87
  -1 -19  11   10.09  246.32
   1  19  11   -7.92  260.53
  -2 -19 -11  -13.74  204.54
  -2 -19 -11   42.84  239.12
   2  19  11    8.20  281.56
   2  19  11  112.87  179.27
  -3 -19 -11 -166.81  243.23
  -3 -19 -11 -606.86  205.09
   3  19  11  149.90  183.29
   3  19  11  398.04  283.07
  -4 -19 -11   14.35  210.61
  -4 -19 -11 -415.60  276.48
   4  19  11   85.02  190.11
   4  19  11   -9.10  243.10
  -5 -19 -11 -689.90  293.19
   0   0  12 3568.97  952.38
   0   1 -12  -17.14   26.23
   0   1 -12   -7.55   47.76
   0  -1 -12    8.08   26.96
  -1   0 -12   -1.61   20.21
  -1   0 -12   -8.78   43.66
   0  -1  12  -39.85   60.23
   1   0  12   26.40   50.17
  -1   1 -12  712.72  246.38
  -1  -1 -12  945.92  222.71
   1  -1  12  895.34  252.66
   1   1  12 1063.34  264.86
  -2  -1 -12   -1.86   34.69
  -2  -1 -12   -6.48   16.19
  -1   2 -12    5.27   23.64
  -1   2 -12  -52.11   47.58
   2   1  12   23.15   33.73
   1  -2  12   23.43   53.88
   2   1  12  144.41   42.49
   0   2 -12  239.21   69.40
   0   2 -12  284.64   86.86
  -2   0 -12  267.98   67.00
  -2   0 -12  294.42   83.58
   0  -2  12  220.09   96.33
   2   0  12  357.31   85.57
   2   0  12  156.99   82.84
  -2   1 -12  -14.10   44.21
  -2   1 -12   -2.94   20.26
   1   2  12   -4.06   37.88
   2  -1  12   29.18   44.18
  -2   2 -12  269.88   55.38
  -2  -2 -12  214.14   62.07
  -2   2 -12  170.19   73.60
   2  -2  12  215.32   73.85
   2   2  12  217.76   77.04
  -3  -2 -12   42.78   21.54
  -2   3 -12   -7.68   17.51
  -2   3 -12   28.61   47.22
  -3  -2 -12   -3.49   16.55
  -3  -2 -12    8.84   19.37
   3   2  12   24.27   24.87
   2  -3  12   59.03   50.28
   3   2  12   65.39   43.03
  -1   3 -12   46.87   49.40
  -3  -1 -12  -10.38   40.56
  -3  -1 -12   36.50   17.72
  -3  -1 -12   48.00   17.72
  -3  -1 -12   32.08   18.95
   1  -3  12   14.77   56.05
   3   1  12   18.66   29.24
   3   1  12   40.39   38.45
  -3   0 -12  -41.45   39.85
  -3   0 -12   23.93   18.39
   0   3 -12   40.87   49.02
   0   3  12   49.28   38.02
   0  -3  12  -48.98   66.22
   3   0  12  -17.62   37.82
  -3   1 -12   63.89   21.40
  -1  -3 -12  109.91   44.17
  -3   1 -12   32.04   42.25
   1   3  12   77.88   48.50
   3  -1  12   51.28   41.06
   1   3  12   57.66   55.01
  -3   2 -12    9.06   22.14
  -2  -3 -12   12.21   42.31
  -2  -3 -12   14.66   27.50
  -3   2 -12  -29.66   48.27
   3  -2  12   19.81   40.50
   2   3  12  190.96   47.92
   2   3  12   78.03   57.09
   2   3  12  103.33   32.44
  -3   3 -12  404.01  127.05
  -3  -3 -12  455.04  117.35
  -3  -3 -12  478.34  112.54
   3   3  12  420.32  116.89
   3  -3  12  534.36  129.02
   3   3  12  479.75  136.60
  -2   4 -12  -32.35   51.13
  -4  -2 -12   -9.69   20.42
  -4  -2 -12  -30.66   30.00
  -4  -2 -12  -76.51   26.59
  -4  -2 -12  -41.41   44.00
  -2   4 -12   -6.58   25.39
  -2   4 -12  -13.72   23.23
   4   2  12  -12.28   19.80
   4   2  12  -89.92   51.33
   4   2  12  -81.39   25.15
   2  -4  12  -13.02   53.07
   4   2  12 -107.69   40.69
  -1   4 -12   20.87   25.27
  -1   4 -12   12.92   52.60
  -4  -1 -12   25.40   19.60
  -4  -1 -12   20.78   38.80
  -4  -1 -12   40.84   16.59
   4   1  12    6.80   34.74
   4   1  12   -0.98   16.57
   4   1  12    4.41   19.25
   1  -4  12   80.80   62.81
   0   4 -12   39.98   58.47
  -4   0 -12   21.76   38.54
   0  -4 -12   10.19   23.34
   0   4 -12   36.13   29.24
  -4   0 -12    8.76   21.05
   4   0  12   34.59   37.20
   4   0  12   11.16   20.40
   0  -4  12   12.90   72.74
  -4   1 -12   29.46   20.68
  -1  -4 -12   -3.63   17.97
  -4   1 -12   32.32   44.93
   4  -1  12  -19.88   37.73
   4  -1  12   -5.23   22.82
  -2  -4 -12  -67.07   45.27
  -2  -4 -12  -31.92   20.24
  -4   2 -12  -49.92   46.41
  -2  -4 -12  -98.47   33.48
  -4   2 -12  -14.42   21.33
   4  -2  12  -37.38   45.88
   2   4  12  -87.58   52.68
   4  -2  12   -1.89   24.68
  -4  -4 -12  388.64  115.16
  -4   4 -12  412.62  120.38
  -4   4 -12  325.53  101.77
   4  -4  12  351.74  122.56
   4  -4  12  532.18  103.86
   4   4  12  577.90  111.38
  -4   5 -12  249.87   82.14
  -4   5 -12  390.08  101.26
  -5  -4 -12  356.36  100.58
  -5  -4 -12  373.82   94.54
   4  -5  12  269.93  104.76
   4  -5  12  398.48   84.63
   5   4  12  344.24   84.05
  -3   5 -12   71.66   28.71
  -5  -3 -12   58.10   30.80
  -3   5 -12   46.40   57.82
  -3   5 -12   88.70   52.57
  -3   5 -12   75.43   30.75
  -5  -3 -12   67.80   42.98
   5   3  12   80.72   24.77
   3  -5  12   36.18   36.11
   3  -5  12   28.98   55.04
   5   3  12  160.90   41.66
   3  -5  12   40.72   32.07
  -5  -2 -12 1531.97  436.98
  -2   5 -12 1489.45  425.35
  -2   5 -12 1698.57  389.06
  -2   5 -12 1522.08  370.93
  -5  -2 -12 1722.09  404.11
   5   2  12 1686.71  380.16
   2  -5  12 1513.01  443.71
  -1   5 -12   21.81   40.44
  -5  -1 -12   17.67   24.03
  -1   5 -12   19.10   59.32
  -1   5 -12   31.37   27.16
  -5  -1 -12  -19.33   43.50
   5   1  12   27.89   22.66
   5   1  12  -37.09   24.43
   1  -5  12   11.12   69.87
  -1   5  12    7.53   60.97
   0   5 -12  126.19   72.03
   0   5 -12   34.74   38.01
  -5   0 -12   44.93   34.65
   0  -5 -12   93.45   38.24
  -5   0 -12   58.88   51.00
   0  -5 -12  266.61   56.61
   5   0  12  158.32   28.88
   0  -5  12   85.55   85.83
   5   0  12   33.27   33.92
  -1  -5 -12  -13.62   19.11
  -5   1 -12   -7.29   24.30
  -5   1 -12   29.01   44.65
  -1  -5 -12  -80.37   42.15
   1   5  12 -191.77   51.75
   5  -1  12   22.32   23.82
   1   5  12 -114.92   89.54
  -5   2 -12 1933.13  455.51
  -5   2 -12 1757.43  419.07
  -2  -5 -12 2123.13  480.36
  -2  -5 -12 1719.25  442.51
  -2  -5 -12 1825.97  435.94
   2   5  12 1927.36  504.43
   2   5  12 1825.46  513.41
   2   5  12 2122.30  427.57
   5  -2  12 1685.17  415.42
  -3  -5 -12   84.61   43.62
  -3  -5 -12   24.59   36.57
  -5   3 -12   34.76   49.78
  -3  -5 -12   41.83   22.77
  -5   3 -12   46.85   28.11
   3   5  12   86.63   43.36
   3   5  12  221.29   38.87
   3   5  12   35.30   72.64
   3   5  12   62.80   20.79
   5  -3  12   29.67   28.46
   5  -3  12   82.61   50.64
  -5   4 -12  378.61  107.58
  -4  -5 -12  362.06  107.12
  -4  -5 -12  390.72   97.54
  -4  -5 -12  492.09  108.95
   4   5  12  446.66  120.13
   5  -4  12  326.96  112.24
   4   5  12  442.56  106.07
  -5   5 -12  268.06   75.98
  -5  -5 -12  262.73   86.80
  -5  -5 -12  371.12   84.91
  -5   5 -12  289.89   95.93
   5   5  12  472.01   91.26
   5   5  12  270.57   75.30
   5  -5  12  416.86   76.45
   5   5  12  315.42  110.39
   5  -5  12  193.32   96.53
  -5   6 -12   29.97   38.02
  -5   6 -12   83.29   63.77
  -6  -5 -12  118.47   49.32
   5  -6  12   88.50   63.65
   6   5  12  123.19   60.14
   5  -6  12  147.74   39.57
  -4   6 -12  318.48  123.43
  -6  -4 -12  460.44  123.07
  -4   6 -12  433.69  103.64
   4  -6  12  347.58  127.77
   6   4  12  477.93  108.04
   4  -6  12  506.21  105.76
  -6  -3 -12 1478.77  351.45
  -3   6 -12 1568.85  305.71
  -6  -3 -12 1271.66  351.12
  -3   6 -12 1314.26  338.15
  -3   6 -12 1232.67  419.19
   6   3  12 1563.01  319.93
   3  -6  12 1509.68  363.48
   3  -6  12 1155.02  355.66
   3  -6  12 1218.60  336.03
  -2   6 -12  493.89  105.89
  -2   6 -12  302.41   81.52
  -6  -2 -12  335.06   92.04
  -6  -2 -12  363.56   98.04
  -2   6 -12  316.36   87.48
   2  -6  12  230.28  112.18
   6   2  12  349.73   83.44
   6   2  12  378.27   97.39
  -1   6 -12  349.86   64.64
  -6  -1 -12  227.27   76.50
  -6  -1 -12  200.33   68.23
  -1   6 -12  233.27   75.71
  -1   6 -12  152.79   86.89
   6   1  12  293.40   64.05
  -1   6  12  338.16   99.45
   1  -6  12  369.44  101.73
   0   6 -12 2964.71  679.47
   0  -6 -12 3027.43  719.41
  -6   0 -12 2436.18  650.46
  -6   0 -12 2440.09  619.65
   0  -6 -12 2345.73  651.65
   6   0  12 2716.38  600.27
   0   6  12 3084.92  726.44
   0   6  12 2804.75  624.49
  -6   1 -12  154.10   62.58
  -1  -6 -12  231.14   62.21
  -6   1 -12  271.92   73.57
  -1  -6 -12  307.63   70.54
   1   6  12  254.66  107.09
   1   6  12  256.64   69.43
   6  -1  12  192.88   59.56
  -2  -6 -12  394.65   87.57
  -2  -6 -12  348.14   94.10
  -6   2 -12  418.49   87.26
  -6   2 -12  284.60  100.51
   6  -2  12  377.93   85.20
   2   6  12  405.32  129.72
   2   6  12  412.12   92.15
   2   6  12  256.87   80.61
  -3  -6 -12 1495.62  351.13
  -3  -6 -12 1443.75  387.95
  -3  -6 -12 1591.69  341.67
  -6   3 -12 1371.25  329.57
  -3  -6 -12 1316.00  362.98
   6  -3  12 1710.00  328.15
   3   6  12 1478.32  336.81
   3   6  12 1600.10  387.64
  -6   4 -12  459.67  127.44
  -4  -6 -12  453.88  132.06
  -4  -6 -12  413.96  116.17
  -4  -6 -12  418.88  130.00
   4   6  12  582.47  123.65
   4   6  12  522.51  143.05
  -6   5 -12   91.00   38.14
  -5  -6 -12   82.61   49.70
  -5  -6 -12  153.17   70.30
  -6   5 -12   38.22   58.23
   5   6  12   28.61   61.09
   5   6  12  139.57   87.93
   6  -5  12   59.72   39.59
  -6   6 -12  213.56   82.37
  -6   6 -12  210.34   56.58
  -6  -6 -12  145.19   68.89
   6  -6  12  133.76   81.86
   6  -6  12  232.55   58.82
   6   6  12  200.59   82.14
  -6   7 -12   40.87   75.02
  -6   7 -12   25.28   40.78
   6  -7  12  104.71   68.96
   6  -7  12  100.34   40.57
   7   6  12  -65.99   70.84
  -5   7 -12  402.55   91.19
  -7  -5 -12  244.57  104.72
  -5   7 -12  340.92  111.24
   5  -7  12  514.97   93.38
   5  -7  12  320.44  116.85
   7   5  12  409.16  112.60
  -4   7 -12   74.93   39.18
  -7  -4 -12  121.81   49.58
  -4   7 -12  101.38   65.45
   4  -7  12   71.14   68.32
   4  -7  12   23.77   40.72
  -7  -3 -12  460.11  120.24
  -3   7 -12  538.88  103.36
  -3   7 -12  235.44  122.42
   3  -7  12  417.02  133.95
  -7  -2 -12  444.83   91.92
  -2   7 -12  336.06  101.63
  -2   7 -12  252.78   77.55
   2  -7  12  294.92  113.15
   2  -7  12   -2.85   96.94
   7   2  12  394.77   80.61
  -1   7 -12  431.29  122.15
  -1   7 -12  537.41  109.00
   1  -7 -12  329.18  127.43
  -7  -1 -12  546.19  121.79
  -1   7 -12  455.68  137.60
  -7  -1 -12  412.07  122.81
  -1   7  12  424.43  149.08
   1  -7  12  571.03  155.40
   7   1  12  440.11  111.81
  -1   7  12  606.05  123.04
  -7   0 -12  -20.19   45.05
   0   7 -12  -15.74   58.13
   0   7 -12  -21.61   33.41
  -7   0 -12  -38.64   36.56
   0  -7 -12   25.07   45.92
   0   7 -12   30.20   72.65
   0  -7  12  -15.73   92.11
   7   0  12   13.81   27.06
   0   7  12   -5.11   82.66
   0   7  12   -6.76   49.64
  -1  -7 -12  403.61  111.61
  -7   1 -12  328.74  114.01
  -7   1 -12  547.95  108.06
   1   7  12  359.28  107.12
   1   7  12  420.02  153.71
   7  -1  12  329.21  101.41
  -2  -7 -12  323.86  100.53
  -7   2 -12  395.53   94.11
  -7   2 -12  420.52  101.59
   2   7  12  447.74  138.19
   2   7  12  298.26   96.77
   7  -2  12  437.11   89.83
  -7   3 -12  405.89  109.61
  -7   3 -12  371.22  122.38
  -3  -7 -12  618.66  118.53
  -3  -7 -12  469.34  123.77
   3   7  12  539.01  116.00
   7  -3  12  307.91  106.24
   3   7  12  398.70  152.25
  -4  -7 -12   98.04   68.52
  -4  -7 -12  128.40   54.83
  -7   4 -12   88.74   63.87
   4   7  12   74.37   91.61
   4   7  12   60.53   60.72
  -7   5 -12  225.88   85.71
  -5  -7 -12  266.06  116.64
  -7   5 -12  407.67  105.00
  -5  -7 -12  222.98   93.62
   7  -5  12  444.09   85.63
   5   7  12  371.73  106.99
   5   7  12  280.87  130.25
  -7   6 -12    2.87   72.60
  -7   6 -12  -39.89   42.97
  -6  -7 -12   96.06   57.21
   6   7  12   97.05   99.54
   7  -6  12   26.86   36.99
   6   7  12   25.89   73.05
  -7   7 -12  -38.66   51.86
  -7   7 -12 -125.75   81.46
   7  -7  12  -38.06   45.37
   7   7  12   -9.27   76.95
  -7   8 -12   39.63   78.36
  -7   8 -12   23.74   45.14
   7  -8  12    6.06   81.15
   7  -8  12   43.84   44.47
   8   7  12  -23.09   83.41
  -6   8 -12   23.72   44.78
  -6   8 -12  -31.14   82.89
   6  -8  12   55.90   76.18
   6  -8  12   72.27   43.35
   8   6  12   64.25   72.67
  -8  -5 -12   40.28   49.00
  -5   8 -12   26.76   36.04
  -5   8 -12  -23.12   68.61
   5  -8  12  -52.17   72.78
   5  -8  12   35.56   39.97
  -8  -4 -12  749.60  227.70
  -4   8 -12  876.46  200.90
  -4   8 -12  746.20  224.64
   4  -8  12 1036.25  203.56
   4  -8  12  905.54  242.78
  -8  -3 -12  169.48   54.12
  -3   8 -12   68.45   68.28
  -3   8 -12   56.27   37.60
   3  -8  12   60.77   57.29
   3  -8  12   70.00   75.28
  -2   8 -12  409.41  131.16
  -2   8 -12  453.05  157.23
  -8  -2 -12  503.39  120.24
  -2   8 -12  459.55  104.17
  -2   8 -12  346.77  113.11
   2  -8  12  494.71  144.97
   2  -8  12  393.56  128.90
   2  -8  12  199.35  123.94
  -2   8  12  538.87  148.13
   1  -8 -12  127.16   74.20
  -1   8 -12  200.40   74.30
  -8  -1 -12  187.67   67.30
  -1   8 -12  188.49   53.06
  -1   8 -12  145.92   85.02
  -1   8  12  192.70   69.75
  -1   8  12  225.82  103.32
   1  -8  12  144.21  102.29
   0  -8 -12  491.29  142.81
   0   8 -12  777.79  151.40
   0   8 -12  661.56  164.07
  -8   0 -12  400.85  142.15
   0   8 -12  433.86  128.11
   8   0  12  569.66  131.36
   0   8  12  600.19  134.31
   0  -8  12  547.89  195.52
   0   8  12  495.95  183.83
  -1  -8 -12  178.56   73.54
   1   8 -12  145.19   60.76
  -8   1 -12  227.01   66.29
  -8   1 -12  226.50   70.38
   1   8  12  153.19  118.12
   1   8  12  242.61   69.11
   8  -1  12  254.37   59.09
  -8   2 -12  510.12  125.59
  -2  -8 -12  411.73  126.05
  -8   2 -12  488.12  118.77
   2   8  12  374.98  117.87
   8  -2  12  594.63  112.48
   2   8  12  365.07  168.00
  -3  -8 -12  118.60   72.35
  -3  -8 -12  128.38   61.71
  -8   3 -12  252.71   67.44
  -8   3 -12  115.00   51.28
   8  -3  12   98.08   46.20
   3   8  12   93.04  109.10
   3   8  12  128.45   63.70
  -4  -8 -12  672.89  232.30
  -8   4 -12 1030.53  210.59
  -4  -8 -12  740.41  204.63
   4   8  12  761.96  213.97
   4   8  12  727.35  238.80
  -5  -8 -12   52.02   87.45
  -8   5 -12   42.80   64.48
  -5  -8 -12   46.08   59.17
  -8   5 -12   51.40   45.87
   5   8  12   37.79  110.62
   5   8  12  119.81   75.02
   8  -5  12   47.72   44.27
  -6  -8 -12   76.31   62.99
  -8   6 -12  -15.31   71.12
  -8   6 -12   32.05   44.23
   6   8  12   58.23   84.05
   6   8  12 -105.75  111.19
   8  -6  12   59.76   45.90
  -8   7 -12 -114.50   75.36
  -8   7 -12   11.15   48.58
   8  -7  12   10.54   46.27
   7   8  12   94.19   87.63
  -8   8 -12   34.82   84.33
  -8   8 -12  -42.84   54.05
   8   8  12   65.84   86.03
   8  -8  12    3.72   50.63
  -8   9 -12  -37.20   93.69
  -7   9 -12   50.08   52.35
  -7   9 -12   87.85   83.18
   7  -9  12    3.63   45.96
   7  -9  12    3.26   90.29
  -6   9 -12  166.13   51.76
  -6   9 -12  117.72   83.68
   6  -9  12   16.60   51.30
   6  -9  12  129.53   85.13
  -5   9 -12  403.52  112.51
  -5   9 -12  220.69   87.11
   5  -9  12  383.04   92.81
   5  -9  12  366.38  121.13
  -4   9 -12   58.02   73.42
  -4   9 -12   73.87   43.86
   4  -9  12   53.46   44.59
   4  -9  12  112.20   81.37
  -3   9 -12  482.39  179.43
  -3   9 -12  761.11  155.59
   3  -9  12  654.93  197.40
   2  -9 -12   29.41   64.47
  -2   9 -12   60.55   71.17
  -2   9 -12   47.89   86.35
  -2   9 -12    8.98   31.86
  -2   9 -12    2.20   53.02
   2  -9  12   -8.03   65.54
  -2   9  12   27.63   96.97
   2  -9  12  -14.57   50.48
   2  -9  12   82.75   90.65
  -1   9 -12  237.69  102.60
  -1   9 -12  254.57   66.11
   1  -9 -12  376.61   90.23
  -1   9 -12  264.73   89.36
  -1   9  12  208.00   80.47
   1  -9  12  181.27  122.36
   1  -9  12  188.82   85.03
  -1   9  12  310.88  125.88
   0   9 -12   41.50   77.04
   0  -9 -12   27.28   59.19
   0   9 -12  -17.69   36.74
   0   9 -12  -54.99   73.37
   0   9  12   36.54  108.58
   0  -9  12   13.82  105.37
   0   9  12  -62.07   56.23
   1   9 -12  213.70   71.95
  -1  -9 -12  156.60   84.39
   1   9 -12  309.13  102.56
   1   9  12  297.60  139.18
   1   9  12  265.89   79.36
  -2  -9 -12   56.36   68.93
  -2  -9 -12  -18.63   64.07
   2   9  12   43.05   59.71
   2   9  12  178.25  120.07
  -3  -9 -12  507.45  177.38
  -3  -9 -12  707.39  188.35
  -9   3 -12  640.18  173.36
   9  -3  12  607.50  160.40
   3   9  12  706.90  171.37
   3   9  12  866.35  218.57
  -9   4 -12  327.57   78.50
  -4  -9 -12   21.57   68.83
  -4  -9 -12  124.65   95.17
   4   9  12   70.15  122.08
   4   9  12  165.34   81.98
  -5  -9 -12  448.97  137.89
  -5  -9 -12  375.64  104.85
  -9   5 -12  181.16  108.32
   9  -5  12  434.29   90.59
   5   9  12  346.63  114.81
   5   9  12  267.05  150.02
  -6  -9 -12   41.73   66.80
  -9   6 -12   48.82   73.88
  -9   6 -12   32.41   50.83
   9  -6  12   21.83   44.67
   6   9  12   52.41  121.57
   6   9  12   32.41   86.47
  -9   7 -12    3.48   79.07
   7   9  12  194.24   96.64
   8   9  12   52.46   99.68
  -9   9 -12   -4.58   61.81
   9  -9  12  -55.72   60.92
  -9  10 -12    4.23  101.68
  -9  10 -12   19.21   64.62
   9 -10  12   81.85   60.98
  -7  10 -12  205.42   56.40
  -7  10 -12  -29.82   94.34
   7 -10  12   -3.85   45.82
   7 -10  12   24.28   99.46
  -6  10 -12  -17.19   85.03
  -6  10 -12   17.07   44.84
   6 -10  12   -6.45   93.93
   6 -10  12   -3.53   48.40
  -5  10 -12   62.65   49.19
  -5  10 -12  152.03   80.55
   5 -10  12  125.70   53.61
   5 -10  12  160.07   88.48
  -4  10 -12  350.47  105.29
  -4  10 -12  285.22   80.93
   4 -10  12  371.06  122.86
   4 -10  12  237.54   84.99
  -3  10 -12   66.68   73.96
  -3  10 -12   49.62   36.42
   3 -10  12    3.22   87.71
   3 -10  12   46.97   46.35
   2 -10 -12   -4.00   70.17
  -2  10 -12   45.14   71.98
  -2  10 -12   14.22   35.28
   2 -10  12   29.10  101.56
  -2  10  12  165.53   68.29
  -2  10  12  -55.84  117.34
   2 -10  12  -70.33   73.66
   2 -10  12  -20.14   55.99
  -1  10 -12   14.05   79.56
  -1  10 -12   -6.51  100.05
  -1  10 -12   38.54   37.09
  -1  10 -12    2.99   69.50
   1 -10 -12  -14.48   72.26
  -1  10  12 -192.99   68.07
  -1  10  12 -220.26  131.09
   1 -10  12    8.50  111.15
   1 -10  12   26.69   56.92
   0  10 -12   35.61   81.37
   0  10 -12  -49.25   42.29
   0 -10 -12 -104.49   71.74
   0 -10  12  -14.98  130.95
   0  10  12 -228.67  143.47
   0  10  12 -111.89   69.95
  -1 -10 -12  -10.13   73.55
   1  10 -12   79.18   91.02
   1  10 -12    8.94   45.54
   1  10  12 -214.87   71.76
  -2 -10 -12  182.59   76.92
  -2 -10 -12  -28.64   81.78
   2  10  12   72.00   69.51
   2  10  12  -15.01  133.61
  -3 -10 -12  -54.47   90.72
  -3 -10 -12   58.03   72.12
   3  10  12  -24.51   69.29
   3  10  12  -10.99  129.51
  -4 -10 -12  385.14  136.21
  -4 -10 -12  293.35  109.24
   4  10  12  412.68  152.35
   4  10  12  350.67  114.81
  -5 -10 -12  100.96  120.50
  -5 -10 -12   47.44   77.76
   5  10  12  118.85   96.01
   5  10  12  234.74  138.15
  -6 -10 -12  219.23  129.78
  -6 -10 -12    5.74   76.23
   6  10  12   40.00   96.13
   6  10  12   33.00  130.02
  -7 -10 -12   84.81   79.07
   7  10  12  136.75  109.84
   8  10  12 -340.64  136.38
 -10   9 -12   64.18   99.17
 -10  10 -12   95.57  113.31
 -10  11 -12    4.82  116.48
  -9  11 -12    4.53  110.09
   9 -11  12   14.43   59.15
  -8  11 -12  612.68  121.40
  -8  11 -12  -13.76   88.48
   8 -11  12  649.09  132.72
  -6  11 -12   39.06   90.17
  -6  11 -12   21.61   55.67
   6 -11  12   52.21  101.25
   6 -11  12   86.41   48.93
  -5  11 -12  110.62   54.67
  -5  11 -12   76.29   86.43
   5 -11  12  125.86   57.91
   5 -11  12   77.37   99.71
  -4  11 -12   35.47   44.17
  -4  11 -12   25.49   78.31
   4 -11  12   13.44  100.07
   4 -11  12   30.25   43.20
  -3  11 -12   89.32   43.01
  -3  11 -12  146.95   82.30
   3 -11  12  -14.23   94.05
   3 -11  12   19.62   52.36
  -2  11 -12   -2.49   37.29
  -2  11 -12    3.43   80.25
   2 -11 -12  -52.26   84.86
  -2  11  12   23.70  135.46
   2 -11  12   43.86  109.81
  -2  11  12 -134.14   70.60
  -1  11 -12  -26.52   76.50
  -1  11 -12  173.97  107.17
   1 -11 -12    4.01   80.59
  -1  11 -12   50.43   39.87
  -1  11 -12    7.41   82.49
  -1  11  12   74.72   71.93
   1 -11  12   31.76   94.04
  -1  11  12   64.56  137.03
   1 -11  12   27.81  118.43
   1 -11  12   58.53   65.32
   0  11 -12   27.55   88.34
   0 -11 -12    3.80   78.17
   0  11 -12   98.11   41.43
   0  11  12  -84.40   68.92
   0  11  12  -69.67  138.68
  -1 -11 -12   92.49   84.80
   1  11 -12  -21.07   47.42
   1  11 -12  -58.94  104.06
   1  11  12  126.14  154.22
   1  11  12   50.33   73.73
  -2 -11 -12  172.21   85.66
  -2 -11 -12   -4.11   88.85
   2  11  12  -13.06   77.24
   2  11  12  -82.66  149.94
  -3 -11 -12   27.47   80.58
  -3 -11 -12   57.90  100.74
   3  11  12   52.05   80.90
   3  11  12  -40.66  153.94
  -4 -11 -12  -28.24   83.58
  -4 -11 -12   88.51  116.01
   4  11  12   11.27   90.17
   4  11  12   72.49  138.68
  -5 -11 -12  193.81  134.18
  -5 -11 -12  147.88   93.96
   5  11  12  209.29  103.85
   5  11  12   30.45  153.98
  -6 -11 -12  119.60   86.56
  -6 -11 -12   -5.83  141.33
   6  11  12  -40.93  158.40
   6  11  12  199.91  109.71
  -7 -11 -12  243.97   91.78
   7  11  12  -51.40  121.79
 -10  12 -12  148.64  135.39
  -9  12 -12  180.80  119.54
   9 -12  12 -233.66   64.75
   9 -12  12  178.35  130.08
  -8  12 -12  -19.25   63.23
  -8  12 -12  -57.15  109.79
   8 -12  12  -42.74  125.75
   8 -12  12  -23.62   64.79
  -7  12 -12  -34.44   55.62
   7 -12  12  -48.05   57.73
  -5  12 -12  354.37  102.73
  -5  12 -12   85.42   65.02
   5 -12  12  203.88  123.79
   5 -12  12  121.51   65.81
  -4  12 -12   59.75   84.46
  -4  12 -12  111.52   49.11
   4 -12  12   85.89   53.91
   4 -12  12  -40.51  110.64
  -3  12 -12  -48.27   42.15
  -3  12 -12  -33.39   79.44
  -3  12  12   70.35  145.86
   3 -12  12   15.73  109.01
   3 -12  12    6.86   48.03
  -2  12 -12  -23.95   41.16
  -2  12 -12    3.57   82.63
   2 -12  12  -21.71  115.91
  -1  12 -12   31.10   87.32
  -1  12 -12   -5.28   42.14
  -1  12 -12  -22.31  118.89
  -1  12 -12   25.68   86.48
   1 -12  12   -5.32   73.78
   1 -12  12   61.87  107.75
   1 -12  12   81.27  134.77
   0  12 -12  117.64   52.97
   0  12 -12  258.20  109.18
  -1 -12 -12  114.11  100.51
   1  12 -12  -59.14  112.82
   1  12 -12   57.64   49.21
   1  12  12    3.53   79.68
  -2 -12 -12   98.37  109.54
   2  12  12 -222.42   87.81
  -3 -12 -12   85.84  114.49
   3  12  12  -97.67   94.24
  -7 -12 -12  -50.61   91.05
   8  12  12   32.05  125.65
 -10  13 -12  112.44  138.74
  10 -13  12    5.10  146.07
  -9  13 -12   29.71  127.24
   9 -13  12   -5.35   68.56
   9 -13  12    4.85  141.77
  -8  13 -12 -286.00  122.55
  -8  13 -12   -5.04   68.41
   8 -13  12  -49.89   70.23
   8 -13  12 -125.93  136.95
  -7  13 -12  -69.21   64.94
  -7  13 -12    4.09  102.73
   7 -13  12   -4.61   62.11
   7 -13  12  171.59  123.86
   6 -13  12   -8.46   53.61
   5 -13  12   11.81  110.05
   3 -13 -12  111.18  104.36
  -3  13  12   63.41  165.82
   2 -13 -12  -15.81  101.52
  -2  13  12  -43.68  168.41
  -2  13  12 -103.75   93.97
   1 -13 -12  -40.01  107.38
   1 -13  12   92.47   85.72
  -1  13  12   15.80   90.28
  -1  13  12  376.60  182.28
   1 -13  12   68.14  124.46
   0  13 -12  117.07  160.67
   0 -13 -12  523.93  160.99
   0  13  12  761.51  145.76
   0  13  12 1072.74  236.21
   0 -13  12  208.28  146.81
  -1 -13 -12   64.08  112.96
  -1 -13 -12  184.54  121.36
   1  13 -12  -86.10  130.05
   1  13  12  368.84  198.32
   1  13  12  162.76  103.65
  -2 -13 -12  204.06  115.63
  -2 -13 -12  100.76  163.66
  -3 -13 -12   14.11  103.29
  -3 -13 -12    5.71  148.64
   3  13  12    4.88  197.71
   3  13  12 -105.04  105.49
  -4 -13 -12   24.77  148.58
  -4 -13 -12  -21.67   97.75
   4  13  12  -93.54  108.35
   4  13  12  116.06  179.13
  -5 -13 -12  111.50  106.20
  -5 -13 -12  -53.37  156.20
   5  13  12   14.98  119.36
   5  13  12  133.39  181.81
  -6 -13 -12  371.43  171.66
  -6 -13 -12   93.23   96.78
   6  13  12  -90.27  129.97
   6  13  12 -187.69  181.85
  -7 -13 -12   31.89  101.25
  -7 -13 -12   74.77  167.94
   7  13  12 -204.49  168.82
   7  13  12  -84.00  135.14
  -8 -13 -12  169.50  175.79
   8  13  12  -75.14  140.40
   3 -14 -12  -85.86  113.68
  -3  14  12    4.71   88.75
  -3  14  12   -5.38  172.60
   2 -14 -12   35.23  110.37
  -2  14  12  143.77  184.13
  -2  14  12    4.54   94.18
   1 -14 -12   -5.62  109.54
  -1  14  12   52.60   96.23
  -1  14  12  -91.31  192.20
   0 -14 -12 -252.48  119.90
   0  14  12   -5.43  181.58
   0  14  12    4.34   96.47
  -1 -14 -12 -175.35  131.11
  -1 -14 -12   71.03  124.23
   1  14  12    4.49  102.04
   1  14  12  216.27  189.08
  -2 -14 -12   29.98  136.59
  -2 -14 -12   86.78  122.68
   2  14  12 -243.83  205.41
   2  14  12 -144.93  110.66
  -3 -14 -12   -7.98  118.15
  -3 -14 -12  -83.57  155.77
   3  14  12    5.35  185.26
   3  14  12  -87.96  115.14
  -4 -14 -12  -49.26  128.16
  -4 -14 -12  378.22  166.69
   4  14  12  336.00  191.70
   4  14  12 -377.96  124.14
  -5 -14 -12  134.52  129.77
  -5 -14 -12  362.36  182.74
   5  14  12  406.44  201.72
   5  14  12  -82.35  137.13
  -6 -14 -12  148.77  184.48
  -6 -14 -12  -34.61  126.95
   6  14  12 -156.73  137.74
   6  14  12  -79.00  195.44
  -7 -14 -12  -24.52  202.84
  -7 -14 -12   44.03  119.11
   7  14  12 -734.03  209.45
   7  14  12 -249.44  150.47
  -8 -14 -12  227.44  202.24
   8  14  12   62.69  149.62
   3 -15 -12  224.47  130.49
  -3  15  12  215.93  109.12
  -3  15  12   11.74  192.41
   2 -15 -12   26.25  127.92
  -2  15  12 -125.22  103.08
  -2  15  12 -228.23  205.89
   1 -15 -12  -82.25  126.42
  -1  15  12  -92.63  104.83
  -1  15  12  -82.59  204.72
   0 -15 -12  279.44  136.03
   0 -15 -12    8.86  132.88
   0 -15  12   49.82   94.99
   0  15  12   23.48  199.37
   0  15  12   33.95  100.71
   0 -15  12   -6.63  160.15
  -1 -15 -12  166.57  145.88
   1  15 -12  100.44  146.09
  -1 -15 -12   44.01  150.01
   1  15  12  135.42  212.79
   1  15  12  341.04  120.61
  -2 -15 -12    6.75  153.75
  -2 -15 -12  -79.28  137.93
   2  15  12   17.65  208.37
   2  15  12  459.42  127.35
  -3 -15 -12  -17.82  132.49
  -3 -15 -12  323.70  168.70
   3  15  12 -141.70  129.10
   3  15  12 -650.28  214.46
  -4 -15 -12  194.09  165.46
  -4 -15 -12  245.16  209.91
   4  15  12  928.02  246.00
   4  15  12  417.97  171.36
  -5 -15 -12  -56.76  185.82
  -5 -15 -12 -103.38  128.47
   5  15  12 -163.33  217.78
   5  15  12  251.96  141.73
  -6 -15 -12    8.55  198.91
  -6 -15 -12   77.89  131.95
   6  15  12   12.59  144.62
   6  15  12  260.27  213.66
  -7 -15 -12   98.42  208.49
  -7 -15 -12   -9.76  125.31
   7  15  12   -6.56  154.73
   7  15  12 -252.40  206.24
  -8 -15 -12   36.88  219.76
   8  15  12 -393.62  167.42
   3 -16 -12  220.30  141.28
  -3  16  12   62.22  113.83
  -3  16  12 -457.22  223.15
   2 -16 -12  -66.36  152.33
  -2  16  12 -422.32  119.14
  -2  16  12    6.42  215.91
   1 -16 -12  178.76  143.98
  -1  16  12    5.43  114.59
  -1  16  12  320.07  224.91
   0 -16 -12    9.77  160.35
   0 -16 -12  119.53  150.15
   0  16  12 -127.03  228.75
   0  16  12  157.25  117.67
  -1 -16 -12   19.61  160.80
   1  16 -12  -61.10  153.77
  -1 -16 -12  -57.92  157.73
  -1 -16  12    7.94  193.83
   1  16  12   25.50  223.08
   1  16  12  -67.19  119.62
  -2 -16 -12  138.51  154.63
  -2 -16 -12   -7.58  173.91
   2  16  12 -368.87  136.41
   2  16  12  113.77  218.31
  -3 -16 -12   16.08  181.29
  -3 -16 -12   20.21  140.93
   3  16  12 -247.85  136.99
   3  16  12 -154.43  218.42
  -4 -16 -12   41.48  152.67
  -4 -16 -12   84.69  188.54
   4  16  12 -534.57  228.80
   4  16  12  119.88  141.10
  -5 -16 -12  125.98  146.54
  -5 -16 -12  -62.66  209.47
   5  16  12 -150.66  235.65
   5  16  12 -296.49  153.95
  -6 -16 -12   21.73  149.52
  -6 -16 -12 -383.87  231.78
   6  16  12 -252.96  159.36
   6  16  12  271.11  229.28
  -7 -16 -12 -631.62  248.82
  -7 -16 -12 -140.82  158.52
   7  16  12 -464.43  247.71
  -8 -16 -12 -530.26  279.61
   8  16  12 -722.30  206.48
   3 -17 -12  408.22  163.68
  -3  17  12  256.57  130.80
  -3  17  12 -232.96  247.86
   2 -17 -12  132.79  161.51
  -2  17  12   12.36  123.18
  -2  17  12   -6.98  232.57
   1 -17 -12  420.31  166.74
   1 -17 -12  -10.90  163.14
  -1  17  12   72.77  132.52
  -1  17  12    6.92  241.61
   0 -17 -12  -65.15  182.61
   0 -17 -12  127.44  168.98
   0  17  12  586.00  252.96
   0  17  12   55.58  129.80
  -1 -17 -12  490.35  185.71
  -1 -17 -12   87.37  163.07
  -1 -17  12   51.46  206.71
   1  17  12  118.44  140.82
   1  17  12 -186.07  234.92
  -2 -17 -12  -77.95  175.17
  -2 -17 -12  398.36  192.98
   2  17  12   68.57  240.63
   2  17  12    6.51  143.03
  -3 -17 -12 -181.56  161.41
  -3 -17 -12  125.39  208.92
   3  17  12 -256.93  241.43
   3  17  12 -155.24  154.46
  -4 -17 -12  186.84  188.30
  -4 -17 -12 -262.51  240.35
   4  17  12 -576.13  172.70
  -5 -17 -12 1330.13  702.52
   5  17  12 3196.25  621.65
  -6 -17 -12  -30.50  240.98
  -6 -17 -12   60.65  155.28
   6  17  12 -168.46  251.86
   6  17  12  223.00  174.90
  -7 -17 -12   84.34  239.43
  -7 -17 -12   24.11  157.46
   7  17  12 -314.18  180.26
  -8 -17 -12   43.34  247.87
   8  17  12   63.24  183.35
   3 -18 -12   57.47  184.04
  -3  18  12   20.88  144.64
  -3  18  12  139.59  274.44
   2 -18 -12 -103.21  188.73
   2 -18 -12   48.64  180.25
  -2  18  12 -541.46  265.98
  -2  18  12 -117.78  144.16
   1 -18 -12 -180.48  183.09
   1 -18 -12 -879.96  208.28
  -1  18  12 -396.31  266.91
  -1  18  12   -6.77  147.49
   0 -18 -12  571.93  203.40
   0 -18 -12  217.68  196.52
   0  18  12 -298.95  272.16
   0  18  12   -6.90  148.58
  -1 -18 -12  -73.42  195.76
  -1 -18 -12 -248.61  202.84
   1  18  12 -168.99  159.72
   1  18  12 -306.17  266.32
  -2 -18 -12 -259.51  186.61
  -2 -18 -12  237.56  204.36
   2  18  12  316.61  162.23
   2  18  12    7.41  251.44
  -3 -18 -12 -119.00  225.62
  -3 -18 -12   64.19  174.71
   3  18  12 -328.49  174.32
   3  18  12 -592.40  266.47
  -4 -18 -12  -31.03  234.13
  -4 -18 -12  -52.05  169.91
   4  18  12  -41.70  279.09
   4  18  12  306.13  173.29
  -5 -18 -12 -128.61  251.04
  -5 -18 -12   66.59  192.73
   5  18  12 -362.28  188.04
   5  18  12  -51.76  274.87
  -6 -18 -12  149.10  193.54
  -6 -18 -12  122.48  266.49
   6  18  12   80.92  184.73
   6  18  12 -360.19  282.14
  -7 -18 -12  -57.36  297.83
  -7 -18 -12   93.96  167.24
   7  18  12  440.21  203.61
  -8 -18 -12 -365.57  279.95
   8  18  12  348.89  201.91
   2 -19 -12   31.93  211.27
  -2  19  12    7.76  159.87
   1 -19 -12   13.41  162.59
   1 -19 -12 -447.14  222.87
  -1  19  12 -538.95  168.41
   0 -19 -12  206.01  212.16
   0  19  12   -7.69  163.35
  -1 -19 -12  517.51  218.57
  -1 -19 -12   82.93  224.41
   1  19  12 -438.77  175.14
  -2 -19 -12 -202.14  238.15
   2  19  12  112.76  180.89
  -3 -19 -12   32.98  246.38
   3  19  12   -8.74  214.58
   3  19  12 -116.15  181.61
  -4 -19 -12  -45.69  251.31
   4  19  12 -227.45  191.42
   0   0 -13  -22.51   27.17
   0   0  13  -33.82   64.56
   0   1 -13  723.80  178.27
   0  -1 -13  629.34  183.68
  -1   0 -13  891.23  201.02
   0  -1  13  707.97  213.45
   1   0  13  911.84  209.66
  -1   1 -13    1.85   22.01
  -1  -1 -13   27.87   46.69
  -1  -1 -13  -17.02   22.06
  -1   1 -13   14.98   52.86
   1  -1  13   45.59   56.79
   1   1  13   -4.91   57.53
   1   1  13  -10.35   29.36
  -1   2 -13  116.95   37.53
  -2  -1 -13  112.13   35.72
  -1   2 -13   86.34   63.32
  -2  -1 -13  176.49   58.01
   2   1  13  133.66   50.86
   2   1  13  128.69   58.15
   1  -2  13  107.46   71.68
   0   2 -13   28.64   52.53
  -2   0 -13   49.83   46.00
  -2   0 -13   10.80   18.93
   0   2 -13   23.47   30.71
   0  -2 -13   10.57   27.48
   0  -2  13   48.39   73.14
   2   0  13    4.91   22.47
   2   0  13   -4.02   49.14
  -2   1 -13  107.33   56.80
  -2   1 -13  115.19   34.74
  -1  -2 -13  129.04   37.37
   1   2  13   -2.47   59.69
   1   2  13  168.29   54.67
   2  -1  13  113.01   58.95
  -2  -2 -13    4.07   19.54
  -2   2 -13    2.32   48.46
  -2  -2 -13   95.93   47.60
  -2   2 -13  -15.30   20.79
   2  -2  13   21.91   51.75
   2   2  13  138.70   48.84
   2   2  13    6.34   49.04
  -2   3 -13  -31.41   55.24
  -3  -2 -13  -81.10   55.16
  -3  -2 -13  -18.78   24.48
  -2   3 -13    2.51   18.48
  -3  -2 -13    2.55   20.10
   2  -3  13   -6.92   61.75
  -3  -1 -13    3.89   44.81
  -3  -1 -13   -6.89   16.71
  -3  -1 -13   24.58   14.43
  -1   3 -13    5.45   53.71
   3   1  13   -6.19   28.79
   1  -3  13   -5.48   66.93
   3   1  13  -27.92   41.51
  -3   0 -13   -1.47   22.55
   0   3 -13   11.89   59.72
  -3   0 -13   -8.08   45.61
   0  -3  13   36.80   75.28
   3   0  13    6.73   43.38
  -3   1 -13   -7.82   19.61
  -3   1 -13   67.14   45.88
   1   3  13  -15.98   49.64
   3  -1  13  -19.47   45.52
  -2  -3 -13   -1.25   19.20
  -2  -3 -13 -138.21   36.08
  -3   2 -13    6.60   24.82
  -3   2 -13  -48.15   57.18
   3  -2  13  -59.76   52.01
  -3  -3 -13 -129.21   37.59
  -3   3 -13  -27.84   26.03
  -3  -3 -13   -1.83   39.35
  -3   3 -13 -155.66   59.81
   3   3  13   88.64   44.43
   3  -3  13 -136.64   59.50
  -3   4 -13   72.06   70.96
  -3   4 -13  196.24   48.99
  -4  -3 -13  176.56   54.50
  -4  -3 -13  153.15   66.34
  -4  -3 -13  176.46   50.07
  -4  -3 -13  191.07   55.12
   4   3  13  229.90   64.03
   4   3  13  284.55   75.49
   4   3  13  131.73   46.17
   4   3  13  205.27   52.75
   3  -4  13  156.95   72.97
  -2   4 -13  232.49   66.46
  -2   4 -13  195.48   39.82
  -4  -2 -13  190.58   40.23
  -4  -2 -13  150.23   57.59
  -4  -2 -13  172.84   43.80
  -2   4 -13  163.05   40.54
   4   2  13  120.42   37.08
   2  -4  13  227.15   71.26
   4   2  13   90.93   53.50
   4   2  13  -54.92   67.48
  -1   4 -13   76.76   63.82
  -4  -1 -13  239.53   61.40
  -1   4 -13    2.06   33.00
  -4  -1 -13   26.93   30.24
   4   1  13  254.49   50.50
   4   1  13  111.39   31.93
   1  -4  13   92.33   73.74
   0   4 -13   26.77   39.23
  -4   0 -13  131.78   35.99
   0   4 -13   37.25   70.27
   0  -4  13   66.56   86.81
   4   0  13  162.11   36.52
  -4   1 -13   49.96   55.82
  -4   1 -13   44.27   27.59
   4  -1  13   21.13   31.11
   4  -1  13   28.37   49.15
  -4   2 -13  187.12   40.88
  -4   2 -13  168.89   63.09
   4  -2  13  149.33   43.25
   4  -2  13  132.54   59.27
  -3  -4 -13  212.02   57.31
  -4   3 -13  181.22   53.33
  -4   3 -13  213.26   71.38
   3   4  13  298.12   59.73
   4  -3  13  222.30   55.96
   4  -3  13  124.45   69.60
  -4   4 -13    2.39   51.56
  -4  -4 -13   -2.86   22.23
  -4  -4 -13  160.53   40.35
  -4  -4 -13   56.29   37.89
   4  -4  13  -34.64   51.23
   4   4  13  -21.63   18.99
   4   4  13    9.81   33.94
  -4   5 -13  313.23  187.20
  -5  -4 -13  679.52  187.66
  -5  -4 -13  951.12  202.70
  -4   5 -13  784.06  166.78
   4  -5  13  774.77  169.73
   5   4  13  800.77  201.16
   5   4  13  778.88  169.99
   4  -5  13  505.55  198.64
  -5  -3 -13 1738.23  422.49
  -5  -3 -13 1553.50  438.33
  -3   5 -13 1824.26  431.68
   3  -5  13 1462.81  448.88
   5   3  13 1843.54  463.33
   5   3  13 1734.93  393.44
  -2   5 -13  464.25  116.34
  -2   5 -13  308.11   92.49
  -2   5 -13  326.91   96.87
  -5  -2 -13  517.73   98.87
  -5  -2 -13  314.67  112.16
   5   2  13  427.06   92.75
   5   2  13  329.03  100.27
   5   2  13  455.13  112.39
   2  -5  13  507.36  124.79
  -5  -1 -13  446.08   98.36
  -5  -1 -13  418.19  112.93
  -1   5 -13  389.34  122.16
  -1   5 -13  437.16  107.40
  -1   5 -13  467.93   95.52
   5   1  13  385.55   95.50
   1  -5  13  394.74  132.15
   5   1  13  324.09  114.64
   0   5 -13 1586.63  303.04
  -5   0 -13 1210.07  345.41
  -5   0 -13 1463.21  314.96
   0   5 -13 1400.82  355.14
   0  -5  13 1188.00  386.93
   5   0  13 1129.54  356.27
   0   5  13 1441.53  385.60
   5   0  13 1217.98  306.45
  -1  -5 -13  406.32  106.35
  -5   1 -13  399.03   96.58
  -1  -5 -13  436.53  109.13
  -5   1 -13  396.89  113.82
   5  -1  13  349.59   95.35
   5  -1  13  349.77  114.67
   1   5  13  606.77  138.39
   1   5  13  363.51  106.31
  -5   2 -13  369.02   97.50
  -2  -5 -13  406.16  115.79
  -5   2 -13  388.78  114.14
  -2  -5 -13  337.08  100.43
  -2  -5 -13  444.47  103.53
   5  -2  13  453.04  115.38
   2   5  13  492.37  102.72
   5  -2  13  330.70   96.01
   2   5  13  618.86  127.73
   2   5  13  298.47  137.02
  -5   3 -13 1594.69  444.17
  -3  -5 -13 1702.51  427.43
  -3  -5 -13 1832.79  420.69
  -5   3 -13 1752.41  407.48
   3   5  13 1901.23  483.32
   5  -3  13 1925.88  466.53
   3   5  13 1660.69  485.00
   3   5  13 1940.58  416.51
  -5   4 -13  677.64  206.59
  -4  -5 -13  756.06  191.61
  -4  -5 -13  907.83  201.70
   4   5  13  749.31  194.82
   5  -4  13  963.84  216.70
   4   5  13  962.71  216.57
  -5  -5 -13   -5.03   43.94
  -5  -5 -13    2.13   54.60
  -5   5 -13   18.66   32.58
  -5  -5 -13   -3.06   40.19
  -5   5 -13   -7.84   60.13
  -5  -5 -13   -1.98   29.43
   5   5  13  -26.20   47.11
   5   5  13    8.86   76.52
   5   5  13  -12.52   38.99
   5   5  13  -10.43   20.20
   5  -5  13   58.68   34.96
   5  -5  13   -2.25   58.46
  -5   6 -13  311.50   94.34
  -6  -5 -13  311.85   84.57
  -5   6 -13  219.10   68.05
   6   5  13  231.50   88.76
   5  -6  13  226.91   95.15
   5  -6  13  237.02   69.62
  -6  -4 -13   59.01   35.91
  -6  -4 -13   30.54   47.16
  -4   6 -13   42.34   59.50
  -4   6 -13   36.73   31.93
   4  -6  13  101.60   64.47
   6   4  13   71.99   27.60
   4  -6  13   56.23   38.27
  -3   6 -13  225.85  115.42
  -6  -3 -13  390.85  106.28
  -6  -3 -13  455.53  113.91
  -3   6 -13  389.31   92.53
   6   3  13  383.71   95.64
   3  -6  13  383.84  122.80
  -6  -2 -13  221.19   74.61
  -2   6 -13  253.84   59.13
  -2   6 -13  122.83   82.22
  -6  -2 -13  253.71   64.76
   6   2  13  229.30   58.63
   2  -6  13  214.05   92.74
  -1   6 -13  860.03  221.38
  -1   6 -13 1013.49  242.34
  -1   6 -13 1190.29  201.54
  -6  -1 -13  917.71  232.59
  -1   6  13  594.36  258.40
   1  -6  13  703.67  258.71
   0  -6 -13   -2.50   42.16
  -6   0 -13   20.74   44.13
   0   6 -13    2.54   31.14
  -6   0 -13   -2.22   27.46
   0   6 -13   -3.42   68.74
   0  -6 -13    1.50   25.90
   6   0  13  -26.12   26.75
   0   6  13   13.64   48.22
   0   6  13   13.20   72.87
   0  -6  13   39.37   89.30
  -1  -6 -13  919.62  230.89
  -6   1 -13  939.52  235.08
  -1  -6 -13  952.08  240.87
   1   6  13 1004.88  278.36
   6  -1  13  917.80  213.08
   1   6  13  979.53  221.98
  -6   2 -13  319.55   63.94
  -2  -6 -13  255.32   71.69
  -2  -6 -13  226.89   61.11
  -6   2 -13  200.59   75.25
   2   6  13  146.68   69.63
   6  -2  13  270.82   62.61
   2   6  13  316.99  114.88
  -6   3 -13  309.69  101.94
  -3  -6 -13  488.60  111.31
  -6   3 -13  526.68  117.93
  -3  -6 -13  375.76  109.83
   6  -3  13  501.78  101.52
   3   6  13  289.26  141.09
   3   6  13  485.16  107.55
  -4  -6 -13   13.15   53.66
  -6   4 -13  107.99   61.95
  -4  -6 -13   65.56   44.46
   4   6  13   89.72   79.23
   4   6  13   45.37   50.08
  -6   5 -13  252.88   70.84
  -5  -6 -13  385.43   96.22
  -6   5 -13  220.33   89.85
  -5  -6 -13  266.60   79.05
   6  -5  13  309.75   95.61
   5   6  13  293.67   86.03
   6  -5  13  236.23   71.89
   5   6  13  213.79  108.75
  -6   6 -13  -19.22   40.54
  -6  -6 -13    3.93   50.14
  -6   6 -13  -11.58   71.83
   6  -6  13   20.50   70.44
   6  -6  13  -11.70   36.91
   6   6  13  208.53   63.37
  -6   7 -13  243.23   68.36
  -6   7 -13  315.75   94.29
   6  -7  13  141.32   99.84
   6  -7  13  242.92   71.57
   7   6  13  248.22   94.22
  -5   7 -13   62.41   40.48
  -5   7 -13   63.89   74.26
  -7  -5 -13   27.79   49.89
   5  -7  13   21.05   69.17
   5  -7  13   61.14   41.03
  -7  -4 -13 1030.93  304.64
  -4   7 -13 1187.26  292.87
  -4   7 -13 1241.07  264.93
   4  -7  13  912.31  311.74
   4  -7  13 1393.54  267.76
  -3   7 -13  522.90  109.12
  -7  -3 -13  421.42  127.45
  -3   7 -13  383.82  130.90
   7   3  13  460.43  112.49
   3  -7  13  506.86  141.27
  -7  -2 -13  416.04  105.04
  -2   7 -13  416.37  115.51
  -2   7 -13  306.03   87.92
  -7  -2 -13  338.10   99.78
   7   2  13  391.15   91.36
   2  -7  13  296.80  126.12
  -1   7 -13   58.19   73.75
  -7  -1 -13  121.13   58.90
   1  -7 -13  143.86   59.52
  -1   7 -13  129.83   44.13
  -7  -1 -13   76.98   47.58
  -1   7 -13  179.86   58.56
   7   1  13  102.94   39.33
  -1   7  13   89.29   94.06
   1  -7  13   56.72   94.96
   0   7 -13  859.53  216.34
   0   7 -13  868.85  247.73
   0   7 -13 1227.79  265.26
  -7   0 -13 1126.68  241.81
   0  -7 -13  884.84  243.66
   0   7  13  926.44  284.66
   0  -7  13  762.51  297.01
   7   0  13  982.76  222.10
   0   7  13  874.64  230.64
  -1  -7 -13  218.87   60.17
  -7   1 -13  188.87   49.77
  -7   1 -13  125.49   62.83
   1   7  13  130.66  102.70
   1   7  13  123.70   56.29
   7  -1  13  124.67   45.24
  -7   2 -13  415.68  107.73
  -2  -7 -13  358.50  102.67
  -7   2 -13  406.30   96.91
   7  -2  13  310.02   93.82
   2   7  13  417.38   99.69
   2   7  13  399.26  148.72
  -3  -7 -13  438.51  114.10
  -7   3 -13  497.20  106.87
  -7   3 -13  478.95  121.28
  -3  -7 -13  350.90  118.22
   7  -3  13  472.40  103.26
   3   7  13  219.78  110.91
   3   7  13  346.34  152.23
  -7   4 -13 1219.16  278.57
  -4  -7 -13  936.61  264.76
  -4  -7 -13 1036.60  287.69
   4   7  13 1020.03  271.00
   4   7  13 1100.33  300.23
  -7   5 -13   19.81   69.10
  -5  -7 -13   55.62   55.85
  -5  -7 -13  -39.25   73.38
  -7   5 -13   38.48   39.64
   5   7  13   63.89   98.10
   5   7  13   26.82   61.42
   7  -5  13   61.57   40.83
  -7   6 -13  260.48   69.02
  -6  -7 -13  159.00   79.01
  -7   6 -13  202.29   88.81
   7  -6  13  264.63   69.23
   6   7  13  224.43   94.10
   6   7  13  234.82  118.70
  -7   7 -13  -55.22   81.16
  -7   7 -13  -65.16   44.12
   7  -7  13    2.95   75.42
   7   7  13   54.61   80.77
   7  -7  13    3.31   43.51
  -7   8 -13   -6.86   44.82
  -7   8 -13   72.82   82.79
   7  -8  13    6.35   84.57
   7  -8  13  -35.23   45.92
  -6   8 -13  152.79   53.37
  -6   8 -13  135.24   87.17
   6  -8  13    2.96   90.43
   6  -8  13  162.72   56.29
  -8  -5 -13  311.22  107.06
  -5   8 -13  306.39  118.06
  -5   8 -13  356.94   93.98
   5  -8  13  386.64   96.89
   5  -8  13  505.59  127.35
  -4   8 -13    5.90   72.10
  -8  -4 -13   50.84   47.18
  -4   8 -13  -17.43   37.37
   4  -8  13   35.91   42.30
   4  -8  13  -39.07   75.01
  -3   8 -13  672.94  222.59
  -8  -3 -13  854.65  222.40
  -3   8 -13  705.80  190.98
   3  -8  13  846.37  242.73
  -8  -2 -13   87.41   53.21
  -2   8 -13   63.54   37.25
  -2   8 -13  126.59   71.81
  -2   8  13   79.80   95.95
   2  -8  13   89.00   86.16
  -1   8 -13  500.00  150.20
  -8  -1 -13  523.16  133.16
  -1   8 -13  465.69  116.33
   1  -8 -13  627.74  139.18
  -1   8 -13  595.31  133.33
  -1   8  13  354.05  164.66
   1  -8  13  447.22  171.02
   8   1  13  493.82  121.61
  -1   8  13  448.30  129.86
   0   8 -13    7.60   78.68
  -8   0 -13   19.62   41.26
   0   8 -13    5.29   37.41
   0   8 -13   -2.96   68.38
  -8   0 -13  -95.71   53.39
   0  -8 -13   -5.75   55.34
   0   8  13  -40.60   52.49
   8   0  13   26.62   33.34
   0  -8  13   45.37  103.16
   0   8  13  -35.98  106.36
  -8   1 -13  539.29  130.02
  -8   1 -13  467.40  125.12
  -1  -8 -13  482.71  128.12
   1   8  13  378.67  121.32
   8  -1  13  449.33  116.62
   1   8  13  476.76  176.51
  -8   2 -13   56.91   56.70
  -8   2 -13   52.59   45.43
  -2  -8 -13  104.70   59.09
   2   8  13   58.50   56.84
   2   8  13   24.73  114.53
   8  -2  13   54.25   38.57
  -3  -8 -13  849.57  238.78
  -8   3 -13  863.01  225.84
  -8   3 -13 1181.78  237.11
  -3  -8 -13  838.88  241.70
   3   8  13  992.13  227.75
   8  -3  13 1071.32  220.72
   3   8  13  952.23  278.73
  -4  -8 -13   15.40   72.10
  -4  -8 -13    7.64   56.95
  -8   4 -13  -59.18   57.31
   4   8  13    4.97   61.96
   4   8  13   30.96  101.39
  -5  -8 -13  246.29  100.89
  -8   5 -13  268.05   95.22
  -5  -8 -13  253.30  124.34
  -8   5 -13  462.92  110.01
   5   8  13  311.85  143.60
   5   8  13  203.03  112.70
   8  -5  13  487.86   92.43
  -6  -8 -13   79.90   68.37
  -6  -8 -13   98.34  104.18
  -8   6 -13  154.45   55.75
  -8   6 -13   50.92   84.76
   6   8  13   90.49   85.15
   8  -6  13  199.31   56.95
   6   8  13  220.67  115.20
  -8   7 -13  -88.34   81.53
  -8   7 -13   82.63   54.29
   8  -7  13  -87.35   51.37
   7   8  13   17.12   84.24
  -8   8 -13 -287.28  103.09
  -7   9 -13  211.93   60.22
  -7   9 -13    3.70   92.06
   7  -9  13  165.07   50.72
   7  -9  13    3.39  101.96
  -6   9 -13   39.62   48.18
  -6   9 -13  -89.78   85.75
   6  -9  13    9.53   89.43
   6  -9  13   38.81   47.11
  -5   9 -13   67.35   78.48
  -5   9 -13   37.70   42.49
   5  -9  13   33.58   87.43
   5  -9  13   46.52   50.00
  -4   9 -13  971.87  194.59
  -4   9 -13  775.06  172.49
   4  -9  13  653.72  174.69
   4  -9  13  741.34  210.05
  -3   9 -13   24.77   74.25
  -3   9 -13   -9.78   41.18
   3  -9  13   32.02   89.82
  -2   9 -13  519.63  100.64
  -2   9 -13  406.73  127.28
   2  -9  13  356.39  149.79
  -2   9  13  326.30  148.30
  -1   9 -13   68.94   40.00
  -1   9 -13   56.18   66.26
  -1   9 -13   81.90   81.08
   1  -9 -13   42.18   65.04
   1  -9  13   57.87  106.33
  -1   9  13  109.86   64.68
  -1   9  13  -67.49  114.28
  -9   0 -13  553.24  126.64
   0   9 -13  471.81  112.32
   0  -9 -13  399.57  128.21
   0   9 -13  405.21  137.52
   0   9  13  429.38  120.14
   0  -9  13  371.70  181.86
   0   9  13  457.39  177.54
  -9   1 -13   97.74   61.47
  -1  -9 -13   56.42   64.98
   1   9 -13   82.77   48.66
   1   9  13  110.58  124.84
   1   9  13   56.05   60.54
  -2  -9 -13  513.82  108.82
  -9   2 -13  233.63  104.08
   2   9  13  307.38  100.75
   9  -2  13  291.91   88.86
   2   9  13  125.23  165.53
  -9   3 -13   57.18   49.04
  -3  -9 -13  -25.95   74.50
  -3  -9 -13  -47.63   68.15
  -9   3 -13  -39.02   63.51
   3   9  13   50.35  131.15
   9  -3  13  -72.23   43.49
   3   9  13  -71.02   65.54
  -9   4 -13  953.60  174.88
  -4  -9 -13  544.37  192.04
  -4  -9 -13  664.67  173.46
   4   9  13  606.54  176.90
   4   9  13  577.41  206.42
  -9   5 -13  -12.00   53.34
  -5  -9 -13   -4.71   66.17
  -5  -9 -13  116.82   96.10
  -9   5 -13   12.63   75.79
   5   9  13   97.83  121.52
   9  -5  13   71.83   48.95
   5   9  13   94.99   79.33
  -9   6 -13   54.18   81.27
  -6  -9 -13  -26.84  104.95
  -6  -9 -13   46.52   70.55
   6   9  13  -14.01   87.52
   6   9  13  -74.06  127.46
  -7  -9 -13   11.05   69.42
   7   9  13   -7.59   94.44
  -9   8 -13   26.71   59.45
   8   9  13  -28.17   97.03
   9  -8  13    4.22   47.44
  -9   9 -13    4.66   66.14
  -9   9 -13  115.41   98.48
   9  -9  13    4.46   60.68
  -9  10 -13  119.97  107.10
  -9  10 -13 -108.50   62.79
   9 -10  13    4.72   61.52
  -8  10 -13  -13.35   62.64
   8 -10  13   -3.92   99.51
   8 -10  13   30.46   63.64
  -6  10 -13   87.06   65.21
  -6  10 -13  244.13  106.79
   6 -10  13  295.50   68.33
   6 -10  13   44.84  109.62
  -5  10 -13  193.50   64.99
  -5  10 -13  270.18   96.37
   5 -10  13  155.74   69.67
   5 -10  13  177.24  104.11
  -4  10 -13  108.97   49.31
  -4  10 -13  110.65   86.71
   4 -10  13  143.79   95.16
   4 -10  13  110.02   52.99
  -3  10 -13  296.75  124.51
  -3  10 -13  452.78   97.49
   3 -10  13  325.15  145.67
  -2  10 -13   20.26   38.38
  -2  10 -13  122.07   85.60
   2 -10 -13   99.09   77.49
  -2  10  13   46.12  116.45
   2 -10  13   23.39  102.50
  -1  10 -13   15.46   39.43
  -1  10 -13  -48.70   83.16
   1 -10 -13   15.24   71.38
  -1  10  13   18.38  119.85
  -1  10  13  -47.63   66.58
   1 -10  13   -4.54  120.17
   0 -10 -13  -66.03   71.62
   0  10 -13  -14.31   82.35
   0  10 -13   27.80   42.96
   0  10  13   52.55  137.34
   0  10  13  -94.25   67.72
   0 -10  13   15.85  133.92
  -1 -10 -13   -3.37   74.93
   1  10 -13   41.53   45.86
   1  10 -13   46.21   95.44
   1  10  13 -123.41  142.06
   1  10  13   -8.44   63.48
  -2 -10 -13   83.45   76.50
  -2 -10 -13    5.08   80.20
   2  10  13  153.68  143.97
   2  10  13   80.59   70.55
  -3 -10 -13  351.97  125.96
  -3 -10 -13  401.11  129.98
   3  10  13  259.15  170.13
   3  10  13  434.71  116.03
  -4 -10 -13   89.69   78.03
  -4 -10 -13   28.89   97.82
   4  10  13  147.66  135.05
   4  10  13  119.58   82.34
  -5 -10 -13   53.07   86.51
  -5 -10 -13  307.99  122.46
   5  10  13  269.38  142.73
   5  10  13  175.08   98.88
  -6 -10 -13  202.31  124.68
  -6 -10 -13  107.67   81.07
   6  10  13   15.61   97.78
   6  10  13  143.43  138.31
 -10   7 -13    3.84   90.65
  -7 -10 -13   95.79   77.68
   7  10  13 -121.19  103.59
 -10   8 -13 -263.72  108.92
   8  10  13 -190.55  118.08
  10  -8  13  -91.25   64.92
 -10   9 -13   35.21  107.63
 -10  10 -13   18.76  109.78
 -10  11 -13   95.60  127.01
  -9  11 -13    5.18   74.88
  -9  11 -13   14.17  115.44
   9 -11  13  -35.54  123.64
   9 -11  13  -79.70   66.05
  -8  11 -13   84.20   72.28
  -8  11 -13    4.41  108.27
   8 -11  13   21.08  122.76
   8 -11  13   96.98   65.18
  -7  11 -13  -24.85   57.81
   7 -11  13  -29.93   59.38
   6 -11  13   -3.72  108.26
  -5  11 -13   16.67   49.25
  -5  11 -13   28.17   89.32
   5 -11  13   34.12   53.22
   5 -11  13   40.05   97.69
  -4  11 -13   39.24   46.17
  -4  11 -13   30.61   81.99
   4 -11  13   14.16   50.66
   4 -11  13   11.01  102.82
  -3  11 -13  -30.74   42.43
  -3  11 -13   51.25   83.57
   3 -11  13   -3.90  103.32
   3 -11  13   31.42   51.75
   2 -11 -13  -67.42   86.30
  -2  11 -13   36.72   83.55
  -2  11 -13   53.28   43.56
   2 -11  13   38.39  118.94
  -2  11  13   32.82   74.88
   1 -11 -13   20.97   82.92
  -1  11 -13    8.09   42.17
  -1  11 -13   62.86   85.11
  -1  11  13   65.00   73.52
   1 -11  13   19.84  124.82
  -1  11  13   12.31  134.13
   0 -11 -13  -46.55   77.72
   0  11 -13  -27.74   92.20
   0  11 -13   62.56   46.24
   0  11  13  -41.65  146.59
   0  11  13   25.53   72.06
   1  11 -13   36.59  102.69
   1  11 -13  -35.54   51.47
  -1 -11 -13  -72.78   83.33
   1  11  13   42.81  152.26
   1  11  13  -28.40   71.17
  -2 -11 -13   11.42   89.85
  -2 -11 -13   -7.98   87.80
   2  11  13  -58.55   77.04
   2  11  13 -182.80  166.69
  -3 -11 -13   50.71   82.84
  -3 -11 -13   51.57   98.86
   3  11  13  112.22  156.51
   3  11  13  -30.60   80.37
  -4 -11 -13   22.65   81.87
  -4 -11 -13   75.34  107.02
   4  11  13   14.64   86.81
   4  11  13   60.72  149.05
  -5 -11 -13  -72.37  119.78
  -5 -11 -13  -35.87   85.51
   5  11  13   74.03  150.49
   5  11  13 -175.00   96.72
  -6 -11 -13  -62.87   83.43
  -6 -11 -13   62.07  136.63
   6  11  13 -403.65  172.23
   6  11  13 -125.80  113.46
  -7 -11 -13  288.60   89.47
  -7 -11 -13  -42.10  151.09
   7  11  13    4.59  117.60
 -10  12 -13 -190.91  131.31
  10 -12  13  -15.09  148.10
  -9  12 -13    4.99  123.99
  -9  12 -13   10.85   76.28
   9 -12  13   15.74   69.88
   9 -12  13    4.75  132.97
  -8  12 -13  309.74  121.13
  -8  12 -13   34.36   72.04
   8 -12  13  130.20  129.72
   8 -12  13    9.87   67.51
  -7  12 -13 -184.63  106.46
  -7  12 -13  -31.35   66.65
   7 -12  13   18.03   63.95
   7 -12  13  -75.58  116.01
   6 -12  13  -12.45   57.60
  -5  12 -13   -3.65   91.85
   5 -12  13    3.85  114.66
  -4  12 -13  125.52   77.10
  -4  12 -13  437.89  112.87
   4 -12  13  227.92  134.65
   4 -12  13  216.79   79.39
  -3  12 -13  -17.93   85.26
  -3  12 -13  -33.26   44.83
  -3  12  13    8.81  144.66
   3 -12  13   55.20  119.57
   3 -12  13  -58.06   55.65
  -2  12 -13    3.79   90.87
  -2  12 -13  136.91   47.44
   2 -12  13   93.39  132.32
  -2  12  13   -4.46  151.28
  -1  12 -13  107.37   97.46
  -1  12 -13   87.39   48.52
   1 -12  13  252.74  144.10
   0  12 -13    2.93   43.99
   1  12 -13   59.39  109.98
   1  12 -13   -3.26   51.57
  -7 -12 -13 1146.41  251.47
  -8 -12 -13   62.27  167.32
   8  12  13   10.50  126.94
 -10  13 -13    5.54  129.91
  10 -13  13  -58.89  153.20
  -9  13 -13 -182.07  134.25
   9 -13  13 -121.70   77.55
   9 -13  13 -131.40  149.43
  -8  13 -13   20.89   84.00
  -8  13 -13  301.09  135.48
   8 -13  13  139.89   91.71
  -7  13 -13  -42.32   61.37
  -7  13 -13 -137.69  109.33
   7 -13  13   93.93  136.11
   7 -13  13   23.65   61.27
  -6  13 -13   16.71   53.16
  -6  13 -13    4.00  101.87
   6 -13  13  -30.88   56.45
   6 -13  13   86.69  127.93
   5 -13  13   -4.19   60.93
   4 -13  13  -98.64  120.40
   3 -13 -13   22.66  100.46
  -3  13  13  148.73  169.95
   3 -13  13  -86.82  132.33
   3 -13  13  240.49   61.85
   2 -13 -13   64.89  104.63
  -2  13  13   -8.47   86.63
  -2  13  13  222.07  165.06
   1 -13 -13   10.15  101.46
  -1  13  13  -99.10  174.70
  -1  13  13  -77.70   89.55
   0 -13 -13  -39.22  102.66
   0  13  13    3.95   88.26
   0  13  13 -283.62  180.16
   1  13 -13  -70.50  127.79
  -1 -13 -13  -95.04  122.08
  -1 -13 -13   -9.88  113.19
   1  13  13   45.69  182.52
   1  13  13  110.87   91.68
  -2 -13 -13  144.62  110.22
  -2 -13 -13  160.21  127.04
   2  13  13 -136.85  196.79
   2  13  13    4.14   96.85
  -3 -13 -13  -65.00  105.42
  -3 -13 -13 -266.39  134.08
   3  13  13   -4.31  101.70
   3  13  13 -268.83  189.06
  -4 -13 -13   11.96  142.23
  -4 -13 -13   22.07  111.97
   4  13  13  106.61  171.38
   4  13  13 -132.77  107.83
  -5 -13 -13 -218.67  150.68
  -5 -13 -13   52.83  102.46
   5  13  13 -295.68  178.08
   5  13  13    4.88  115.35
  -6 -13 -13  124.93  172.42
  -6 -13 -13   85.88  110.18
   6  13  13  432.34  187.43
   6  13  13  104.41  126.62
  -7 -13 -13  -39.96  100.43
  -7 -13 -13 -248.67  173.26
   7  13  13 -121.24  126.21
   7  13  13    5.64  170.87
  -8 -13 -13  364.28  213.70
   8  13  13  439.36  167.22
   3 -14 -13  255.52  115.37
  -3  14  13 -328.33  190.67
   2 -14 -13  -71.99  112.51
  -2  14  13  334.15  187.20
  -2  14  13   -9.23   94.39
   1 -14 -13  119.40  108.77
  -1  14  13 -157.74  186.81
  -1  14  13   35.19   96.09
   0 -14 -13  -22.15  115.58
   0  14  13  -35.29   94.34
   0  14  13  137.68  192.29
  -1 -14 -13  121.24  121.54
  -1 -14 -13   39.22  123.06
   1  14  13 -104.53  199.64
   1  14  13   62.00  102.09
  -2 -14 -13  105.13  129.22
  -2 -14 -13  117.20  134.56
   2  14  13 -153.26  110.93
   2  14  13   99.48  200.06
  -3 -14 -13 -146.05  122.90
  -3 -14 -13    6.27  147.28
   3  14  13  245.85  116.18
   3  14  13  386.44  196.46
  -4 -14 -13  -99.55  114.93
  -4 -14 -13 -167.07  155.52
   4  14  13  147.54  115.42
   4  14  13  -62.22  196.06
  -5 -14 -13  515.90  181.03
  -5 -14 -13   84.60  132.44
   5  14  13  -96.59  135.31
   5  14  13  457.80  212.05
  -6 -14 -13  525.78  206.98
  -6 -14 -13   34.92  148.54
   6  14  13  372.87  217.58
   6  14  13  624.62  167.38
  -7 -14 -13 -184.98  190.92
  -7 -14 -13   79.83  120.24
   7  14  13    6.20  184.38
   7  14  13   29.75  143.80
  -8 -14 -13  624.44  207.16
   8  14  13  -43.54  156.79
   3 -15 -13  234.74  148.47
  -3  15  13  452.26  225.09
   2 -15 -13  -40.17  133.09
  -2  15  13 -538.09  212.08
  -2  15  13 -330.10  107.80
   1 -15 -13   38.31  129.28
  -1  15  13  -78.07  102.89
  -1  15  13  -59.70  214.78
   0 -15 -13  244.06  135.07
   0 -15 -13   90.55  145.50
   0  15  13   -4.91  108.02
   0  15  13  -35.69  210.99
  -1 -15 -13  -31.73  135.89
  -1 -15 -13 -108.38  138.12
   1  15  13    4.95  113.23
   1  15  13 -185.33  219.49
  -2 -15 -13   81.24  151.03
  -2 -15 -13  158.40  153.15
   2  15  13 -329.53  223.45
   2  15  13 -362.82  127.57
  -3 -15 -13   73.12  149.52
  -3 -15 -13  -49.27  165.32
   3  15  13  357.14  142.75
   3  15  13  423.74  222.70
  -4 -15 -13   56.57  143.01
  -4 -15 -13  164.27  176.72
   4  15  13   78.90  132.44
   4  15  13   87.56  210.58
  -5 -15 -13  220.88  186.95
  -5 -15 -13   57.49  147.12
   5  15  13    5.92  143.34
   5  15  13  170.48  221.57
  -6 -15 -13  176.02  203.99
  -6 -15 -13  175.87  137.77
   6  15  13   24.78  148.72
   6  15  13   60.60  217.29
  -7 -15 -13   78.80  130.86
  -7 -15 -13  411.78  214.14
   7  15  13   40.93  207.00
   7  15  13   71.22  155.19
  -8 -15 -13  181.04  213.38
   8  15  13 -416.67  160.78
   3 -16 -13  -61.51  146.04
  -3  16  13  352.10  229.97
   2 -16 -13  149.94  146.80
  -2  16  13 -188.10  226.62
  -2  16  13  151.67  114.06
   1 -16 -13 -209.02  148.38
  -1  16  13   38.03  120.14
  -1  16  13  226.83  233.39
   0 -16 -13  298.66  168.94
   0 -16 -13  198.40  148.51
   0  16  13  323.53  231.80
   0  16  13  -76.74  119.33
  -1 -16 -13  287.11  160.46
  -1 -16 -13  -40.08  155.16
   1  16  13    6.47  226.33
   1  16  13  151.49  129.32
  -2 -16 -13   40.52  153.77
  -2 -16 -13  111.68  164.17
   2  16  13  -74.93  125.84
   2  16  13   12.86  220.25
  -3 -16 -13   30.60  147.33
  -3 -16 -13 -267.29  181.92
   3  16  13  175.10  223.90
   3  16  13  210.83  142.12
  -4 -16 -13  157.92  202.11
  -4 -16 -13  -42.35  154.28
   4  16  13   24.96  140.51
   4  16  13  -97.12  226.56
  -5 -16 -13  253.26  209.58
  -5 -16 -13  160.64  161.26
   5  16  13   71.41  160.07
   5  16  13  304.99  246.03
  -6 -16 -13   54.82  210.50
  -6 -16 -13  -88.21  161.43
   6  16  13 -121.15  160.85
   6  16  13  -59.20  230.91
  -7 -16 -13  837.79  607.64
  -8 -16 -13  235.49  242.01
   8  16  13  281.04  180.12
   2 -17 -13 -227.71  168.15
  -2  17  13  181.06  128.24
  -2  17  13   71.16  244.91
   1 -17 -13 -317.67  160.45
   1 -17 -13   99.87  175.55
  -1  17  13    7.00  238.27
  -1  17  13 -161.94  131.56
   0 -17 -13    8.04  170.55
   0 -17 -13  -99.87  183.90
   0  17  13   61.09  129.64
   0  17  13    6.98  236.10
  -1 -17 -13   66.85  167.87
  -1 -17 -13  502.80  180.07
   1  17  13  335.67  241.87
   1  17  13 -244.02  141.43
  -2 -17 -13  -75.40  181.04
  -2 -17 -13  -90.25  171.25
   2  17  13 -125.33  244.30
   2  17  13   12.96  145.11
  -3 -17 -13 -127.31  180.22
  -3 -17 -13 -350.49  224.19
   3  17  13 -827.11  271.40
  -4 -17 -13 2745.18  985.53
   4  17  13 4856.68  894.34
  -5 -17 -13  -28.80  232.16
  -5 -17 -13  -23.92  169.63
   5  17  13 -263.20  165.37
  -6 -17 -13  -24.65  166.29
  -6 -17 -13 -230.72  243.32
   6  17  13    8.11  257.06
   6  17  13 -146.88  169.71
  -7 -17 -13  -61.09  158.14
  -7 -17 -13  -83.00  259.03
   7  17  13  241.79  180.60
   7  17  13   -8.26  250.41
  -8 -17 -13 -320.48  251.45
   8  17  13  139.68  180.71
   3 -18 -13 -241.62  191.95
  -3  18  13 -502.38  272.79
   2 -18 -13 -181.00  192.85
  -2  18  13  383.03  146.73
  -2  18  13  146.50  277.56
   1 -18 -13 -175.17  190.51
   1 -18 -13 -635.11  201.40
  -1  18  13  -37.85  268.21
  -1  18  13   -6.97  143.60
   0 -18 -13    9.12  180.85
   0 -18 -13 -135.27  201.06
   0  18  13 -197.70  142.12
   0  18  13  113.48  265.15
  -1 -18 -13  -62.40  180.13
  -1 -18 -13   91.59  195.96
   1  18  13  227.09  266.66
   1  18  13   69.66  150.43
  -2 -18 -13  188.41  202.54
  -2 -18 -13   12.63  183.97
   2  18  13 -216.89  262.92
   2  18  13  -93.28  157.13
  -3 -18 -13 -458.87  237.79
  -3 -18 -13  -25.95  186.91
   3  18  13 -163.65  173.02
   3  18  13    7.98  267.51
  -4 -18 -13   26.60  195.41
  -4 -18 -13  132.73  231.51
   4  18  13   92.83  282.11
   4  18  13  297.61  179.50
  -5 -18 -13   80.20  192.62
  -5 -18 -13  137.48  244.38
   5  18  13 -288.11  179.00
   5  18  13 -270.81  286.78
  -6 -18 -13  131.05  257.61
  -6 -18 -13   55.15  199.04
   6  18  13  133.35  284.99
   6  18  13   23.98  190.12
  -7 -18 -13 -231.65  180.93
  -7 -18 -13 -213.62  282.58
   7  18  13 -269.69  200.33
  -8 -18 -13  -23.10  264.25
   8  18  13   -8.36  197.59
   0 -19 -13   72.52  215.39
   0  19  13   23.35  165.66
  -1 -19 -13  517.34  223.83
   1  19  13 -264.20  172.59
  -2 -19 -13  -10.58  223.94
   2  19  13    7.96  176.18
  -3 -19 -13 -260.46  247.59
   3  19  13   24.57  185.46
   0   0 -14 1081.17  257.26
   0  -1 -14  -16.49   29.97
  -1   0 -14   17.49   25.41
  -1   0 -14  -23.81   53.89
   0   1 -14    7.55   34.99
   0  -1  14   -3.42   72.28
   1   0  14  -55.54   63.43
  -1   1 -14  592.31  131.36
  -1  -1 -14  718.62  154.93
  -1  -1 -14  524.92  135.69
  -1   1 -14  493.16  154.80
   1   1  14  588.57  165.61
   1  -1  14  422.97  163.76
  -1   2 -14   76.38   62.03
  -2  -1 -14   65.82   55.43
  -1   2 -14  114.46   31.12
  -2  -1 -14   74.34   25.16
   1  -2  14   79.03   72.07
   2   1  14   24.72   62.79
   2   1  14  -85.25   46.81
  -2   0 -14   55.36   58.85
   0  -2 -14   88.27   39.22
   0   2 -14  141.86   40.99
   0   2 -14    6.25   62.01
  -2   0 -14  101.90   31.18
   2   0  14  103.66   61.40
   0  -2  14  126.68   82.14
   2   0  14   76.99   37.47
  -1  -2 -14   41.04   28.04
  -1  -2 -14  -47.84   64.59
  -2   1 -14   21.32   25.64
  -2   1 -14   54.54   54.41
   2  -1  14   72.06   59.69
  -2   2 -14   31.47   37.66
  -2   2 -14   10.25   63.96
  -2  -2 -14  129.75   68.02
  -2  -2 -14   25.86   37.53
   2   2  14  422.87   79.79
   2  -2  14  106.50   71.51
  -3  -2 -14   -1.43   21.83
  -2   3 -14   -7.72   27.24
  -2   3 -14   34.53   60.10
  -3  -2 -14   -7.84   20.85
  -3  -2 -14  -35.36   24.60
  -3  -2 -14  -40.25   49.60
   2  -3  14  116.68   64.23
   3   2  14  -32.56   47.03
   3   2  14    3.63   48.19
  -1   3 -14  -27.81   28.13
  -3  -1 -14  -60.92   55.48
  -3  -1 -14   18.35   21.18
  -1   3 -14  -29.33   62.28
  -3  -1 -14   -3.07   16.01
   3   1  14 -112.59   57.87
   1  -3  14  -57.28   76.98
  -3   0 -14 -132.19   65.93
  -3   0 -14  -35.74   26.19
   0   3 -14   38.81   70.47
   0  -3 -14  -95.00   38.01
   3   0  14 -100.99   57.63
   0  -3  14 -116.62   88.63
  -3   1 -14  -17.09   24.34
  -1  -3 -14  -42.05   30.30
  -3   1 -14  -23.16   56.44
   3  -1  14  -79.68   61.90
   1   3  14 -292.04   79.77
  -2  -3 -14   36.52   52.32
  -3   2 -14   -5.38   24.95
  -2  -3 -14  -36.66   22.49
  -3   2 -14   14.42   52.98
   2   3  14  -15.71   59.18
   2   3  14  -71.78   63.57
   3  -2  14  -10.46   52.66
  -3   3 -14  353.02  100.04
  -3   3 -14  321.96   79.07
  -3  -3 -14  321.23   80.18
  -3  -3 -14  252.23   80.79
  -3  -3 -14  311.49  100.29
  -3  -3 -14  276.43   86.44
   3   3  14  378.85  100.54
   3  -3  14  258.02   99.87
   3   3  14  471.00   87.14
   3   3  14  384.54  103.73
  -4  -3 -14  526.31  133.83
  -4  -3 -14  420.52  114.49
  -4  -3 -14  451.56  114.68
  -3   4 -14  413.52  131.47
   4   3  14  467.67  116.02
   4   3  14  379.51  133.47
   3  -4  14  473.73  135.50
   4   3  14  497.92  107.18
   4   3  14  528.01  131.24
  -2   4 -14    2.76   61.50
  -4  -2 -14  -18.40   22.14
  -4  -2 -14   -8.10   46.77
   4   2  14   24.73   25.97
   4   2  14   24.45   46.34
   4   2  14   12.90   21.98
   2  -4  14   34.76   69.57
  -4  -1 -14  489.45  119.97
  -1   4 -14  441.23  100.62
  -1   4 -14  515.05  127.80
  -4  -1 -14  491.56  103.68
   1  -4  14  410.90  136.04
   4   1  14  398.58  100.73
   4   1  14  471.88  117.57
   0   4 -14    2.62   33.60
  -4   0 -14  -18.54   22.17
  -4   0 -14   28.18   49.76
   0   4 -14   40.33   64.05
   0  -4 -14    4.08   29.05
   4   0  14   -3.51   46.39
   0  -4  14   72.27   90.58
   4   0  14   27.22   24.25
   0   4  14   27.02   56.86
  -4   1 -14  367.13  108.63
  -4   1 -14  519.14   92.36
  -1  -4 -14   -1.56  101.82
   4  -1  14  567.33  110.14
   4  -1  14  332.65   91.91
  -4   2 -14   35.20   51.66
  -2  -4 -14    6.40   20.33
  -4   2 -14   12.85   24.83
   4  -2  14  -15.59   49.95
  -4   3 -14  451.57  132.61
  -4   3 -14  260.81  113.20
  -3  -4 -14  466.79  118.52
   4  -3  14  565.82  134.78
   3   4  14  489.06  120.82
   3   4  14  773.79  140.11
  -4  -4 -14  631.41  125.69
  -4   4 -14  386.20  122.12
  -4  -4 -14  299.20  106.90
   4  -4  14  539.36  124.26
   4   4  14  386.96  106.83
   4   4  14  428.17   99.45
   4   4  14  451.33  121.99
  -4   5 -14  141.10   70.81
  -5  -4 -14   83.40   59.74
  -4   5 -14  135.05   42.78
  -5  -4 -14  101.44   41.87
   5   4  14  146.35   56.05
   4  -5  14  113.86   70.79
   5   4  14  144.06   37.19
  -5  -3 -14  442.08  126.46
  -3   5 -14  415.59  101.55
  -3   5 -14  381.15  126.10
  -5  -3 -14  378.95  109.00
   3  -5  14  524.44  129.94
   5   3  14  346.99  100.70
   5   3  14  475.21  124.40
  -5  -2 -14  400.06  109.72
  -5  -2 -14  402.22   92.66
  -2   5 -14  331.10   86.03
  -2   5 -14  325.99  116.27
   5   2  14  446.63  107.60
   2  -5  14  348.28  120.67
   5   2  14  320.52   87.67
  -1   5 -14 1129.85  276.13
  -5  -1 -14 1019.40  271.46
  -5  -1 -14  958.79  244.57
  -1   5 -14 1013.45  257.05
   1  -5  14  973.09  292.79
   5   1  14  964.54  275.76
   0   5 -14  -42.09   70.53
  -5   0 -14   -5.76   26.11
  -5   0 -14  -13.31   50.69
   0   5 -14   -5.31   35.39
   5   0  14   -7.88   24.67
   5   0  14   10.77   45.60
   0  -5  14   32.01   90.21
   0   5  14  -21.49   70.86
  -5   1 -14 1121.31  276.50
  -1  -5 -14 1219.30  281.20
  -5   1 -14 1315.27  252.53
   5  -1  14  988.20  246.14
   5  -1  14  910.57  284.57
   1   5  14 1079.33  322.05
  -5   2 -14  322.77  108.15
  -2  -5 -14  276.35   98.15
  -5   2 -14  373.06   90.24
   5  -2  14  196.79   88.11
   2   5  14  453.52   97.29
   5  -2  14  520.15  111.46
   2   5  14  481.08  134.65
  -3  -5 -14  438.57  114.05
  -3  -5 -14  524.06  114.54
  -5   3 -14  466.07  126.66
  -5   3 -14  476.35  108.29
   3   5  14  482.43  113.57
   3   5  14  506.01  144.65
   5  -3  14  407.75  107.96
   5  -3  14  364.83  130.17
  -4  -5 -14  112.87   51.99
  -4  -5 -14  128.92   51.17
  -4  -5 -14   80.03   41.00
  -5   4 -14  120.06   70.80
   4   5  14  203.25   78.61
   4   5  14  190.45   53.06
   5  -4  14  184.90   72.13
   4   5  14  345.96   59.69
   4   5  14   71.36   36.46
  -5  -5 -14  495.32  126.93
  -5   5 -14  446.97  118.99
  -5  -5 -14  357.48  131.46
  -5  -5 -14  582.64  143.33
  -5   5 -14  562.18  140.08
   5   5  14  374.91  150.54
   5   5  14  546.72  129.84
   5   5  14  736.04  140.10
   5  -5  14  570.21  146.65
   5  -5  14  551.49  120.02
   5   5  14  413.79  118.13
  -6  -5 -14  -44.03   50.01
  -6  -5 -14  -25.12   35.28
  -5   6 -14   12.59   34.27
  -5   6 -14   26.33   71.14
   6   5  14   12.80   25.61
   5  -6  14   83.44   70.08
   6   5  14  -29.73   47.47
   5  -6  14   37.58   37.15
  -4   6 -14  294.06  126.65
  -4   6 -14  382.67  102.80
  -6  -4 -14  295.16  126.94
  -6  -4 -14  415.42  117.17
   4  -6  14  599.55  106.84
   6   4  14  398.54  103.53
   4  -6  14  530.65  134.42
  -6  -3 -14  293.61  104.28
  -6  -3 -14  477.34  117.47
  -3   6 -14  422.30  121.32
  -3   6 -14  412.84   95.11
   6   3  14  361.23   95.64
   3  -6  14  413.14  127.88
  -6  -2 -14  386.25  103.51
  -2   6 -14  362.11  113.06
  -6  -2 -14  304.79   89.84
  -2   6 -14  294.29   82.30
   2  -6  14  290.59  119.66
   6   2  14  328.47   82.40
  -1   6 -14  119.33   74.28
  -6  -1 -14   81.14   37.94
  -1   6 -14  116.04   38.27
  -6  -1 -14   99.30   55.55
   6   1  14   87.61   35.27
   1  -6  14   17.89   92.02
  -1   6  14  100.48   80.93
   0   6 -14  121.21   98.74
  -6   0 -14  363.06   66.51
   0  -6 -14  246.05   77.52
   0   6 -14  299.09   68.38
  -6   0 -14  304.87   80.61
   0  -6  14  220.15  119.15
   6   0  14  295.38   64.60
   0   6  14  345.32  102.20
  -6   1 -14  135.18   39.12
  -1  -6 -14   91.05   51.48
  -6   1 -14  108.49   57.30
   1   6  14   87.43   92.88
   1   6  14   86.74   54.04
   6  -1  14  102.01   37.59
  -6   2 -14  382.26  107.16
  -2  -6 -14  400.65   98.07
  -6   2 -14  351.78   91.22
   6  -2  14  292.67  111.31
   2   6  14  338.97  139.43
   6  -2  14  511.39   90.20
   2   6  14  290.39   96.36
  -3  -6 -14  345.78  107.63
  -6   3 -14  573.70  120.03
  -6   3 -14  433.61  100.15
  -3  -6 -14  355.40  107.79
   6  -3  14  501.91  124.15
   3   6  14  260.80  105.47
   3   6  14  340.00  143.74
   6  -3  14  519.43  100.99
  -4  -6 -14  662.25  126.84
  -6   4 -14  389.16  133.38
  -4  -6 -14  504.71  120.36
   4   6  14  529.58  120.61
   6  -4  14  550.72  139.01
   4   6  14  349.79  143.57
  -6   5 -14 -119.81   69.61
  -6   5 -14  -40.04   34.87
  -5  -6 -14  -40.33   58.97
  -5  -6 -14   62.49   46.53
   6  -5  14   14.58   36.80
   6  -5  14  -55.53   63.36
   5   6  14   21.84   83.55
   5   6  14  -62.80   50.88
  -6   6 -14  137.63   53.65
  -6   6 -14  203.38   82.75
   6  -6  14  152.34   86.10
   6  -6  14  186.03   59.29
  -6   7 -14  -27.59   44.16
  -6   7 -14  -49.29   86.31
   6  -7  14   49.43   43.72
   6  -7  14   23.44   81.48
  -5   7 -14  393.82  120.97
  -5   7 -14  337.75   95.29
  -7  -5 -14  319.15  115.66
   5  -7  14  364.11  125.55
   5  -7  14  504.70   98.93
  -4   7 -14   60.08   70.31
  -7  -4 -14   47.33   52.81
  -4   7 -14    2.43   36.18
   7   4  14   52.71   29.82
   4  -7  14   14.22   75.89
   4  -7  14   33.32   37.63
  -3   7 -14  619.83  168.07
  -7  -3 -14  599.73  160.65
  -3   7 -14  662.55  142.10
  -7  -3 -14  577.54  166.43
   3  -7  14  616.75  179.22
   7   3  14  636.90  146.03
  -7  -2 -14  312.73   76.24
  -7  -2 -14  306.70   84.87
  -2   7 -14  285.76   67.35
  -2   7 -14  136.48   94.18
   7   2  14  263.44   68.72
   2  -7  14  228.22  111.25
  -7  -1 -14  826.28  176.74
  -1   7 -14  866.59  161.10
  -1   7 -14  562.60  197.25
  -7  -1 -14  625.85  186.03
   1  -7  14  878.22  219.62
  -1   7  14  480.67  212.13
   0   7 -14   41.50   40.98
   0   7 -14  -11.56   81.74
   0   7 -14    5.47   64.45
   0  -7 -14  -37.07   52.11
  -7   0 -14   -2.76   36.39
  -7   0 -14   37.23   54.19
   0   7  14   30.45   54.97
   0   7  14   44.67   88.93
   7   0  14  -14.27   31.22
   0  -7  14  -18.03  101.00
  -7   1 -14  689.51  177.57
  -7   1 -14  784.88  164.59
  -1  -7 -14  737.45  175.47
   1   7  14  631.95  222.82
   1   7  14  761.82  165.74
   7  -1  14  399.70  158.68
  -2  -7 -14  259.69   77.04
  -7   2 -14  265.43   84.25
  -7   2 -14  265.22   67.50
   2   7  14  202.83   73.83
   7  -2  14  168.62   64.45
   2   7  14  182.33  129.04
  -7   3 -14  523.01  138.96
  -3  -7 -14  541.36  149.19
  -3  -7 -14  745.37  152.12
  -7   3 -14  606.92  156.66
   7  -3  14  495.12  137.36
   3   7  14  686.71  189.94
   3   7  14  452.01  143.66
  -4  -7 -14   73.65   51.30
  -4  -7 -14   32.27   59.74
  -7   4 -14  121.06   69.44
   4   7  14   45.12   92.86
   4   7  14   37.24   53.83
  -7   5 -14  316.81  111.81
  -7   5 -14  457.38   92.99
  -5  -7 -14  302.24  115.53
  -5  -7 -14  272.42  101.11
   5   7  14  282.35  135.18
   5   7  14  249.97  105.99
   7  -5  14  453.02   92.96
  -7   6 -14  -45.37   49.91
  -7   6 -14   12.81   74.98
   6   7  14   -2.62   70.76
   7  -6  14   -2.87   72.71
   6   7  14  -41.73   98.35
   7  -6  14  -16.12   40.90
  -7   7 -14  343.91   67.85
  -7   7 -14  129.87   98.31
   7  -7  14    6.19  104.57
   7  -7  14  171.44   64.06
  -7   8 -14  408.58   74.52
  -7   8 -14    3.66  104.79
   7  -8  14  357.56   73.66
   7  -8  14   -3.35  112.29
  -6   8 -14   79.34   85.64
  -6   8 -14   45.22   49.38
   6  -8  14    3.12   83.65
   6  -8  14   41.97   51.79
  -8  -5 -14  -25.50   53.43
  -5   8 -14   51.87   83.40
  -5   8 -14   40.92   41.73
   5  -8  14    9.78   45.31
   5  -8  14  -63.48   87.68
  -4   8 -14 1198.83  280.87
  -8  -4 -14  798.79  287.92
   4  -8  14 1120.17  253.92
   4  -8  14 1111.57  304.58
  -3   8 -14   62.80   39.70
  -3   8 -14   56.96   75.05
  -8  -3 -14  127.05   57.95
   3  -8  14  143.84   92.98
  -2   8 -14  494.34  132.26
  -2   8 -14  613.23  166.55
  -8  -2 -14  537.87  153.09
   2  -8  14  549.10  184.93
   8   2  14  566.66  137.48
  -8  -1 -14  -16.56   41.58
   1  -8 -14   27.15   60.21
  -1   8 -14   40.63   34.36
  -1   8 -14  -21.73   80.47
  -8  -1 -14   30.51   53.01
   1  -8  14   -4.10   99.29
   8   1  14  -26.43   31.22
  -1   8  14   -2.87   94.55
   0   8 -14  647.42  159.88
  -8   0 -14  725.64  151.82
   0  -8 -14  530.82  154.68
  -8   0 -14  517.47  146.58
   0   8 -14  328.32  173.68
   0   8 -14  581.02  135.51
   8   0  14  552.75  137.12
   0  -8  14  352.17  205.78
   0   8  14  491.72  193.65
   0   8  14  762.98  146.05
  -1  -8 -14   24.50   51.05
  -8   1 -14  -26.02   46.06
  -8   1 -14   53.03   53.74
   8  -1  14   56.58   34.78
   1   8  14    4.73   53.82
   1   8  14  -12.59  113.59
  -8   2 -14  626.58  156.77
  -2  -8 -14  518.04  152.41
  -8   2 -14  517.20  145.47
   8  -2  14  733.46  141.51
   2   8  14  539.50  205.01
   2   8  14  561.51  146.44
  -8   3 -14   93.20   46.90
  -3  -8 -14   67.58   62.62
  -8   3 -14   72.46   67.20
  -3  -8 -14   96.51   63.83
   8  -3  14   42.62   43.89
   3   8  14  121.74  115.99
   3   8  14   68.51   58.43
  -4  -8 -14 1085.39  290.63
  -8   4 -14 1390.22  282.20
  -4  -8 -14  875.59  275.30
  -8   4 -14 1236.58  264.64
   4   8  14  917.79  274.15
   4   8  14 1086.85  312.26
   8  -4  14 1317.51  261.82
  -5  -8 -14   13.17   77.95
  -5  -8 -14  -25.03   60.80
  -8   5 -14  -31.16   72.78
  -8   5 -14    7.13   43.81
   8  -5  14  -23.38   43.81
   5   8  14  -10.61   67.39
   5   8  14  -55.64  110.21
  -6  -8 -14   69.56   63.80
  -6  -8 -14  104.72   97.12
  -8   6 -14  130.06   54.17
  -8   6 -14   -3.33   83.40
   6   8  14   44.82   81.68
   8  -6  14   35.36   49.43
   6   8  14   79.17  110.94
  -8   7 -14  -46.64   95.88
  -8   9 -14  462.22   93.49
  -8   9 -14  -25.75   60.10
   8  -9  14   -3.81   84.58
   8  -9  14  -54.74   59.41
  -6   9 -14  241.68  108.14
  -6   9 -14  143.05   69.90
   6  -9  14  296.95   73.40
   6  -9  14  149.62  111.46
  -5   9 -14  130.07   90.56
  -5   9 -14  268.08   60.09
   5  -9  14    3.32   98.22
   5  -9  14   83.62   59.47
  -4   9 -14   47.56   43.58
  -9  -4 -14   46.19   57.82
  -4   9 -14   49.78   87.81
   4  -9  14   -3.36   47.40
   4  -9  14  -46.62   98.46
  -9  -3 -14  809.14  168.71
  -3   9 -14  546.45  176.36
  -3   9 -14  644.40  149.66
   3  -9  14  534.68  195.60
  -9  -2 -14  -55.42   55.63
  -2   9 -14  -15.30   37.02
  -2   9 -14  -53.18   84.94
  -2   9  14  -57.77  101.04
   2  -9  14   -3.87   99.36
  -1   9 -14  302.55   82.32
  -1   9 -14  322.98  117.31
  -9  -1 -14  389.39   98.13
   1  -9 -14  326.04  108.01
  -1   9  14  215.83  139.33
   1  -9  14  205.47  149.77
  -1   9  14  413.18   99.81
   0   9 -14   20.31   42.30
   0  -9 -14  -43.52   68.76
  -9   0 -14   -5.11   59.53
   0  -9  14  -62.11  122.68
   0   9  14 -142.05   64.94
   0   9  14   44.98  121.50
  -9   1 -14  248.26   94.97
  -1  -9 -14  448.48   97.91
   1   9  14  233.38   89.68
   1   9  14  155.44  154.55
   9  -1  14  232.40   77.43
  -2  -9 -14   38.73   63.63
  -9   2 -14  -19.27   61.86
  -9   2 -14  -11.45   48.04
   2   9  14  -92.67  135.28
   2   9  14   48.67   60.87
   9  -2  14   22.69   40.35
  -3  -9 -14  475.87  164.86
  -3  -9 -14  524.62  162.95
  -9   3 -14  671.12  150.52
  -9   3 -14  925.89  158.41
   9  -3  14   91.40  144.68
   3   9  14  682.72  153.70
   3   9  14  648.12  211.02
  -9   4 -14   21.68   70.34
  -4  -9 -14   62.30   66.07
  -9   4 -14   82.74   52.07
  -4  -9 -14   51.12   77.23
   9  -4  14    3.52   47.29
   4   9  14    8.29   67.30
   4   9  14   65.30  120.43
  -5  -9 -14  227.12   79.16
  -9   5 -14   52.71   87.12
  -5  -9 -14  259.13  103.11
   5   9  14  184.79   86.17
   5   9  14  186.57  132.28
  -6  -9 -14   71.15   79.29
  -6  -9 -14  221.55  112.78
   6   9  14  159.18   93.57
   6   9  14   80.64  131.15
  -9   7 -14    4.39   61.34
   9  -7  14 -128.06   55.71
  -9   8 -14 -128.13   94.92
  -9   8 -14    4.59   62.17
   9  -8  14    4.37   57.51
  -9   9 -14  -17.32  103.97
  -9   9 -14   52.91   67.67
   9  -9  14   60.15   61.75
  -9  10 -14    4.64  108.13
  -9  10 -14   -5.05   70.54
   9 -10  14  142.57  123.76
   9 -10  14   63.64   67.70
  -8  10 -14   -4.52   65.15
  -8  10 -14  -21.85  102.67
   8 -10  14  -17.83   64.64
   8 -10  14    4.12  118.04
  -7  10 -14   27.92   59.30
   7 -10  14  178.66   66.79
   6 -10  14   -3.69  103.68
  -5  10 -14   94.14   51.04
  -5  10 -14   78.91   89.63
   5 -10  14   59.39   54.28
   5 -10  14   -3.54   97.32
  -4  10 -14  233.83   70.50
  -4  10 -14  246.72  104.28
   4 -10  14  205.76   75.73
   4 -10  14  235.67  123.06
  -3  10 -14    3.49   81.59
  -3  10 -14  -16.50   42.26
   3 -10  14   73.53  106.14
  -2  10 -14  151.06   50.84
  -2  10 -14  183.60   89.82
  -2  10  14 -128.61  120.45
   2 -10  14  134.73  123.08
  -1  10 -14    8.25   40.56
   1 -10 -14  -39.57   69.82
  -1  10 -14  -15.96   84.30
   1 -10  14  -72.36  125.82
  -1  10  14   65.70   71.12
  -1  10  14   14.97  125.34
   0 -10 -14   21.64   68.55
   0  10 -14   44.60   44.16
   0  10  14  191.25  144.26
   0 -10  14  -94.69  133.21
   0  10  14  -56.86   65.39
   1  10 -14   27.33   51.17
  -1 -10 -14    3.38   71.74
   1  10  14 -196.65  142.01
   1  10  14  -82.84   64.49
  -2 -10 -14  153.50   83.15
  -2 -10 -14  110.23   85.96
   2  10  14  117.22   73.33
   2  10  14   74.64  149.24
  -3 -10 -14   21.76   83.19
  -3 -10 -14  -61.02   76.79
   3  10  14  -76.67  139.25
   3  10  14  -26.59   71.06
  -4 -10 -14  243.95  112.12
  -4 -10 -14  264.14  101.22
   4  10  14  318.22  100.98
   4  10  14  250.88  149.38
  -5 -10 -14   -5.30   76.88
  -5 -10 -14   82.91  104.98
   5  10  14  113.07   84.55
   5  10  14   96.86  128.50
  -6 -10 -14  -67.68  117.43
 -10   6 -14    3.74   84.95
  -6 -10 -14   33.82   76.20
   6  10  14   48.95   93.42
   6  10  14   40.75  142.51
  10  -6  14    4.24   48.46
 -10   7 -14   15.89   97.50
   7  10  14   44.96  110.02
  10  -7  14   71.28   60.91
 -10   8 -14 -191.06  102.23
  10  -8  14    4.70   60.63
 -10   9 -14   27.25  114.99
  10  -9  14  153.91   70.97
 -10  10 -14 -112.71  117.31
  10 -10  14   78.78   69.52
 -10  11 -14  -99.13  136.10
  10 -11  14    5.55   74.67
  10 -11  14    4.91  146.17
  -9  11 -14   21.19   74.95
  -9  11 -14    4.89  122.05
   9 -11  14    4.66  135.32
   9 -11  14  -61.98   70.30
  -8  11 -14   -4.63  112.93
  -8  11 -14   14.27   59.80
   8 -11  14  -22.13  126.90
   8 -11  14    4.79   65.95
  -7  11 -14  -12.96   63.12
  -7  11 -14 -178.19  116.18
   7 -11  14 -179.07  122.65
   7 -11  14   39.71   63.05
   6 -11  14   -4.16   62.24
  -5  11 -14   -3.75   94.78
   5 -11  14   69.28  109.87
  -4  11 -14   83.60   92.74
  -4  11 -14  125.19   54.74
   4 -11  14  122.56   61.42
   4 -11  14   23.49  112.62
  -3  11 -14   18.29   86.70
  -3  11 -14  -26.17   46.85
   3 -11  14   59.21   54.98
   3 -11  14    8.33  115.77
   2 -11 -14   96.87   87.62
  -2  11 -14   22.70   44.44
  -2  11 -14    3.87   91.88
   2 -11  14   86.57  118.50
  -1  11 -14    4.18   93.03
  -1  11 -14   20.15   45.96
   1 -11 -14   12.99   82.93
   1 -11  14   42.09  140.31
  -1  11  14    3.52   73.93
   0 -11 -14   24.03   80.15
   0  11 -14   -9.20   42.57
   0  11  14   25.41  145.56
   0  11  14   26.25   72.42
   1  11 -14   51.90   49.15
  -1 -11 -14   -3.82   86.35
   1  11 -14   13.83  104.88
   1  11  14   15.91   74.97
   1  11  14  -30.53  160.70
  -2 -11 -14  -46.77   86.57
  -2 -11 -14 -100.69   92.09
   2  11  14    4.34  164.20
   2  11  14   90.30   73.71
  -3 -11 -14  -33.28   95.83
  -3 -11 -14   63.56   86.54
   3  11  14 -310.37  153.89
   3  11  14  100.50   82.95
  -4 -11 -14   80.74   88.07
  -4 -11 -14   81.14  109.75
   4  11  14  150.98  152.04
   4  11  14   42.80   89.99
  -5 -11 -14    6.05   86.89
  -5 -11 -14  162.33  115.89
   5  11  14  -73.15  100.18
   5  11  14 -251.62  158.74
  -6 -11 -14  112.90   87.15
  -6 -11 -14    5.42  124.22
   6  11  14   25.16  108.87
   6  11  14 -348.83  177.02
  -7 -11 -14  111.20  143.97
  -7 -11 -14   -6.53   69.19
   7  11  14 -225.16  113.52
 -10  12 -14   22.09  137.71
  10 -12  14   11.73   74.04
  10 -12  14   10.55  156.14
  -9  12 -14    5.56   74.53
  -9  12 -14  362.31  133.78
   9 -12  14   35.01  154.10
   9 -12  14  -98.52   74.16
  -8  12 -14  -19.11  118.05
  -8  12 -14  -45.99   71.88
   8 -12  14 -196.38  131.91
   8 -12  14 -111.48   70.83
  -7  12 -14   21.99  113.74
  -7  12 -14   -4.55   71.74
   7 -12  14   -4.66   66.94
   7 -12  14  -26.88  124.40
  -6  12 -14   49.34  102.08
  -6  12 -14  -52.84   59.50
   6 -12  14  -21.87   62.92
   6 -12  14  -25.55  125.03
   5 -12  14   -4.20   54.87
   4 -12  14   -4.29  116.91
  -3  12 -14  190.77   61.08
  -3  12 -14   57.82  100.65
   3 -12  14   -4.53  136.56
   3 -12  14  158.38   64.22
  -2  12 -14  -92.79  100.95
  -2  12 -14  -32.64   49.42
  -2  12  14 -290.25  154.75
   2 -12  14   64.64  137.18
  -1  12 -14  -13.14   99.60
  -1  12 -14  -18.03   48.77
  -1  12  14   41.10  156.75
   1 -12  14   34.10  151.53
   0  12 -14  -50.26   52.02
   1  12 -14   27.93   53.18
  -6 -12 -14   63.12  100.60
   6  12  14  306.48  170.97
  -7 -12 -14  666.16  216.48
   7  12  14  991.33  191.58
 -10  13 -14  296.55  147.48
  10 -13  14   -5.64  169.11
  -9  13 -14   82.17   84.60
  -9  13 -14   75.56  138.23
   9 -13  14    5.31  154.39
   9 -13  14  -28.70   77.34
  -8  13 -14   74.06  121.06
  -8  13 -14 -117.72   78.87
   8 -13  14  101.52   72.36
   8 -13  14   25.05  135.61
  -7  13 -14  -81.24   66.29
  -7  13 -14  -41.00  115.17
   7 -13  14 -109.05   73.51
  -6  13 -14   -4.24  101.46
  -6  13 -14    8.78   67.09
   6 -13  14   54.78   66.10
   6 -13  14   45.71  134.83
  -5  13 -14  124.51  101.58
  -5  13 -14   28.09   60.33
   5 -13  14  -92.53   62.44
   5 -13  14  318.17  129.90
   4 -13  14   53.91   56.96
  -3  13  14 -216.86  169.67
   2 -13 -14 -199.12  106.98
  -2  13  14 -120.34  168.82
   2 -13  14   59.73  142.78
  -2  13  14  -60.65   90.64
   1 -13 -14   31.53  103.47
  -1  13  14  -74.93   91.51
  -1  13  14    5.02  177.23
   0 -13 -14   29.74  102.62
   0  13  14   48.18   90.77
   0  13  14  -77.10  180.08
  -1 -13 -14  -78.39  105.97
  -1 -13 -14  -30.04  114.21
   1  13  14 -289.12  190.79
   1  13  14  -27.84   91.29
  -2 -13 -14  -55.63  117.28
  -2 -13 -14   44.53  111.95
   2  13  14  272.63   99.43
   2  13  14   -5.19  189.85
  -3 -13 -14   75.55  126.51
  -3 -13 -14   59.26  115.40
   3  13  14  235.31  103.02
   3  13  14  184.84  190.83
  -4 -13 -14  -59.85  104.89
  -4 -13 -14   63.56  138.73
   4  13  14  -61.41  174.39
   4  13  14  224.30  107.51
  -5 -13 -14   -7.67  108.23
  -5 -13 -14 -143.64  152.06
   5  13  14  -43.00  114.00
   5  13  14   27.06  183.11
  -6 -13 -14  -13.41  156.44
  -6 -13 -14   94.20  105.55
   6  13  14  -96.39  122.29
   6  13  14    5.57  178.10
  -7 -13 -14  -72.12  112.79
  -7 -13 -14   14.22  174.79
   7  13  14  -48.39  134.24
   7  13  14 -280.77  187.11
  -3  14  14   50.04  187.46
   2 -14 -14  115.80  118.35
  -2  14  14 -103.87  189.89
  -2  14  14   42.45   98.49
   1 -14 -14   23.48  124.37
  -1  14  14   22.89   95.02
  -1  14  14  264.59  194.93
   0 -14 -14  100.36  114.14
   0  14  14   98.27  100.88
   0  14  14  156.38  201.99
  -1 -14 -14   82.78  123.43
  -1 -14 -14  116.60  123.87
   1  14  14   33.78  196.31
   1  14  14   17.76  102.71
  -2 -14 -14  137.73  130.06
  -2 -14 -14  -66.34  124.87
   2  14  14   27.35  105.02
   2  14  14  168.90  204.73
  -3 -14 -14  158.02  134.40
  -3 -14 -14   -8.32  127.03
   3  14  14    4.79  112.56
   3  14  14  138.81  200.25
  -4 -14 -14 -156.08  158.33
  -4 -14 -14  -67.67  124.42
   4  14  14  120.29  120.28
   4  14  14   17.09  194.24
  -5 -14 -14 -110.92  167.36
  -5 -14 -14   51.69  122.11
   5  14  14   68.62  129.99
   5  14  14    6.00  208.68
  -6 -14 -14  -79.27  122.65
  -6 -14 -14   73.61  177.80
   6  14  14    5.57  133.78
   6  14  14 -381.39  197.91
  -7 -14 -14   53.54  120.04
  -7 -14 -14  273.98  188.21
   7  14  14    6.19  190.76
   7  14  14  140.92  146.56
   8  14  14    6.12  141.68
   3 -15 -14  125.92  127.77
  -3  15  14 -277.70  209.31
   2 -15 -14 -250.62  130.22
  -2  15  14  -82.72  112.97
  -2  15  14    6.00  206.34
   1 -15 -14  124.98  132.70
  -1  15  14  -30.37  109.68
  -1  15  14  302.38  221.08
   0 -15 -14   75.66  144.20
   0  15  14  278.67  128.48
   0  15  14  413.82  228.12
  -1 -15 -14  -94.35  142.80
  -1 -15 -14   -9.24  142.62
   1  15  14 -345.81  224.90
   1  15  14    4.96  114.02
  -2 -15 -14 -129.45  154.01
  -2 -15 -14   -6.50  147.63
   2  15  14 -509.68  129.20
  -3 -15 -14 -150.45  152.66
  -3 -15 -14  131.29  144.90
   3  15  14   69.49  124.41
   3  15  14  -12.10  217.05
  -4 -15 -14  384.66  157.32
  -4 -15 -14  247.32  174.66
   4  15  14   -6.32  215.08
   4  15  14  -27.82  135.01
  -5 -15 -14 -138.90  176.17
  -5 -15 -14  -19.32  134.33
   5  15  14    5.82  139.21
   5  15  14    6.63  221.57
  -6 -15 -14 -203.56  203.17
  -6 -15 -14  118.65  138.25
   6  15  14   81.46  212.42
   6  15  14 -303.83  142.64
  -7 -15 -14 -247.63  213.71
  -7 -15 -14  -69.57  134.43
   7  15  14 -402.70  222.52
   7  15  14 -190.19  156.09
  -8 -15 -14  354.09  232.18
   3 -16 -14  249.01  146.11
  -3  16  14  112.38  231.16
   2 -16 -14   91.00  145.25
  -2  16  14   78.76  226.14
  -2  16  14 -290.01  120.28
   1 -16 -14 -155.53  143.40
  -1  16  14    6.56  236.57
  -1  16  14   61.86  120.00
   0 -16 -14  163.72  166.68
   0 -16 -14   99.70  157.86
   0  16  14  321.79  130.53
   0  16  14  144.27  239.81
  -1 -16 -14  -71.69  164.03
  -1 -16 -14   57.00  155.49
   1  16  14  387.49  228.76
   1  16  14   22.18  120.39
  -2 -16 -14  -72.57  157.95
  -2 -16 -14  -22.04  163.27
   2  16  14  -17.19  131.28
   2  16  14   26.39  226.46
  -3 -16 -14   10.44  157.38
  -3 -16 -14  -38.40  177.23
   3  16  14 -173.44  135.31
   3  16  14  104.80  224.90
  -4 -16 -14   56.88  190.14
  -4 -16 -14  259.36  181.09
   4  16  14  315.95  237.84
   4  16  14  215.50  154.73
  -5 -16 -14 -229.42  169.91
  -5 -16 -14    8.53  193.94
   5  16  14  147.11  149.56
   5  16  14   -7.30  235.27
  -6 -16 -14   -8.90  211.27
  -6 -16 -14 -166.29  164.50
  -7 -16 -14 -130.78  224.77
  -7 -16 -14   99.81  144.49
   7  16  14 -421.62  255.06
   7  16  14 -302.65  173.65
  -8 -16 -14 -106.22  228.08
   8  16  14  318.50  173.53
   3 -17 -14 3096.00  695.03
  -3  17  14 3860.30  740.47
   1 -17 -14 -284.40  184.46
   1 -17 -14  271.07  194.88
  -1  17  14 -426.49  141.50
   0 -17 -14  -22.56  181.69
   0 -17 -14 -237.11  175.49
  -1 -17 -14  -22.73  189.59
  -1 -17 -14   -8.06  179.65
   1  17  14 -831.50  268.17
  -2 -17 -14  -91.19  188.61
  -2 -17 -14  103.68  191.59
   2  17  14 -197.84  152.23
  -3 -17 -14  626.52  453.28
  -3 -17 -14  188.87  436.60
   3  17  14 2979.24  506.40
   3  17  14 1364.68  397.73
  -4 -17 -14  -96.82  186.70
  -4 -17 -14  226.05  216.03
   4  17  14 -288.03  164.03
   4  17  14 -755.54  279.29
  -5 -17 -14   12.21  165.74
  -5 -17 -14 -254.67  226.48
   5  17  14  338.21  169.17
   5  17  14   80.60  266.44
  -6 -17 -14 -150.31  169.15
  -6 -17 -14  166.56  227.63
   6  17  14 -246.13  265.78
   6  17  14  101.52  170.23
  -7 -17 -14  -86.71  168.60
  -7 -17 -14  304.23  245.51
   7  17  14  215.73  258.16
   7  17  14 -148.55  178.09
  -8 -17 -14   20.90  256.55
   8  17  14 -122.14  180.33
   3 -18 -14    9.76  176.37
  -3  18  14  -71.60  267.08
   2 -18 -14  470.62  196.59
  -2  18  14  267.85  152.30
  -2  18  14 -460.78  279.77
   1 -18 -14   18.94  190.49
   1 -18 -14 -496.25  208.24
  -1  18  14 -416.15  283.20
  -1  18  14 -105.24  144.90
   0 -18 -14   12.51  182.98
   0 -18 -14  -27.83  186.99
   0  18  14   20.77  148.58
   0  18  14  -61.27  272.90
  -1 -18 -14  109.58  202.41
  -1 -18 -14   50.44  182.83
   1  18  14 -436.51  156.23
  -2 -18 -14  103.27  203.74
  -2 -18 -14   -9.33  214.56
   2  18  14  340.08  162.71
   2  18  14  227.26  269.26
  -3 -18 -14 -182.63  228.16
  -3 -18 -14   52.91  189.63
   3  18  14    8.04  272.02
   3  18  14  534.92  177.97
  -4 -18 -14  289.88  231.65
  -4 -18 -14  -13.61  192.83
   4  18  14 -588.40  288.74
   4  18  14 -189.03  176.30
  -5 -18 -14 -231.61  201.00
  -5 -18 -14   41.56  249.21
   5  18  14  200.63  181.06
   5  18  14 -335.97  293.25
  -6 -18 -14 -154.21  186.52
  -6 -18 -14   10.72  245.85
   6  18  14  224.60  281.98
   6  18  14 -205.49  182.78
  -7 -18 -14  -55.34  182.36
  -7 -18 -14 -264.01  267.42
   7  18  14  182.91  278.79
   7  18  14   40.39  191.16
  -8 -18 -14 -112.75  266.56
   8  18  14 -197.69  189.06
   0   0 -15   21.07   34.30
   0  -1 -15 1776.91  431.67
  -1   0 -15 1967.66  417.76
  -1   0 -15 1618.28  464.48
   0  -1  15 1841.09  488.64
   1   0  15 1716.49  486.95
  -1  -1 -15  -31.21   60.83
  -1  -1 -15  -46.86   28.87
  -1   1 -15  -28.35   27.78
  -1   1 -15  -50.67   61.78
   1  -1  15    6.26   72.82
   1   1  15   15.55   72.82
  -2  -1 -15   31.64   57.20
  -1   2 -15   20.25   28.24
  -2  -1 -15   19.58   27.22
  -1   2 -15  -21.59   63.02
   1  -2  15  -73.90   78.27
   2   1  15   22.87   68.10
   2   1  15  -11.93   41.62
   0   2 -15   13.62   37.46
  -2   0 -15    1.86   24.52
   0  -2 -15    2.45   31.47
  -2   0 -15    8.03   56.07
   0  -2  15   34.36   83.93
   2   0  15   31.08   67.62
  -1  -2 -15   25.42   26.59
  -2   1 -15   -5.86   25.76
  -2   1 -15   49.23   59.99
  -1  -2 -15   33.56   57.47
   1   2  15  -39.96   45.49
   1   2  15 -181.33   75.58
   2  -1  15  -31.61   65.77
  -2  -2 -15   28.65   56.99
  -2  -2 -15  -33.79   24.21
  -2   2 -15    2.01   28.45
  -2   2 -15  -25.27   66.10
   2  -2  15  -13.64   66.63
   2   2  15  -56.22   54.95
   2   2  15 -136.97   67.97
  -2   3 -15    2.90   60.08
  -2   3 -15    8.33   28.82
  -3  -2 -15  -20.60   22.31
  -3  -2 -15   42.51   54.21
   3   2  15  -48.04   54.05
   2  -3  15   14.23   72.79
  -1   3 -15  392.08   94.13
  -1   3 -15  439.28  124.47
  -3  -1 -15  332.83   99.05
  -3  -1 -15  411.04  119.74
   3   1  15  415.86  121.07
   1  -3  15  219.77  134.62
  -3   0 -15   -1.78   23.81
   0  -3 -15   -4.70   32.42
  -3   0 -15   -9.91   55.43
   0   3 -15   44.65   38.10
   0  -3  15   -7.88   89.49
   3   0  15   36.79   54.76
  -3   1 -15  486.08  106.83
  -1  -3 -15  628.03  115.47
  -3   1 -15  365.73  128.68
   3  -1  15  285.81  127.27
   1   3  15  543.60  144.26
  -2  -3 -15   12.62   23.03
  -3   2 -15   -7.78   26.60
  -2  -3 -15   20.07   55.91
  -3   2 -15   -2.64   57.73
   3  -2  15  -39.95   61.24
   2   3  15   43.16   63.91
   2   3  15  -43.58   67.33
  -3  -3 -15  -20.48   20.94
  -3   3 -15    5.46   57.20
  -3  -3 -15   -2.31   52.11
  -3   3 -15   14.22   28.10
   3   3  15  -40.21   35.69
   3  -3  15   -2.47   60.12
   3   3  15   52.44   57.10
   3   3  15  -57.78   58.73
  -4  -3 -15  107.44   64.58
  -3   4 -15   99.49   68.79
  -4  -3 -15  120.72   38.84
   4   3  15  195.95   62.12
   3  -4  15  156.23   75.41
   4   3  15   93.67   37.09
  -2   4 -15  631.19  148.42
  -4  -2 -15  432.76  147.73
  -4  -2 -15  566.32  126.71
   4   2  15  396.91  120.00
   4   2  15  561.71  145.41
   2  -4  15  463.20  154.82
  -1   4 -15  201.07   79.20
  -4  -1 -15  102.33   41.04
  -4  -1 -15  104.31   64.54
   4   1  15  142.27   61.07
   1  -4  15  211.76   95.28
   4   1  15  119.46   41.94
  -4   0 -15  -25.16   23.86
   0   4 -15  -61.67   73.06
   0  -4 -15   20.00   33.13
  -4   0 -15  -40.63   54.75
   4   0  15    3.91   50.60
   0  -4  15    4.10   92.06
   0   4  15   -6.96   60.47
  -4   1 -15  155.57   66.56
  -4   1 -15  141.77   46.97
  -1  -4 -15  197.31   49.27
   4  -1  15  153.49   69.75
   1   4  15  249.50   79.66
  -2  -4 -15  517.19  143.33
  -2  -4 -15  700.04  160.84
  -4   2 -15  625.63  134.25
  -4   2 -15  528.52  154.15
   4  -2  15  616.36  154.57
   2   4  15  595.55  171.76
  -4   3 -15   42.76   72.39
  -3  -4 -15  166.60   65.83
  -4   3 -15  120.76   42.46
  -3  -4 -15  163.76   40.55
   3   4  15  188.70   71.64
   4  -3  15  137.54   69.23
  -4  -4 -15   -1.56   24.06
  -4   4 -15    5.59   64.09
  -4  -4 -15   25.63   52.79
   4   4  15    8.65   20.38
   4  -4  15    9.86   64.43
   4   4  15   -1.76   52.44
  -5  -4 -15  143.29   52.76
  -5  -4 -15  296.89   73.15
  -4   5 -15  155.71   52.26
  -4   5 -15   99.40   79.60
   5   4  15  163.73   47.62
   4  -5  15  165.13   79.75
   5   4  15  271.05   70.53
  -3   5 -15  104.00   73.82
  -5  -3 -15   75.76   36.61
  -5  -3 -15  110.97   58.94
  -3   5 -15   48.86   38.64
   3  -5  15  110.23   78.97
   5   3  15  143.44   55.37
   5   3  15   90.81   33.84
  -5  -2 -15  178.51   71.54
  -2   5 -15  191.22   79.60
  -5  -2 -15  221.84   52.04
  -2   5 -15  150.93   51.26
   5   2  15  177.91   48.83
   2  -5  15  148.12   91.66
   5   2  15  226.32   68.79
  -5  -1 -15  329.98   70.99
  -5  -1 -15  275.67   90.23
  -1   5 -15  339.80   70.32
  -1   5 -15  222.49  104.00
   1  -5  15  324.99  115.26
   5   1  15  298.10   86.29
   5   1  15  204.68   66.98
  -5   0 -15  321.33   78.43
   0   5 -15   94.30   89.46
   0   5 -15  147.76   60.63
  -5   0 -15  213.30   56.19
   0  -5 -15  166.53   63.64
   0  -5  15   85.91  111.07
   0   5  15  249.85   92.84
   5   0  15  275.66   75.02
   5   0  15  237.20   56.18
  -1  -5 -15  166.24   72.38
  -5   1 -15  297.58   67.27
  -5   1 -15  302.85   86.97
   5  -1  15  319.90   66.47
   5  -1  15  260.87   85.17
   1   5  15  171.95  109.46
  -5   2 -15  152.09   51.65
  -2  -5 -15   80.14   49.45
  -2  -5 -15  309.02   61.90
  -5   2 -15  153.53   78.26
   5  -2  15  171.59   74.77
   2   5  15  283.68   99.64
   2   5  15  358.48   63.47
   5  -2  15  137.00   50.37
  -5   3 -15   72.85   64.39
  -3  -5 -15  176.21   48.88
  -5   3 -15  132.01   42.54
  -3  -5 -15   66.98   34.68
  -3  -5 -15  144.02   46.60
  -3  -5 -15  331.39   62.83
   3   5  15   95.46   32.21
   3   5  15   53.55   70.94
   3   5  15   52.06   85.21
   5  -3  15  171.33   42.33
   3   5  15   72.42   49.26
   5  -3  15  129.08   63.39
  -4  -5 -15  158.07   52.79
  -4  -5 -15  205.34   77.49
  -5   4 -15  248.38   81.44
   4   5  15  185.32   88.32
   5  -4  15  237.28   81.78
   4   5  15  192.87   48.24
   4   5  15  241.52   73.78
   4   5  15  142.75   60.39
  -5   5 -15   32.66   74.76
  -5  -5 -15   83.16   53.40
  -5  -5 -15    9.67   30.64
  -5   5 -15   37.24   32.29
   5  -5  15  -10.39   71.38
   5  -5  15   51.86   39.93
  -5   6 -15  417.02  116.02
  -6  -5 -15  313.27  104.48
  -6  -5 -15  426.41  116.00
  -5   6 -15  316.91   93.71
   5  -6  15  451.94   96.25
   5  -6  15  380.24  125.36
  -4   6 -15  221.27   75.53
  -6  -4 -15  436.39   98.04
  -4   6 -15  282.43  100.17
  -6  -4 -15  171.10   81.32
   4  -6  15  219.24  107.89
   6   4  15  296.16   72.05
   6   4  15  442.91   94.23
  -3   6 -15  235.60   61.07
  -3   6 -15  167.71   89.53
  -6  -3 -15  143.68   66.02
  -6  -3 -15  222.86   82.92
   3  -6  15  255.47   98.54
   6   3  15  178.85   58.03
   6   3  15  268.23   80.42
  -2   6 -15  481.51  119.30
  -6  -2 -15  629.28  148.79
  -6  -2 -15  407.86  129.10
  -2   6 -15  373.78  150.68
   6   2  15  602.93  121.86
   6   2  15  463.30  151.78
   2  -6  15  578.42  164.92
  -6  -1 -15  289.08   82.39
  -6  -1 -15  181.11   63.43
  -1   6 -15  324.39   98.57
  -1   6 -15  177.64   62.50
   1  -6  15  220.02  117.29
   6   1  15  262.74   81.00
  -1   6  15  145.78   98.14
   6   1  15  249.09   61.23
   0   6 -15   14.53   42.73
  -6   0 -15   12.25   57.74
  -6   0 -15   30.30   33.13
   0   6 -15   11.81   75.99
   6   0  15   36.65   54.13
   0   6  15   13.80   80.26
   6   0  15   47.42   31.63
   0  -6  15   22.66  106.33
  -6   1 -15  265.24   67.60
  -1  -6 -15  280.05   80.51
  -6   1 -15  406.37   86.06
   6  -1  15  175.74   64.48
   6  -1  15  249.61   87.28
   1   6  15  156.80   78.86
   1   6  15  252.17  118.92
  -6   2 -15  526.36  149.94
  -2  -6 -15  592.88  139.61
  -6   2 -15  592.83  130.18
   6  -2  15  688.53  154.06
   6  -2  15  487.99  129.13
   2   6  15  426.07  182.48
   2   6  15  448.62  134.93
  -6   3 -15  232.16   70.79
  -3  -6 -15  290.88   77.28
  -6   3 -15  349.59   96.01
  -3  -6 -15  176.77   78.23
   3   6  15  316.67   78.11
   6  -3  15  279.18   72.17
   3   6  15  283.81  116.63
   6  -3  15  406.88   96.18
  -6   4 -15  425.23  103.94
  -4  -6 -15  294.64   87.20
  -4  -6 -15  339.73   90.07
   4   6  15  349.80  114.81
   6  -4  15  319.08  106.10
   4   6  15  412.91   87.68
   6  -4  15  244.73   82.51
  -6   5 -15  358.46  111.43
  -6   5 -15  272.88   90.20
   6  -5  15  427.63   91.94
   6  -5  15  341.28  119.48
  -6   6 -15 -209.83   95.03
  -6   6 -15  -50.76   44.61
   6  -6  15   29.18   45.82
   6  -6  15 -167.19   88.38
  -6   7 -15  161.06   89.40
  -6   7 -15  109.91   52.47
   6  -7  15  190.55   94.47
   6  -7  15   44.82   58.44
  -5   7 -15  -11.30   39.87
  -5   7 -15 -118.07   81.93
   5  -7  15   32.38   46.88
   5  -7  15    3.00   83.56
  -7  -4 -15  200.83   68.41
  -4   7 -15  177.37   91.77
  -4   7 -15  225.70   60.59
  -7  -4 -15  153.31   77.61
   7   4  15  282.86   57.09
   4  -7  15  199.65   66.86
   4  -7  15  200.24  101.08
  -3   7 -15  194.63   83.46
  -7  -3 -15  179.02   58.53
  -3   7 -15   93.15   50.53
  -7  -3 -15  166.23   68.16
   3  -7  15  166.77   96.37
   7   3  15  173.15   48.16
  -2   7 -15  627.02  154.84
  -2   7 -15  633.42  190.92
  -7  -2 -15  794.61  188.21
  -7  -2 -15  701.62  175.91
   7   2  15  654.44  161.39
   2  -7  15  519.10  210.96
  -1   7 -15   85.10   78.40
  -7  -1 -15   53.20   36.98
  -7  -1 -15   14.43   56.88
  -1   7 -15   80.94   41.30
   7   1  15   44.78   33.58
  -1   7  15   23.48   90.05
   1  -7  15    8.22  105.29
   0  -7 -15  201.75  100.46
   0   7 -15  226.35  120.70
  -7   0 -15  335.99   88.25
  -7   0 -15  459.92  102.23
   0   7 -15  386.83   84.60
   7   0  15  347.46   82.70
   0   7  15  335.49  134.90
   0  -7  15  187.34  146.31
  -1  -7 -15   42.90   55.97
  -7   1 -15  100.72   64.41
  -7   1 -15  102.61   43.10
   1   7  15   63.16  105.40
   1   7  15   57.18   55.88
   7  -1  15   95.06   39.04
  -7   2 -15  859.30  174.10
  -2  -7 -15  793.30  182.78
  -7   2 -15  790.54  191.90
   2   7  15  817.21  238.92
   2   7  15  472.10  177.16
   7  -2  15  738.66  171.00
  -7   3 -15  165.89   79.05
  -3  -7 -15  206.78   68.12
  -3  -7 -15  131.06   61.59
  -7   3 -15  116.13   55.88
   3   7  15  125.43  113.73
   3   7  15  134.11   62.77
   7  -3  15  207.42   54.17
  -7   4 -15   93.37   55.86
  -4  -7 -15  133.15   73.01
  -7   4 -15  -33.11   98.59
  -4  -7 -15  207.70   68.62
   4   7  15  303.64  104.18
   7  -4  15  146.29   91.83
   7  -4  15  180.90   58.74
   4   7  15  198.81   67.30
  -7   5 -15   -3.15   45.31
  -7   5 -15 -255.78   86.17
   5   7  15   -8.13   97.28
   5   7  15   -4.36   58.83
  -7   6 -15   89.18   53.64
  -7   6 -15   81.10   85.05
   7  -6  15   51.49   91.74
   7  -6  15  164.05   55.89
  -7   7 -15  260.18   55.44
  -7   7 -15 -170.04   86.15
   7  -7  15  130.42   53.80
   7  -7  15    6.54   95.61
  -6   8 -15    3.61   91.26
  -6   8 -15  102.40   52.13
   6  -8  15   -3.35   93.22
   6  -8  15  129.01   52.75
  -5   8 -15  422.52  126.10
  -5   8 -15  482.11   96.47
   5  -8  15   52.66  137.43
   5  -8  15  392.28   99.66
  -4   8 -15   43.71   40.92
  -8  -4 -15   -7.00   58.85
  -4   8 -15  148.83   85.06
   4  -8  15   23.74   49.72
   4  -8  15    9.97   88.31
  -8  -3 -15  719.69  181.71
  -3   8 -15  830.89  156.01
  -3   8 -15  568.89  184.46
   8   3  15  584.51  160.34
   3  -8  15  692.40  200.54
  -8  -2 -15  121.98   64.89
  -2   8 -15   69.69   44.53
  -2   8 -15  123.60   87.45
  -8  -2 -15   94.21   50.52
   8   2  15  128.48   42.92
   2  -8  15  150.67  105.55
  -1   8 -15  650.01  170.80
  -8  -1 -15  548.75  153.05
  -1   8 -15  634.04  131.21
  -8  -1 -15  557.39  144.61
   8   1  15  545.12  134.89
   1  -8  15  670.63  197.32
  -1   8  15  392.50  186.02
   0  -8 -15   19.38   61.99
  -8   0 -15  -51.69   63.21
   0   8 -15   -9.07   41.40
  -8   0 -15    3.29   45.70
   8   0  15  -14.00   34.36
   0   8  15  -40.29  106.39
   0  -8  15  -56.30  123.38
   0   8  15   47.78   61.05
  -1  -8 -15  469.68  142.32
  -8   1 -15  671.06  145.11
  -8   1 -15  551.21  132.61
   1   8  15  386.38  192.52
   1   8  15  371.40  134.00
   8  -1  15  518.09  126.40
  -2  -8 -15  125.91   63.76
  -8   2 -15  153.75   52.51
  -8   2 -15   47.57   70.25
   2   8  15   64.63   62.55
   2   8  15  -26.15  134.64
   8  -2  15   80.22   46.19
  -3  -8 -15  561.76  159.02
  -8   3 -15  673.73  150.91
  -8   3 -15  588.37  166.30
  -3  -8 -15  269.22  164.50
   3   8  15  663.57  153.87
   3   8  15  743.30  210.85
   8  -3  15  582.80  146.12
  -4  -8 -15    5.59   64.94
  -8   4 -15   31.17   48.32
  -8   4 -15  -18.56   73.38
  -4  -8 -15  105.00   56.22
   4   8  15   61.14  108.16
   8  -4  15    3.31   41.46
   4   8  15   70.22   61.06
  -5  -8 -15  326.70  119.66
  -5  -8 -15  322.92  105.96
  -8   5 -15  282.23  118.42
   5   8  15  374.84  146.32
   5   8  15  450.48  112.31
  -8   6 -15  -98.77   86.84
   8  -6  15    3.21   84.07
  -8   8 -15    4.13   51.72
  -8   8 -15   -4.01   85.28
   8  -8  15 -166.38   58.62
  -8   9 -15 -223.79  111.50
  -8   9 -15   26.09   66.53
   8  -9  15    4.41   55.94
   8  -9  15 -156.44  122.06
  -7   9 -15  111.01   62.55
   7  -9  15 -121.43   55.82
   6  -9  15   -3.64  104.26
  -5   9 -15  174.58   94.77
  -5   9 -15   65.97   48.42
   5  -9  15  123.64   57.33
   5  -9  15   66.85   97.68
  -9  -4 -15  360.57  114.30
  -4   9 -15  378.33   96.88
  -4   9 -15  368.56  130.50
   4  -9  15  224.10  140.91
   4  -9  15  481.00  101.76
  -9  -3 -15    2.47   60.18
  -3   9 -15   35.23   41.53
  -3   9 -15   14.28   85.41
   3  -9  15   19.29  106.66
  -2   9 -15  424.76  153.67
  -2   9 -15  455.96  113.34
  -9  -2 -15  463.85  135.43
   2  -9  15  309.23  177.34
   1  -9 -15   19.03   64.16
  -9  -1 -15   39.36   60.56
  -1   9 -15  -28.35   93.98
  -1   9 -15   -8.41   41.81
   1  -9  15  -19.07  125.83
  -1   9  15   86.56  110.19
  -9   0 -15  156.82   66.32
   0  -9 -15   66.39   70.15
   0   9 -15  -27.85   46.76
   9   0  15  115.06   41.50
   0  -9  15   38.35  133.23
   0   9  15   76.83  124.23
   0   9  15   88.88   64.72
  -1  -9 -15  -46.77   68.62
  -9   1 -15  -19.21   50.71
  -9   1 -15  -50.45   67.30
   9  -1  15  -12.85   37.65
   1   9  15   18.92   62.52
   1   9  15  -46.90  132.88
  -2  -9 -15  467.09  144.14
  -9   2 -15  625.01  139.32
  -9   2 -15  479.24  147.70
   2   9  15  517.74  209.48
   2   9  15  577.46  139.35
   9  -2  15  599.76  132.72
  -3  -9 -15   -4.56   70.21
  -9   3 -15  -36.91   68.58
  -9   3 -15  -39.42   54.39
  -3  -9 -15  -18.23   68.00
   3   9  15   25.89   63.33
   9  -3  15  -13.96   46.11
   3   9  15   -3.52  125.99
  -4  -9 -15  269.06  113.35
  -4  -9 -15  368.12  118.54
  -9   4 -15  236.22  114.89
   4   9  15  473.15  109.43
   4   9  15  387.07  158.28
  -5  -9 -15  108.18   73.55
  -5  -9 -15  147.07   91.26
   5   9  15   81.27   77.94
   5   9  15    3.44  124.57
  -9   6 -15   77.20   55.70
   9  -6  15    8.05   55.34
  -9   7 -15   -4.47   60.77
  -9   7 -15  -27.29   93.60
   9  -7  15   55.27   56.00
  -9   8 -15    4.68   65.46
  -9   8 -15  -16.86  109.53
   9  -8  15 -160.26  114.23
   9  -8  15 -121.48   63.78
  -9   9 -15   -4.91   69.93
  -9   9 -15   -4.53  108.29
   9  -9  15   90.55   68.20
   9  -9  15    4.18  116.85
  -9  10 -15   66.97   75.22
  -9  10 -15    4.80  113.59
   9 -10  15  -35.72   69.06
   9 -10  15   90.59  128.67
  -8  10 -15  -42.31   66.97
  -8  10 -15 -119.50  109.89
   8 -10  15   -4.67   61.52
   8 -10  15  -30.02  121.61
  -7  10 -15   25.48  105.67
  -7  10 -15  -25.06   64.39
   7 -10  15   28.68  114.49
   7 -10  15    4.29   57.39
   6 -10  15   -4.14   56.72
  -5  10 -15   -3.81   95.04
   5 -10  15   88.06  107.72
  -4  10 -15   18.80   43.58
  -4  10 -15  -18.57   91.06
   4 -10  15   50.69  106.74
   4 -10  15    7.47   50.97
  -3  10 -15  698.46  174.67
  -3  10 -15  639.78  147.54
   3 -10  15  819.76  198.61
  -2  10 -15   28.58   42.38
  -2  10 -15   23.90   91.57
   2 -10  15   -9.02  118.42
  -2  10  15   54.61  121.33
  -1  10 -15  -12.70   90.97
  -1  10 -15   93.65   47.15
   1 -10 -15   94.39   74.32
  -1  10  15    3.78  127.31
   1 -10  15  -46.53  135.02
  -1  10  15   75.12   74.19
   0  10 -15    6.40   44.07
   0 -10 -15   53.04   75.88
   0  10  15  -31.71   67.83
   0  10  15  132.61  141.75
  -1 -10 -15   27.68   69.03
 -10   1 -15  -67.69   71.60
   1  10  15  -32.15   67.79
   1  10  15   36.11  144.57
 -10   2 -15    6.12   73.44
  -2 -10 -15  -43.98   72.75
   2  10  15  145.88  151.92
   2  10  15   22.88   66.30
  -3 -10 -15  237.96  116.85
  -3 -10 -15  302.68  123.93
   3  10  15  214.46  106.65
   3  10  15   50.96  176.95
  -4 -10 -15   11.30   89.39
  -4 -10 -15    5.18   76.01
   4  10  15   18.63  137.27
   4  10  15   27.61   74.64
  10  -4  15 -123.19   50.73
  -5 -10 -15  -12.40  100.66
 -10   5 -15  112.48   84.75
  -5 -10 -15   58.76   78.69
   5  10  15   -7.76  139.14
   5  10  15  149.11   86.91
 -10   6 -15   54.00   95.51
 -10   6 -15    4.80   60.77
   6  10  15  -21.72  100.56
  10  -6  15    4.37   50.12
   6  10  15   12.17  145.41
 -10   7 -15 -213.39  100.11
 -10   7 -15    4.99   68.99
  10  -7  15 -170.36   63.87
 -10   8 -15    5.20   67.41
 -10   8 -15   74.70  108.66
  10  -8  15   43.74   60.76
 -10   9 -15    4.75  113.20
 -10   9 -15    5.43   75.00
  10  -9  15   41.10   66.43
 -10  10 -15   39.85   78.52
 -10  10 -15 -167.81  127.21
  10 -10  15    5.42   71.18
  10 -10  15  -80.93  134.38
 -10  11 -15   11.94   81.38
 -10  11 -15    5.43  127.05
  10 -11  15  103.43   75.82
  10 -11  15 -154.21  152.46
  -9  11 -15 -118.06  126.78
  -9  11 -15   -5.50   83.30
   9 -11  15    4.90  140.18
   9 -11  15 -118.61   71.31
  -8  11 -15  331.86  130.93
  -8  11 -15   -4.95   69.26
   8 -11  15  -83.80   72.66
   8 -11  15   96.70  135.12
  -7  11 -15  -57.20   70.60
  -7  11 -15   39.99  118.43
   7 -11  15   26.66  129.95
   7 -11  15  -68.46   67.28
  -6  11 -15   -3.99   60.03
  -6  11 -15   83.71  101.81
   6 -11  15    4.37   59.76
   6 -11  15   25.44  118.82
   5 -11  15   -4.12   61.86
  -3  11 -15  141.51   48.71
  -3  11 -15    3.94   93.95
   3 -11  15    4.49  127.10
  -2  11 -15  -57.61   98.76
  -2  11 -15    3.01   43.51
   2 -11  15   24.53  124.21
  -1  11 -15 -101.98   98.65
   1 -11 -15   66.70   85.94
  -1  11 -15   45.95   47.50
  -1  11  15   61.87   74.71
   1 -11  15    5.57  145.26
   0 -11 -15  125.33   98.13
   0  11 -15  150.36   63.47
   0  11  15   51.47   85.62
  -1 -11 -15   34.84   80.50
   1  11  15   -4.44  156.30
   1  11  15   -3.25   72.95
  -2 -11 -15   26.95   82.91
  -2 -11 -15  -73.11   94.81
   2  11  15  -48.25   76.55
   2  11  15  195.08  168.57
  -3 -11 -15    4.01   96.76
  -3 -11 -15    5.93   88.92
   3  11  15 -139.08  161.40
   3  11  15    3.32   80.25
  -4 -11 -15   21.61  105.69
  -4 -11 -15  -17.67   93.16
   4  11  15   -3.49   85.90
   4  11  15 -338.55  163.73
  -5 -11 -15   -6.05   89.90
  -5 -11 -15  -23.43  114.74
   5  11  15 -112.10  104.53
   5  11  15 -356.68  179.59
  -6 -11 -15   61.88  124.82
  -6 -11 -15  175.42   92.80
   6  11  15   36.38  106.95
 -11   9 -15 -104.84  111.07
 -11  10 -15  -26.75  127.31
 -11  11 -15   51.91  143.28
  11 -11  15   96.97  188.88
 -11  12 -15   18.42  144.36
  11 -12  15   86.86  174.88
 -10  12 -15  185.18  146.25
  10 -12  15 -109.08   77.83
  10 -12  15   83.24  172.08
  -9  12 -15    5.43  134.25
  -9  12 -15   -5.77   82.25
   9 -12  15   90.93   80.28
   9 -12  15  304.54  158.25
  -8  12 -15  -20.84   77.20
  -8  12 -15   59.92  128.25
   8 -12  15 -200.23   76.66
   8 -12  15    9.97  139.73
  -7  12 -15  190.39  119.49
  -7  12 -15   27.80   68.50
   7 -12  15    9.39  132.94
   7 -12  15 -174.96   68.75
  -6  12 -15  -43.53  103.33
  -6  12 -15  -72.90   61.50
   6 -12  15   13.81   63.22
   6 -12  15   59.58  127.61
  -5  12 -15  -27.57   58.06
  -5  12 -15 -173.60  102.73
   5 -12  15  291.24  126.28
   5 -12  15   34.90   59.94
   4 -12  15   -4.12   54.99
  -2  12 -15  -55.42  105.61
   2 -12 -15 -231.86  104.57
  -2  12  15 -110.70  156.70
   2 -12  15   42.75  156.09
  -1  12 -15  131.29   47.21
  -1  12 -15 -162.38  122.54
  -1  12  15   -3.90   72.03
   1 -12  15  -54.08  166.02
  -1  12  15 -241.48  167.45
   0  12 -15    3.35   52.79
   0  12  15 -465.73  177.01
   5  12  15    4.86  164.84
  -6 -12 -15  -35.14   97.32
   6  12  15  110.01  171.94
 -11  13 -15  -84.56  171.63
  11 -13  15  112.00  180.22
 -10  13 -15  134.17  155.31
  10 -13  15  112.60  176.40
  10 -13  15    6.37   85.39
  -9  13 -15   90.60   81.69
  -9  13 -15   39.10  130.61
   9 -13  15  -29.95   77.32
   9 -13  15  -79.20  164.68
  -8  13 -15   10.32  121.11
  -8  13 -15   39.10   81.08
   8 -13  15  -83.27   77.53
   8 -13  15  165.64  159.04
  -7  13 -15  -80.04   83.29
  -7  13 -15 -403.78  132.30
   7 -13  15 -117.80   77.91
   7 -13  15 -467.97  173.58
  -6  13 -15   31.44  107.42
  -6  13 -15  -17.95   61.97
   6 -13  15   -4.81   65.85
   6 -13  15   79.16  143.69
  -5  13 -15   59.56  101.53
  -5  13 -15  -82.18   62.29
   5 -13  15   92.66   66.46
   5 -13  15   14.47  135.19
  -4  13 -15   26.22   59.89
  -4  13 -15 -212.75  103.19
   4 -13  15 -243.84  141.37
   4 -13  15  -12.98   64.14
  -3  13 -15  -55.78   53.66
   3 -13  15  -16.90   57.41
   2 -13 -15  146.49  103.04
  -2  13  15 -234.20  174.33
   1 -13 -15  145.31  107.00
  -1  13  15    5.10  182.66
  -1  13  15 -369.05   92.91
   0 -13 -15  116.68  108.99
   0  13  15  182.43  189.59
   0  13  15   28.18   88.42
  -1 -13 -15  200.44  111.38
   1  13  15 -370.99  190.09
   1  13  15  -96.64   92.68
  -2 -13 -15    9.96  113.98
  -2 -13 -15  -15.22  113.92
   2  13  15 -401.95  198.66
   2  13  15   56.65   95.94
  -3 -13 -15   98.82  111.07
  -3 -13 -15  166.88  123.26
   3  13  15 -160.87  101.35
   3  13  15    5.24  183.88
  -4 -13 -15   91.47  112.01
  -4 -13 -15  329.37  130.59
   4  13  15   83.79  106.77
   4  13  15   67.01  183.74
  -5 -13 -15  -46.81  114.00
  -5 -13 -15   42.01  146.99
   5  13  15  167.95  113.98
   5  13  15   27.10  188.05
  -6 -13 -15   51.45  156.97
  -6 -13 -15  -31.57  113.61
   6  13  15   -5.56  184.91
   6  13  15  123.80  119.89
   7  13  15   72.68  185.53
 -11  14 -15   -6.81  165.81
  11 -14  15  198.06  191.74
  10 -14  15   19.02  184.21
   9 -14  15   75.00   83.11
   9 -14  15   -6.03  174.01
   8 -14  15  -52.41   75.53
   2 -14 -15  -31.06  113.87
  -2  14  15 -138.67  195.41
   1 -14 -15  -77.31  119.11
  -1  14  15 -172.06  102.16
  -1  14  15 -469.96  192.25
   0 -14 -15  -51.22  120.10
   0  14  15  131.36  199.13
   0  14  15   35.67   98.45
  -1 -14 -15  -49.77  117.89
  -1 -14 -15   25.63  128.54
   1  14  15  -49.45  103.88
   1  14  15 -245.81  209.24
  -2 -14 -15   17.00  128.54
  -2 -14 -15  135.70  129.03
   2  14  15 -212.18  206.81
   2  14  15   18.11  103.17
  -3 -14 -15 -195.10  137.14
  -3 -14 -15 -119.22  132.07
   3  14  15   -4.75  112.66
   3  14  15    5.66  205.06
  -4 -14 -15  195.48  155.21
  -4 -14 -15   77.59  132.36
   4  14  15  256.02  128.20
   4  14  15  195.43  211.30
  -5 -14 -15 -335.28  150.08
  -5 -14 -15   35.06  123.35
   5  14  15  139.36  209.23
   5  14  15   93.27  124.63
  -6 -14 -15  479.81  172.02
  -6 -14 -15   26.62  121.68
   6  14  15  464.75  207.34
   6  14  15 -300.25  132.04
   7  14  15  -97.25  138.43
   7  14  15  389.58  199.88
   2 -15 -15   27.57  131.62
  -2  15  15   15.72  103.71
  -2  15  15   42.53  208.39
   1 -15 -15    6.66  129.45
  -1  15  15   41.03  108.54
  -1  15  15   67.35  216.04
   0 -15 -15   76.96  132.06
   0  15  15   69.39  109.24
   0  15  15  -49.40  215.54
  -1 -15 -15  291.94  154.76
  -1 -15 -15  -56.76  136.48
   1  15  15 -104.83  215.67
   1  15  15   35.15  111.80
  -2 -15 -15   -9.47  146.85
  -2 -15 -15    6.41  141.91
   2  15  15  -68.33  216.10
   2  15  15  243.02  114.51
  -3 -15 -15   28.82  139.49
  -3 -15 -15 -119.88  150.17
   3  15  15   36.96  214.36
   3  15  15  153.45  123.93
  -4 -15 -15   -9.72  156.58
  -4 -15 -15  163.00  158.28
   4  15  15   66.21  132.29
   4  15  15  319.46  217.18
  -5 -15 -15   59.05  137.06
  -5 -15 -15   52.43  175.29
   5  15  15  214.32  229.37
   5  15  15   80.15  135.82
  -6 -15 -15  -47.29  184.30
  -6 -15 -15  -49.98  128.62
   6  15  15   68.40  222.80
   6  15  15    5.99  139.72
   7  15  15   88.84  212.78
   7  15  15   31.12  146.22
  -3  16  15  650.64  262.48
   2 -16 -15  -61.51  142.32
  -2  16  15 -365.68  228.34
  -2  16  15  -23.06  118.55
   1 -16 -15  156.88  156.47
  -1  16  15  136.41  127.00
  -1  16  15  464.67  239.25
   0 -16 -15  101.33  149.86
   0 -16 -15  114.58  160.74
   0  16  15   99.45  121.57
   0  16  15   73.06  236.49
  -1 -16 -15  104.59  178.91
  -1 -16 -15  407.40  167.15
   1  16  15 -179.96  238.71
   1  16  15  403.68  135.19
  -2 -16 -15  -42.07  159.96
  -2 -16 -15  173.95  157.53
   2  16  15 -126.05  126.06
   2  16  15 -382.63  237.04
  -3 -16 -15   96.10  154.35
  -3 -16 -15  165.28  172.60
   3  16  15  125.88  228.89
   3  16  15   35.25  139.41
  -4 -16 -15   44.07  159.10
  -4 -16 -15   55.30  178.24
   4  16  15 -261.01  228.41
   4  16  15   55.16  141.41
  -5 -16 -15 -749.61  226.15
  -5 -16 -15 -121.37  193.74
  -6 -16 -15  -69.79  207.96
  -6 -16 -15  157.27  157.28
  -7 -16 -15   81.76  217.18
  -7 -16 -15  -11.22  150.65
   7  16  15  120.81  228.09
   7  16  15 -330.39  160.56
  -3  17  15 -448.30  259.53
   1 -17 -15 -556.69  193.05
  -1  17  15 -278.28  162.52
  -1  17  15 -122.93  279.56
   0 -17 -15  155.97  201.05
   0 -17 -15  114.68  200.65
   0  17  15  678.25  173.89
   0  17  15  444.25  288.10
  -1 -17 -15 -267.53  199.93
  -1 -17 -15   81.14  199.88
   1  17  15 -543.30  162.37
   1  17  15 -879.98  294.97
  -2 -17 -15  -40.94  196.77
  -2 -17 -15 -188.29  187.64
  -3 -17 -15   59.15  190.88
  -3 -17 -15 -252.70  194.78
   3  17  15 -394.88  256.38
   3  17  15 -204.31  151.96
  -4 -17 -15 -282.03  209.95
  -4 -17 -15   24.69  173.63
   4  17  15   74.54  158.10
   4  17  15  -78.07  257.83
  -5 -17 -15 -124.56  184.55
  -5 -17 -15  285.97  219.41
   5  17  15   69.55  157.51
   5  17  15   57.12  270.35
  -6 -17 -15 -214.40  182.99
  -6 -17 -15 -172.28  210.73
   6  17  15  124.33  273.14
   6  17  15  271.91  167.96
  -7 -17 -15    9.88  237.96
  -7 -17 -15  150.52  173.24
   7  17  15  -44.13  173.73
   7  17  15  325.13  267.40
  -3  18  15    8.06  274.42
   2 -18 -15 -330.35  184.00
  -2  18  15   -7.91  272.83
  -2  18  15 -120.68  145.72
   1 -18 -15  -38.09  202.46
   1 -18 -15 -220.82  188.63
  -1  18  15   63.57  149.11
  -1  18  15  288.61  277.33
   0 -18 -15   -9.30  186.63
   0 -18 -15  114.49  210.85
   0  18  15  -77.91  148.79
   0  18  15  -85.17  269.82
  -1 -18 -15  205.38  211.21
  -1 -18 -15  303.63  199.25
   1  18  15  435.41  280.41
   1  18  15   69.59  157.18
  -2 -18 -15  166.49  202.50
  -2 -18 -15  237.29  207.10
   2  18  15    7.09  158.27
   2  18  15 -535.78  277.13
  -3 -18 -15 -161.34  214.91
  -3 -18 -15  -13.49  208.00
   3  18  15   -7.29  163.28
   3  18  15  -97.18  275.98
  -4 -18 -15   55.62  200.61
  -4 -18 -15 -166.73  221.10
   4  18  15 -299.59  294.42
   4  18  15  248.36  174.52
  -5 -18 -15 -214.37  234.16
  -5 -18 -15   97.31  185.09
   5  18  15  330.73  301.29
   5  18  15  -76.96  178.72
  -6 -18 -15  228.07  206.77
  -6 -18 -15   52.63  241.90
   6  18  15  109.77  182.60
   6  18  15   -9.09  288.29
  -7 -18 -15  350.63  184.67
  -7 -18 -15 -552.03  251.69
   7  18  15 -574.51  192.16
   7  18  15    9.19  264.64
   0   0 -16 3191.02  752.16
  -1   0 -16   38.06   63.11
   0  -1 -16   -5.48   33.73
   0   1 -16    2.85   36.91
  -1   0 -16   -9.13   30.45
   1   0  16    6.90   78.38
  -1  -1 -16  939.40  266.92
  -1   1 -16  575.02  265.21
  -1  -1 -16 1160.81  239.93
   1  -1  16 1146.37  281.16
   1   1  16 1140.30  285.22
  -1   2 -16   43.57   33.56
  -1   2 -16   13.32   72.75
  -2  -1 -16   52.57   34.01
  -2  -1 -16   -5.86   66.05
   1  -2  16  167.10   84.20
   2   1  16  134.08   75.53
  -2   0 -16   83.74   38.33
   0  -2 -16   39.72   44.82
  -2   0 -16  157.80   67.74
   0   2 -16  186.58   45.58
   0  -2  16  132.37  101.28
   2   0  16   94.74   77.68
  -2   1 -16   88.85   34.66
  -2   1 -16   39.33   70.39
  -1  -2 -16   80.97   35.07
   1   2  16   84.95   52.09
   2  -1  16   52.83   75.06
   1   2  16  100.11   84.17
  -2   2 -16   89.63   41.37
  -2  -2 -16  115.31   40.34
  -2  -2 -16  172.88   71.64
  -2   2 -16  114.54   75.52
   2  -2  16  178.58   82.82
   2   2  16  173.06   78.66
  -2   3 -16  907.31  182.19
  -3  -2 -16  781.15  197.13
  -2   3 -16  734.87  217.28
  -3  -2 -16  801.14  224.25
   2  -3  16  644.93  226.02
   3   2  16  856.91  225.00
  -3  -1 -16   77.22   61.80
  -1   3 -16   32.23   34.74
  -3  -1 -16   46.25   29.31
  -1   3 -16   20.56   69.30
   1  -3  16  -29.33   90.17
   3   1  16    4.88   62.19
   0  -3 -16   17.77   32.93
  -3   0 -16  -13.57   25.83
  -3   0 -16  -19.04   63.55
   0   3 -16    2.93   40.27
   0  -3  16  -21.25  100.78
   3   0  16  -17.14   62.76
  -3   1 -16   42.00   62.90
  -1  -3 -16   69.18   33.98
  -3   1 -16   66.67   29.45
   3  -1  16   -5.07   66.31
  -2  -3 -16  784.52  226.61
  -2  -3 -16 1004.60  204.35
  -3   2 -16  694.34  217.43
   3  -2  16  563.90  220.86
   2   3  16 1105.69  253.10
   2   3  16  782.03  238.45
  -3   3 -16  113.16   79.16
  -3   3 -16  144.10   44.60
  -3  -3 -16  158.37   45.23
  -3  -3 -16  194.61   76.58
   3  -3  16  110.18   79.70
   3   3  16  180.64   74.96
  -3   4 -16   52.49   70.08
  -4  -3 -16  -13.73   26.91
  -4  -3 -16  -17.02   56.71
   4   3  16   78.42   57.32
   3  -4  16   -2.90   75.81
   4   3  16   42.07   23.24
  -4  -2 -16   32.39   60.75
  -2   4 -16   46.09   69.99
  -4  -2 -16   35.73   27.83
   4   2  16   21.54   27.30
   2  -4  16   23.01   82.80
   4   2  16   10.41   59.37
  -1   4 -16  332.48  131.28
  -4  -1 -16  449.08  123.95
  -4  -1 -16  369.06  104.26
   1  -4  16  580.48  146.45
   4   1  16  489.94  122.94
   0  -4 -16   70.68   40.72
  -4   0 -16  109.45   34.08
  -4   0 -16   78.58   65.48
   0  -4  16  154.24  107.56
   4   0  16   87.48   62.46
   0   4  16  147.54   68.10
  -4   1 -16  305.55  100.49
  -4   1 -16  550.71  122.73
  -1  -4 -16  446.04  110.91
   1   4  16  442.59  138.40
   4  -1  16  430.82  123.11
  -4   2 -16  -19.53   64.24
  -2  -4 -16   70.40   58.65
  -4   2 -16  -14.76   28.92
  -2  -4 -16   -1.62   23.72
   4  -2  16   45.57   62.40
   2   4  16  -95.07   76.95
  -3  -4 -16  -63.35   58.77
  -3  -4 -16  -19.44   23.24
  -4   3 -16   17.38   65.49
  -4   3 -16  -17.61   29.05
   3   4  16  -26.61   70.19
   4  -3  16  -41.18   66.28
  -4  -4 -16  -78.28   62.32
  -4   4 -16   15.09   66.91
  -4  -4 -16   36.01   25.49
   4   4  16   21.93   21.89
   4   4  16   66.44   59.66
   4  -4  16   46.12   66.07
  -5  -4 -16   25.48   64.99
  -4   5 -16   70.89   37.80
  -5  -4 -16   42.30   30.14
  -4   5 -16   88.27   71.61
   5   4  16   29.28   57.16
   5   4  16   77.66   28.35
   4  -5  16  134.90   78.10
  -5  -3 -16   25.49   27.37
  -3   5 -16  102.36   74.23
  -5  -3 -16   33.30   56.45
  -3   5 -16    2.37   28.80
   5   3  16   -5.45   25.27
   3  -5  16  -45.87   80.20
   5   3  16   65.01   54.65
  -5  -2 -16  654.63  200.46
  -2   5 -16  932.87  199.79
  -2   5 -16  806.93  165.51
  -5  -2 -16  798.30  178.17
   5   2  16  621.61  199.12
   5   2  16  577.95  168.70
   2  -5  16  864.77  213.06
  -1   5 -16   -7.85   36.83
  -5  -1 -16    8.17   27.15
  -1   5 -16  -10.99   81.86
  -5  -1 -16   -2.52   60.60
   5   1  16   16.76   29.09
   1  -5  16  -27.94   96.99
   5   1  16   20.40   55.19
   0   5 -16   24.29   41.70
  -5   0 -16   20.77   59.15
   0  -5 -16  -35.33   35.69
  -5   0 -16   30.11   31.53
   5   0  16   25.60   54.40
   0  -5  16 -105.85  105.28
   0   5  16   27.00   70.05
   5   0  16   -4.52   29.01
  -1  -5 -16    6.97   25.57
  -5   1 -16    8.80   30.90
  -5   1 -16    2.69   65.24
   1   5  16   21.56   86.18
   5  -1  16  -42.42   58.71
   5  -1  16   -9.67   33.22
  -2  -5 -16  756.31  189.47
  -2  -5 -16  714.39  195.99
  -5   2 -16  721.79  175.04
  -5   2 -16  730.10  196.07
   5  -2  16  717.71  171.74
   2   5  16 1047.55  234.31
   5  -2  16  611.47  200.12
   2   5  16  851.69  225.46
   2   5  16  765.40  190.58
  -3  -5 -16    2.76   22.62
  -5   3 -16  -26.00   69.54
  -5   3 -16   21.72   34.74
  -3  -5 -16  -19.99   62.49
   3   5  16   30.59   46.28
   5  -3  16  -16.56   34.35
   3   5  16  -41.44   84.09
   5  -3  16   -7.40   64.38
  -5   4 -16   40.41   38.60
  -5   4 -16   75.46   70.54
  -4  -5 -16   80.65   61.25
  -4  -5 -16   56.66   28.81
   5  -4  16   47.82   73.05
   5  -4  16   96.43   43.36
  -5   5 -16  100.57   42.44
  -5   5 -16   34.81   77.32
   5  -5  16   64.68   76.30
  -5   6 -16  -59.99   96.84
  -5   6 -16  152.71   48.99
   5  -6  16  184.13   96.51
   5  -6  16    3.26   50.17
  -6  -4 -16   51.93   37.49
  -4   6 -16  111.93   81.34
  -4   6 -16   43.55   38.93
  -6  -4 -16   83.60   61.52
   4  -6  16   43.65   83.97
   6   4  16   53.21   28.28
   6   4  16   93.42   56.70
  -3   6 -16  297.91   70.89
  -6  -3 -16  270.78   74.28
  -6  -3 -16  202.10   94.39
  -3   6 -16  327.12  103.92
   6   3  16  238.07   91.89
   3  -6  16  378.55  115.15
   6   3  16  250.68   66.95
  -2   6 -16  177.81   51.31
  -6  -2 -16  128.32   52.59
  -2   6 -16  121.16   87.95
  -6  -2 -16  165.22   74.12
   6   2  16  202.83   73.26
   2  -6  16  164.57  102.94
   6   2  16  131.68   46.02
  -1   6 -16  209.13  107.73
  -1   6 -16  214.05   71.98
  -6  -1 -16  272.98   94.91
  -6  -1 -16  401.14   74.66
   1  -6  16  260.71  130.94
   6   1  16  255.89   93.36
   6   1  16  233.41   68.49
  -6   0 -16  148.70   80.36
   0   6 -16  244.88   61.75
  -6   0 -16  166.28   56.71
   0   6  16  212.56   99.17
   0  -6  16  149.86  121.97
   6   0  16  204.18   54.94
   6   0  16  175.29   78.38
  -6   1 -16  250.00   93.52
  -1  -6 -16  220.69   86.67
  -6   1 -16  296.31   72.13
   6  -1  16  339.25   96.89
   6  -1  16  295.60   72.56
   1   6  16  152.52  125.79
  -6   2 -16  119.83   80.39
  -6   2 -16  121.03   55.71
  -2  -6 -16  214.57   65.07
   2   6  16  215.82   66.40
   6  -2  16  208.18   54.45
   6  -2  16  214.07   81.67
   2   6  16  175.38  113.32
  -3  -6 -16  166.71   80.86
  -6   3 -16  316.80   72.22
  -3  -6 -16  269.62   76.58
  -6   3 -16  189.30   98.44
   3   6  16  352.54   77.65
   6  -3  16  321.58   98.36
   6  -3  16  172.24   71.69
   3   6  16  252.03  118.68
  -6   4 -16   -3.14   76.58
  -6   4 -16   80.73   43.59
   6  -4  16  112.43   43.30
   6  -4  16   29.65   73.94
  -6   5 -16  160.93   98.12
   6  -5  16  299.85  104.27
  -6   6 -16  159.11   56.11
  -6   6 -16    6.86   91.34
   6  -6  16   83.69   96.75
   6  -6  16  225.28   60.69
  -6   7 -16  148.63   93.57
  -6   7 -16   46.63   48.25
   6  -7  16    3.30   94.58
   6  -7  16  104.91   54.91
  -5   7 -16   93.37   47.32
  -5   7 -16  269.90   99.03
   5  -7  16    3.27   94.11
   5  -7  16   61.48   53.62
  -4   7 -16  231.34   98.03
  -7  -4 -16  303.23   86.22
  -4   7 -16  244.69   64.40
  -7  -4 -16  187.90   70.81
   7   4  16  179.77   61.26
   4  -7  16   63.22  110.18
   7   4  16  324.50   83.69
  -7  -3 -16  306.01  100.71
  -3   7 -16  150.35  110.56
  -7  -3 -16  288.93   84.05
  -3   7 -16  216.33   73.85
   7   3  16  296.94   73.77
   7   3  16  407.06  100.57
   3  -7  16  257.86  124.48
  -2   7 -16  481.86  124.29
  -7  -2 -16  412.91  105.76
  -2   7 -16  337.58   81.90
  -7  -2 -16  227.68   90.45
   2  -7  16  318.56  134.69
   7   2  16  253.56  107.62
   7   2  16  312.47   82.23
  -7  -1 -16  232.93   85.06
  -1   7 -16  367.30   64.48
  -7  -1 -16  205.80   68.30
  -1   7 -16  102.88  102.15
   7   1  16  218.26   60.42
   1  -7  16  151.51  125.88
   7   1  16  214.99   89.15
  -1   7  16   98.89  111.53
  -7   0 -16   14.06   38.68
  -7   0 -16   16.18   64.91
   0   7 -16   18.88   46.59
   7   0  16   10.14   31.17
   7   0  16  -36.90   60.24
   0   7  16   38.36   96.97
   0  -7  16  -56.19  117.85
  -7   1 -16  189.72   87.19
  -1  -7 -16  227.77   80.32
  -7   1 -16  255.49   68.37
   1   7  16  285.58  130.78
   7  -1  16  238.14   91.25
   7  -1  16  274.80   66.54
   1   7  16  151.61   80.71
  -2  -7 -16  241.09   97.85
  -7   2 -16  383.02   87.94
  -7   2 -16  292.41  109.80
   2   7  16  419.39  150.43
   7  -2  16  307.56   85.78
   7  -2  16  422.61  112.26
   2   7  16  305.04   93.65
  -7   3 -16  319.67   82.92
  -3  -7 -16  329.09   89.80
  -7   3 -16  243.96  110.53
  -3  -7 -16  284.41   93.98
   7  -3  16  536.21  115.31
   7  -3  16  239.25   81.40
   3   7  16  250.53   88.36
   3   7  16  221.65  139.94
  -7   4 -16  175.74   89.72
  -7   4 -16  222.60   66.23
   7  -4  16  234.64   64.59
   4   7  16  133.18  111.95
   7  -4  16  106.97   98.39
  -7   5 -16   85.06   87.53
   7  -5  16    6.04   88.01
  -7   6 -16  177.72   51.15
  -7   6 -16  107.68   90.48
   7  -6  16   -3.61   53.17
   7  -6  16   -3.21   94.38
  -7   8 -16    3.84   56.90
   7  -8  16   -4.05   50.33
  -5   8 -16  136.33   86.43
  -5   8 -16    3.16   43.64
   5  -8  16  -49.91   98.46
   5  -8  16   36.13   49.00
  -4   8 -16  278.33  112.07
  -8  -4 -16  249.20   92.29
  -4   8 -16  232.34   70.37
   4  -8  16    7.27  117.78
   4  -8  16  376.65   79.63
  -8  -3 -16  167.85   71.94
  -3   8 -16   71.19   46.23
  -3   8 -16  105.89   86.20
  -8  -3 -16   99.22   52.27
   3  -8  16   50.14  101.46
   8   3  16   72.53   37.99
  -2   8 -16  419.69  106.76
  -2   8 -16  363.68  145.96
  -8  -2 -16  454.91  132.95
  -8  -2 -16  350.33  123.00
   8   2  16  471.99  110.92
   2  -8  16  547.91  169.71
  -1   8 -16   11.55   42.68
  -1   8 -16   33.02   89.12
  -8  -1 -16   -7.99   69.58
  -8  -1 -16    3.33   44.35
   1  -8  16    4.75  115.56
  -1   8  16   83.75  105.61
   8   1  16   41.59   37.89
   0   8 -16   19.34   49.03
   0  -8 -16   -3.39   63.32
  -8   0 -16  125.03   46.98
  -8   0 -16  128.91   65.97
   8   0  16   39.89   42.62
   0  -8  16  211.80  127.51
   0   8  16   25.31  119.62
  -8   1 -16  -34.12   67.78
  -1  -8 -16  -24.40   57.95
  -8   1 -16   50.60   45.11
   1   8  16    2.66   60.52
   8  -1  16  -35.37   42.07
   1   8  16   69.17  121.34
  -2  -8 -16  387.24  127.56
  -8   2 -16  598.21  134.37
  -8   2 -16  411.15  120.51
   2   8  16  458.91  186.92
   8  -2  16  630.98  115.67
   2   8  16  342.65  122.44
  -8   3 -16  118.33   56.09
  -8   3 -16  127.22   75.03
  -3  -8 -16  125.83   68.62
  -3  -8 -16   70.05   62.96
   3   8  16   48.10   62.52
   8  -3  16   74.52   49.27
   3   8  16  143.13  118.22
  -8   4 -16  227.82   99.23
  -8   4 -16  263.25   78.06
   4   8  16  153.31  130.90
   8  -4  16  284.13   72.61
   4   8  16  192.60   84.09
  -8   5 -16   69.74   84.16
   8  -5  16   -3.15   81.49
  -8   7 -16 -209.39   59.76
  -8   7 -16   -3.94   88.32
   8  -7  16    4.05   55.33
   8  -7  16   -3.61   74.83
  -8   8 -16 -267.29   67.99
  -8   8 -16   21.16  102.83
   8  -8  16    3.90  119.82
   8  -8  16 -189.09   68.72
  -8   9 -16  285.54  123.26
  -8   9 -16   68.02   68.85
   8  -9  16    4.55   63.92
   8  -9  16   -4.22  119.10
  -7   9 -16 -165.71   63.79
  -7   9 -16    4.24  108.52
   7  -9  16  321.07   70.21
   7  -9  16  124.63  117.93
   6  -9  16   -4.07   56.39
   5  -9  16   -3.80  105.58
  -4   9 -16 -178.01   96.52
  -4   9 -16   82.44   48.10
  -9  -4 -16  -18.33   65.61
   4  -9  16  207.37   54.22
   4  -9  16   23.32  106.37
  -3   9 -16  284.08   85.01
  -9  -3 -16  365.59  105.93
  -3   9 -16  389.25  123.80
   3  -9  16    4.13  143.47
  -2   9 -16   77.29   92.77
  -2   9 -16   86.34   43.99
  -9  -2 -16   -2.72   63.84
   2  -9  16  179.26  118.04
  -1   9 -16   56.66   43.48
  -9  -1 -16   69.66   67.27
  -1   9 -16   60.22   93.83
   9   1  16   -3.08   39.28
  -1   9  16   64.43  116.82
   1  -9  16   46.04  127.16
  -9   0 -16   27.17   51.62
   0   9 -16  -52.74   49.04
  -9   0 -16   28.65   66.31
   0  -9 -16   47.16   68.81
   0   9  16  -12.40   66.92
   0   9  16  -53.45  123.56
   9   0  16  -19.10   37.41
  -9   1 -16   46.66   55.32
  -1  -9 -16  159.59   68.63
  -9   1 -16   38.47   73.77
   9  -1  16   92.40   47.19
   1   9  16   -7.37  137.18
   1   9  16   88.20   68.11
  -9   2 -16   -9.25   73.50
  -9   2 -16   47.56   53.43
  -2  -9 -16  116.87   66.47
   9  -2  16   62.21   45.87
   2   9  16   18.53   65.85
   2   9  16   56.39  137.90
  -9   3 -16  624.64  124.13
  -3  -9 -16  356.60  124.79
  -3  -9 -16  341.85  116.29
   3   9  16  477.49  174.65
   3   9  16  327.14  111.56
  -4  -9 -16  -77.48   66.63
  -4  -9 -16  -12.51   70.92
   4   9  16   -2.64   66.00
   4   9  16   67.18  128.90
  -9   6 -16   13.36   60.26
  -9   6 -16 -130.91   88.52
   9  -6  16   20.88   54.60
  -9   7 -16   -4.65   64.07
  -9   7 -16   41.14   94.25
   9  -7  16    7.59  107.05
   9  -7  16   48.57   68.88
  -9   8 -16    4.87   70.96
  -9   8 -16  269.15  112.31
   9  -8  16   73.69  116.76
   9  -8  16  -74.76   65.71
  -9   9 -16    4.75  115.91
  -9   9 -16   51.06   70.87
   9  -9  16   -4.39  119.30
   9  -9  16   -4.95   70.84
  -9  10 -16    5.36   71.27
  -9  10 -16  -70.66  115.59
   9 -10  16   15.73   70.38
   9 -10  16   -9.53  133.81
  -8  10 -16  -28.64  122.91
  -8  10 -16    4.78   71.23
   8 -10  16    4.82   63.80
   8 -10  16   -4.50  127.79
  -7  10 -16    4.26   65.73
  -7  10 -16    4.45  108.82
   7 -10  16   -4.37  124.08
   7 -10  16   -4.49   61.19
  -6  10 -16   54.17   57.90
  -6  10 -16 -181.97  111.50
   6 -10  16  -13.03   63.08
   5 -10  16   -4.04   56.37
 -10  -4 -16   86.87   71.04
  -3  10 -16  142.54   44.71
  -3  10 -16    4.02   93.79
 -10  -3 -16   13.82   68.34
   3 -10  16  -58.12  129.24
  -2  10 -16    4.20   94.21
 -10  -2 -16  -82.93   69.72
  -2  10 -16   45.42   47.09
   2 -10  16 -412.63  128.77
  -2  10  16  155.82  125.19
 -10  -1 -16   79.03   77.69
  -1  10 -16   -6.22   50.42
  -1  10 -16   35.98  106.58
   1 -10 -16   21.19   74.59
   1 -10  16   38.41  136.88
  -1  10  16  211.32  133.51
   0 -10 -16   98.33   76.52
 -10   0 -16  -39.10   72.48
   0  10 -16  -51.08   55.53
   0  10  16   98.38   71.78
   0  10  16  183.03  138.21
  -1 -10 -16  -25.13   73.33
 -10   1 -16  -62.17   77.60
   1  10  16 -139.19  159.67
   1  10  16  -48.17   68.89
  -2 -10 -16   33.74   74.64
   2  10  16  135.86   71.21
   2  10  16   57.99  154.23
  -3 -10 -16   -5.36   78.82
 -10   3 -16   18.09   60.46
  -3 -10 -16   95.38   76.76
  10  -3  16  -35.25   50.29
   3  10  16   66.80   71.61
   3  10  16  176.06  154.29
  -4 -10 -16  202.50   86.78
  -4 -10 -16  141.26   84.01
 -10   4 -16    4.63   64.08
 -10   4 -16   24.93   86.79
   4  10  16  114.32   78.42
  10  -4  16   28.73   57.97
   4  10  16  276.66  143.77
 -10   5 -16   56.44   86.92
   5  10  16   73.80  135.92
 -10   6 -16   -3.99   96.36
 -10   6 -16   -4.90   68.22
  10  -6  16    4.55   57.70
 -10   7 -16   -5.10   69.61
 -10   7 -16    8.53  101.75
  10  -7  16    4.80   57.07
 -10   8 -16 -143.72   74.24
 -10   8 -16  -92.32  108.03
  10  -8  16  -60.83   67.76
 -10   9 -16  105.79   79.05
 -10   9 -16    4.94  118.71
  10  -9  16 -107.13   67.17
  10  -9  16  -23.02  126.35
 -10  10 -16   99.22   82.96
 -10  10 -16  180.09  132.84
  10 -10  16   64.79  146.72
  10 -10  16    5.66   73.13
 -10  11 -16  182.10  135.56
 -10  11 -16   80.31   83.80
  10 -11  16  -95.53   75.62
  10 -11  16  -16.22  151.02
  -9  11 -16    5.64   77.83
  -9  11 -16   96.99  140.35
   9 -11  16  -15.42  154.75
   9 -11  16   88.83   76.42
  -8  11 -16    5.03   68.86
  -8  11 -16  -74.92  124.40
   8 -11  16    5.16   67.45
   8 -11  16  -29.44  133.09
  -7  11 -16   -4.62   71.95
  -7  11 -16   -4.68  119.69
   7 -11  16  137.73   68.15
   7 -11  16   69.75  134.28
  -6  11 -16    4.43  107.46
  -6  11 -16  -21.06   63.65
   6 -11  16   64.16   69.21
   6 -11  16    4.56  127.68
  -5  11 -16   -4.22  104.61
  -5  11 -16    7.66   56.81
   5 -11  16    4.30   64.08
   5 -11  16   27.24  131.85
  -4  11 -16   -3.50   53.11
   4 -11  16  -49.60   65.23
  -2  11 -16   83.14  101.85
   2 -11  16   36.58  137.03
  -1  11 -16   89.39  107.31
  -1  11 -16   -3.25   42.08
   1 -11  16  100.19  150.51
   0 -11 -16   12.83   93.91
   0  11 -16  191.54   59.23
   0  11  16   84.72   83.98
  -1 -11 -16    3.99   86.58
  -2 -11 -16 -110.73   83.92
  -2 -11 -16   50.14   95.69
   2  11  16    9.06  176.31
   2  11  16 -158.22   77.68
  -3 -11 -16  115.60   99.67
  -3 -11 -16   62.36   93.44
   3  11  16  -35.50  183.18
   3  11  16   85.31   89.74
  -4 -11 -16   41.54   99.46
  -4 -11 -16  -42.12   87.75
   4  11  16 -190.66  174.70
   4  11  16  -72.08   90.19
   5  11  16   94.23   95.33
   5  11  16  297.20  164.00
 -11   6 -16   93.34   94.90
  11  -6  16    4.91   63.75
 -11   7 -16   94.63  107.61
  11  -7  16   -5.16   65.89
 -11   8 -16   -4.82  118.94
  11  -8  16   -5.44   65.58
 -11   9 -16  -36.19  119.28
  11  -9  16   28.69   74.98
 -11  10 -16  117.43  135.95
  11 -10  16  -60.66   72.40
  11 -10  16  -78.23  152.09
 -11  11 -16    6.00  140.47
  11 -11  16   28.16  160.74
 -11  12 -16  -19.26  151.33
  11 -12  16   48.17  170.80
 -10  12 -16   -6.48   86.69
 -10  12 -16   30.33  142.60
  10 -12  16   12.56   82.69
  10 -12  16  -28.87  164.01
  -9  12 -16   35.47   81.12
  -9  12 -16 -145.74  137.61
   9 -12  16  -59.25   77.09
   9 -12  16   33.51  163.77
  -8  12 -16   10.87   85.01
  -8  12 -16  -41.76  138.12
   8 -12  16    5.31  157.86
   8 -12  16 -309.61   82.28
  -7  12 -16   82.53   73.04
  -7  12 -16  -78.39  121.03
   7 -12  16   20.11   71.53
   7 -12  16   25.36  147.06
  -6  12 -16  110.50  109.90
  -6  12 -16  -53.06   71.11
   6 -12  16 -168.24  143.26
   6 -12  16  115.92   71.74
  -5  12 -16   36.17   53.89
  -5  12 -16    4.39  102.19
   5 -12  16    4.56   65.53
   5 -12  16  111.11  135.33
  -4  12 -16   89.99  101.39
  -4  12 -16  -40.49   57.09
   4 -12  16   -4.31   62.75
   4 -12  16  -74.57  137.93
  -3  12 -16   27.46   56.64
   3 -12  16  -17.22   64.18
  -2  12  16 -314.21  159.55
   1 -12 -16  125.00   95.18
  -1  12  16  141.54  170.43
  -1  12  16   12.04   87.57
   0 -12 -16   -4.72   80.43
   0  12  16   -3.83   70.36
   0  12  16  245.63  170.01
   1  12  16  -19.91  183.67
   2  12  16    4.97  182.78
   3  12  16   -4.88  173.30
   4  12  16 -345.20  176.43
  -5 -12 -16   83.33  102.86
   5  12  16  107.70  178.18
 -11  13 -16  156.74  169.14
  11 -13  16  -25.92  182.00
 -10  13 -16   -6.78   87.33
 -10  13 -16    6.32  156.67
  10 -13  16   74.06  177.11
  10 -13  16  -13.23   80.98
  -9  13 -16   12.58   88.55
  -9  13 -16    5.83  144.10
   9 -13  16   11.81  168.53
   9 -13  16   24.88   83.50
  -8  13 -16   10.89  133.55
  -8  13 -16   57.09   74.99
   8 -13  16   91.10   77.42
   8 -13  16    5.75  165.01
  -7  13 -16 -131.94  122.53
  -7  13 -16  -56.10   71.78
   7 -13  16 -109.20  157.79
   7 -13  16    5.34   73.74
  -6  13 -16 1216.93  249.43
   6 -13  16 1073.07  276.13
  -5  13 -16  -13.08   63.74
  -5  13 -16    9.07  106.82
   5 -13  16  -68.21  148.25
   5 -13  16  -86.50   68.97
  -4  13 -16   51.52   60.91
  -4  13 -16  111.83  111.75
   4 -13  16  -10.71  149.44
   4 -13  16    4.54   65.49
  -3  13 -16   27.12  107.86
  -3  13 -16 -198.95   62.63
   3 -13  16   11.24  151.22
   3 -13  16  -40.27   66.66
  -2  13 -16  -17.54   58.12
  -2  13 -16    4.68  108.74
   2 -13  16  625.60  158.99
  -2  13  16  170.83  174.01
   1 -13 -16   10.95  109.58
  -1  13 -16  -92.19   55.18
  -1  13  16 -160.72   92.32
  -1  13  16  274.13  181.98
   0 -13 -16  -31.43  106.39
   0  13 -16  143.53   56.57
   0  13  16    5.28  182.02
   0  13  16   12.57   90.64
  -1 -13 -16  -59.35   98.92
   1  13  16   75.88   90.46
   1  13  16 -215.72  191.85
  -2 -13 -16  166.99  110.33
  -2 -13 -16  -31.31  119.58
   2  13  16   96.81  198.95
   2  13  16  117.24   97.26
  -3 -13 -16   15.21  114.32
  -3 -13 -16   -7.73  113.20
   3  13  16  -53.34  200.50
   3  13  16   66.36   98.08
  -4 -13 -16  -15.38  116.21
  -4 -13 -16  -43.04  124.86
   4  13  16    4.36  102.82
   4  13  16    5.21  182.24
  -5 -13 -16   31.43  115.86
  -5 -13 -16 -120.97  129.08
   5  13  16 -141.32  111.47
   5  13  16  147.53  189.34
 -11  14 -16   14.11  175.89
  11 -14  16    6.88  197.53
 -10  14 -16    6.52  157.42
  10 -14  16   53.03  194.91
  10 -14  16    6.93   89.31
  -9  14 -16   98.51  109.48
   9 -14  16  227.16  215.56
   9 -14  16   84.34  102.92
  -8  14 -16  -79.28   89.05
  -8  14 -16  -28.02  140.45
   8 -14  16 -145.24   85.15
   8 -14  16 -217.35  183.67
   7 -14  16 -181.38  160.91
   7 -14  16   -5.59   70.51
   6 -14  16   15.70   74.86
   2 -14 -16 -195.50  120.16
  -2  14  16   -5.63  195.09
   1 -14 -16 -206.25  117.69
  -1  14  16 -155.92  104.20
  -1  14  16 -340.25  205.26
   0 -14 -16    5.86  120.31
   0  14  16 -387.78  206.51
   0  14  16 -143.16  103.98
  -1 -14 -16  -44.68  124.21
  -1 -14 -16   -8.73  139.40
   1  14  16 -122.07  206.85
  -2 -14 -16 -239.55  127.27
  -2 -14 -16  -69.71  142.94
   2  14  16 -461.19  219.82
  -3 -14 -16  -69.77  171.07
  -3 -14 -16   46.06  169.02
   3  14  16  859.35  159.45
   3  14  16 1208.93  256.26
  -4 -14 -16  -91.19  142.52
  -4 -14 -16 -175.70  134.66
   4  14  16 -351.20  126.97
   4  14  16 -586.88  215.38
  -5 -14 -16   26.79  132.51
  -5 -14 -16   25.94  151.60
   5  14  16  315.82  130.06
   5  14  16  163.96  202.17
   6  14  16 -551.60  210.11
   2 -15 -16  -76.66  130.00
  -2  15  16    6.16  207.32
   1 -15 -16  324.72  137.26
  -1  15  16 -384.07  115.16
  -1  15  16 -198.28  221.19
   0 -15 -16   46.07  134.09
   0  15  16  107.43  113.65
   0  15  16   62.57  217.55
  -1 -15 -16  265.06  139.01
  -1 -15 -16  451.79  157.49
   1  15  16  163.54  117.09
   1  15  16  257.05  230.48
  -2 -15 -16  202.12  137.83
  -2 -15 -16  -67.81  153.23
   2  15  16  156.77  118.23
   2  15  16 -145.54  216.49
  -3 -15 -16  326.00  163.37
  -3 -15 -16  165.64  166.16
   3  15  16  529.67  142.30
   3  15  16  100.14  234.49
  -4 -15 -16   49.53  141.86
  -4 -15 -16   89.09  158.29
   4  15  16 -304.34  124.02
   4  15  16   19.38  224.88
  -5 -15 -16  246.89  165.28
  -5 -15 -16  -90.19  140.42
   5  15  16 -417.37  135.23
   5  15  16  264.02  228.49
   6  15  16 -135.15  142.58
   6  15  16 -227.74  231.70
   2 -16 -16  310.49  158.36
  -2  16  16  356.98  237.05
   1 -16 -16  -75.75  148.93
  -1  16  16  -57.33  122.86
  -1  16  16   13.56  228.67
   0 -16 -16 -215.48  150.11
   0 -16 -16   95.38  173.18
   0  16  16  199.19  124.98
   0  16  16  410.76  236.38
  -1 -16 -16  -14.30  146.18
  -1 -16 -16   63.89  159.70
   1  16  16    5.64  123.88
   1  16  16  -94.86  248.17
  -2 -16 -16  150.52  168.96
  -2 -16 -16  579.95  174.37
   2  16  16 -286.22  248.47
   2  16  16  -90.28  134.00
  -3 -16 -16 -361.41  169.53
  -3 -16 -16  -21.86  169.76
   3  16  16 -209.82  140.91
   3  16  16 -248.78  238.25
  -4 -16 -16 -561.49  214.94
  -5 -16 -16 -190.99  186.09
  -5 -16 -16 -535.15  211.78
  -6 -16 -16   22.77  154.38
  -6 -16 -16   42.35  195.64
   6  16  16 -213.13  252.19
   6  16  16 -606.17  159.28
   2 -17 -16 -191.16  165.98
  -2  17  16    7.38  257.07
   1 -17 -16  102.31  170.39
  -1  17  16  114.62  132.84
  -1  17  16 -285.32  262.91
   0 -17 -16  -81.56  199.39
   0 -17 -16  159.44  172.88
   0  17  16    6.35  139.78
   0  17  16  -79.82  254.24
  -1 -17 -16  -23.59  180.59
  -1 -17 -16   16.23  172.27
   1  17  16 -102.25  261.85
   1  17  16  365.51  139.34
  -2 -17 -16  108.00  193.17
  -2 -17 -16  153.98  182.87
   2  17  16  207.75  142.84
   2  17  16  203.80  259.70
  -3 -17 -16 -121.40  188.16
  -3 -17 -16  158.13  187.41
   3  17  16 -273.01  263.33
   3  17  16  -77.81  151.16
  -4 -17 -16   42.96  200.28
  -4 -17 -16 -251.93  192.41
   4  17  16  141.10  158.77
   4  17  16   78.95  262.34
  -5 -17 -16  197.72  209.79
  -5 -17 -16  -63.49  175.99
   5  17  16 -139.45  288.25
   5  17  16 -180.10  160.42
  -6 -17 -16 -121.66  214.51
  -6 -17 -16   89.60  172.82
   6  17  16 -117.16  273.89
   6  17  16   -7.08  163.33
   2 -18 -16  557.63  193.89
  -2  18  16 -280.33  283.66
   1 -18 -16  -64.39  197.30
   1 -18 -16   38.55  195.37
  -1  18  16 -142.13  149.28
  -1  18  16    7.89  271.80
   0 -18 -16  -66.65  200.72
   0 -18 -16  -12.90  205.53
   0  18  16 -106.58  152.46
   0  18  16 -329.97  276.14
  -1 -18 -16   93.10  190.98
  -1 -18 -16   78.38  195.44
   1  18  16  354.05  279.30
   1  18  16   56.28  151.22
  -2 -18 -16 -119.19  203.81
  -2 -18 -16 -332.63  212.08
   2  18  16 -267.32  279.04
   2  18  16 -493.66  161.79
  -3 -18 -16  -82.29  217.20
  -3 -18 -16  430.82  212.73
   3  18  16    7.18  170.81
   3  18  16  179.77  282.41
  -4 -18 -16   67.31  212.74
  -4 -18 -16   98.47  216.30
   4  18  16  242.25  291.09
   4  18  16 -554.37  180.40
  -5 -18 -16   56.67  203.61
  -5 -18 -16  467.36  234.38
   5  18  16  162.58  298.88
   5  18  16 -129.46  173.50
  -6 -18 -16  289.57  206.46
  -6 -18 -16  144.31  256.42
   6  18  16  330.35  305.49
   6  18  16  -61.88  182.90
  -1   0 -17 2272.03  643.53
  -1   0 -17 2594.47  577.51
   1   0  17 2535.29  678.45
  -1   1 -17   20.24   33.25
  -1  -1 -17   28.68   35.28
  -1   1 -17  -28.19   74.40
  -1  -1 -17   34.18   71.87
   1   1  17   11.33   86.48
   1  -1  17  -64.99   84.52
  -2  -1 -17   12.72   30.05
  -2  -1 -17  145.59   70.76
  -1   2 -17   21.58   74.72
  -1   2 -17   23.38   32.72
   1  -2  17   50.33   86.99
   2   1  17  -31.91   79.01
   0  -2 -17   27.81   35.26
   0   2 -17   -3.06   41.34
  -2   0 -17  -13.05   66.71
  -2   0 -17  -13.28   31.13
   2   0  17   99.00   81.21
  -1  -2 -17   20.79   35.37
  -2   1 -17   38.79   31.62
  -2   1 -17    3.34   76.24
   1   2  17  -60.57   89.77
   2  -1  17   51.99   77.39
  -2   2 -17  -32.90   34.28
  -2  -2 -17   63.06   32.35
  -2  -2 -17   24.88   69.74
  -2   2 -17  -20.43   72.21
   2   2  17   98.58   78.14
   2  -2  17   66.25   84.76
  -2   3 -17  471.16  129.13
  -3  -2 -17  267.38  102.19
  -3  -2 -17  587.35  127.11
  -2   3 -17  346.13   96.37
   2  -3  17  496.91  135.18
   3   2  17  556.30  128.87
  -3  -1 -17  238.50   70.04
  -1   3 -17  276.09   69.90
  -1   3 -17  192.43  104.57
  -3  -1 -17  219.73   99.05
   3   1  17  295.41  100.71
   1  -3  17  394.10  121.46
   0   3 -17  202.94   57.74
   0  -3 -17  146.86   55.85
  -3   0 -17  266.45   81.42
  -3   0 -17  151.61   49.56
   0  -3  17  100.66  111.50
   3   0  17  160.04   84.56
  -1  -3 -17  257.56   78.66
  -3   1 -17  354.40   73.69
  -3   1 -17  177.35  100.05
   3  -1  17  341.30  106.02
  -3   2 -17  432.62   93.79
  -3   2 -17  347.98  119.32
  -2  -3 -17  298.10  121.67
  -2  -3 -17  305.06   99.91
   2   3  17  533.96  136.14
   3  -2  17  409.58  124.50
  -3   3 -17   46.90   32.40
  -3   3 -17   64.57   70.18
  -3  -3 -17   36.13   29.19
  -3  -3 -17  -28.58   62.86
   3   3  17  -32.60   73.65
   3  -3  17   -9.21   80.58
  -4  -3 -17  106.22   49.25
  -3   4 -17  230.33   86.15
  -3   4 -17   72.86   49.89
  -4  -3 -17  214.89   80.33
   4   3  17  254.74   49.76
   3  -4  17  205.73   94.25
   4   3  17  225.26   80.44
  -4  -2 -17  746.01  244.61
  -2   4 -17 1013.75  241.83
  -4  -2 -17 1027.42  217.55
   2  -4  17  975.42  251.13
   4   2  17  876.68  207.72
   4   2  17  806.63  242.35
  -4  -1 -17   99.01   43.04
  -4  -1 -17   70.00   74.23
  -1   4 -17  186.59   86.08
   4   1  17  212.94   73.53
   1  -4  17   78.35  102.58
  -4   0 -17   -2.12   28.18
   0  -4 -17  -33.00   36.72
  -4   0 -17   31.50   66.79
   0   4  17   -3.71   64.62
   4   0  17   25.03   64.62
   0  -4  17   -4.73  106.60
  -4   1 -17  111.18   45.09
  -4   1 -17  120.48   77.41
  -1  -4 -17  143.83   46.78
   4  -1  17  205.76   75.94
   1   4  17  164.72   81.09
  -2  -4 -17  913.80  229.22
  -4   2 -17  772.09  236.47
  -2  -4 -17  863.89  248.50
   2   4  17  924.61  266.70
   4  -2  17 1099.71  240.02
  -4   3 -17  219.14   53.61
  -4   3 -17  156.65   86.29
  -3  -4 -17  155.96   51.21
  -3  -4 -17   88.18   83.27
   3   4  17  240.64   90.21
   4  -3  17  269.89   89.08
  -4   4 -17  -31.91   34.60
  -4  -4 -17    2.62   64.94
  -4  -4 -17  -10.47   27.34
  -4   4 -17  -74.79   75.23
   4   4  17  -35.85   26.19
   4   4  17   52.86   68.88
   4  -4  17  -29.90   77.87
  -4   5 -17   27.10   79.07
  -5  -4 -17   24.66   29.75
  -5  -4 -17  -33.21   67.19
   5   4  17    9.01   24.74
   4  -5  17   63.14   85.97
   5   4  17   35.11   61.44
  -3   5 -17  548.16  115.49
  -5  -3 -17  501.25  124.67
  -3   5 -17  474.33  145.86
  -5  -3 -17  524.09  148.90
   5   3  17  458.08  145.68
   5   3  17  444.39  115.48
   3  -5  17  361.84  155.68
  -2   5 -17    7.44   79.79
  -5  -2 -17   18.77   65.51
  -2   5 -17  107.98   39.69
  -5  -2 -17   15.21   32.62
   5   2  17   92.03   32.93
   2  -5  17   26.41   97.31
   5   2  17   56.21   62.12
  -5  -1 -17  419.40  103.85
  -1   5 -17  444.17  100.46
  -1   5 -17  495.34  135.49
  -5  -1 -17  561.78  125.92
   5   1  17  335.00  123.69
   5   1  17  380.13   99.48
   1  -5  17  266.66  153.46
   0  -5 -17  -18.73   37.68
   0   5 -17   -9.69   44.53
  -5   0 -17  -16.88   66.86
  -5   0 -17   47.50   32.62
   5   0  17    2.34   63.77
   5   0  17    2.43   32.19
   0  -5  17 -108.34  111.13
   0   5  17   -4.28   74.85
  -1  -5 -17  222.57  119.64
  -5   1 -17  385.53  130.83
  -5   1 -17  599.58  110.60
   1   5  17  511.67  152.22
   5  -1  17  545.80  108.55
   5  -1  17  498.20  131.86
  -5   2 -17  104.96   72.28
  -5   2 -17    2.48   38.29
  -2  -5 -17  108.13   31.51
   5  -2  17    5.58   37.22
   2   5  17  132.77   96.84
   5  -2  17   28.12   68.29
  -5   3 -17  508.28  151.55
  -5   3 -17  583.70  130.43
  -3  -5 -17  529.36  137.56
  -3  -5 -17  645.35  162.57
   5  -3  17  655.86  129.93
   5  -3  17  454.11  156.10
  -5   4 -17   10.78   38.18
  -5   4 -17  -61.79   79.33
   5  -4  17   49.85   42.98
   5  -4  17  -37.83   79.82
  -5   5 -17  632.12  177.55
   5  -5  17  520.35  185.00
  -5   6 -17   -8.84   42.32
  -5   6 -17 -167.30   85.92
   5  -6  17  -17.24   49.09
   5  -6  17  -29.44   91.65
  -6  -4 -17  215.05   73.55
  -4   6 -17 -183.51  111.55
  -4   6 -17   69.57   43.22
  -6  -4 -17   99.91   43.06
   6   4  17  180.30   66.78
   6   4  17  153.66   35.05
   4  -6  17 -207.64  118.63
  -3   6 -17   15.82   40.96
  -6  -3 -17   11.86   35.12
  -6  -3 -17  -31.59   66.30
  -3   6 -17 -147.43   91.98
   6   3  17   10.23   29.35
   3  -6  17  -60.77  104.50
   6   3  17   -2.08   62.41
  -6  -2 -17  396.83  151.57
  -2   6 -17  371.35  157.10
  -6  -2 -17  575.03  127.11
  -2   6 -17  517.02  117.02
   6   2  17  357.75  118.85
   6   2  17  547.68  151.25
   2  -6  17  449.60  171.10
  -6  -1 -17   58.61   66.90
  -1   6 -17  -24.43   88.57
  -6  -1 -17   -5.06   36.87
  -1   6 -17  -28.88   41.48
   6   1  17   31.60   61.03
   1  -6  17  -81.39  113.41
   6   1  17  -16.73   31.20
   0   6 -17   42.55   45.47
  -6   0 -17  -17.96   36.58
  -6   0 -17  -74.64   69.45
   0   6  17  -53.28   87.95
   0  -6  17  -30.94  114.99
   6   0  17  -12.71   33.08
   6   0  17 -112.96   68.76
  -6   1 -17  -11.85   68.42
  -6   1 -17   37.68   34.33
   6  -1  17   41.79   68.72
   1   6  17   26.09  101.48
   6  -1  17  -13.52   36.66
  -6   2 -17  732.30  169.36
  -2  -6 -17  649.11  160.85
  -6   2 -17  605.57  146.28
   6  -2  17  646.10  144.72
   2   6  17  515.37  156.51
   6  -2  17  720.62  171.38
   2   6  17  672.96  203.37
   6  -3  17  -60.84   47.96
  -6   4 -17  -95.00   58.64
   6  -4  17   77.17   53.28
  -6   5 -17  -90.15   86.55
   6  -5  17   46.22   84.88
  -6   6 -17  142.95   53.16
  -6   6 -17  -68.97   88.04
   6  -6  17   46.65   46.46
   6  -6  17   86.74   92.03
  -5   7 -17   89.59   48.81
  -5   7 -17   -3.74   96.17
   5  -7  17  112.61   51.81
   5  -7  17   -3.55   97.21
  -7  -4 -17   11.73   39.25
  -4   7 -17  210.64   89.52
  -7  -4 -17  -31.83   68.41
  -4   7 -17    8.55   41.90
   7   4  17   31.32   63.70
   4  -7  17   21.87  101.97
   7   4  17   -2.24   32.42
  -3   7 -17  449.45  147.92
  -3   7 -17  448.08  110.01
  -7  -3 -17  512.42  122.87
  -7  -3 -17  507.69  144.04
   3  -7  17    3.88  158.49
   7   3  17  512.69  144.24
   7   3  17  553.47  110.20
  -2   7 -17   44.13   90.72
  -2   7 -17   44.51   40.41
  -7  -2 -17   85.26   69.36
  -7  -2 -17   85.96   41.44
   2  -7  17    4.21  108.64
   7   2  17   57.55   33.34
   7   2  17  -24.99   69.24
  -1   7 -17  210.25   70.12
  -7  -1 -17  124.05   92.59
  -7  -1 -17  243.00   71.38
  -1   7 -17  227.54  108.50
   7   1  17  311.82   93.35
  -1   7  17  205.35  116.97
   7   1  17  266.38   65.39
   1  -7  17  281.83  134.72
  -7   0 -17  147.62   54.15
   0   7 -17   73.66   52.75
  -7   0 -17  257.83   84.34
   7   0  17   71.56   45.30
   0   7  17  212.81  112.14
   0  -7  17    5.43  130.25
   7   0  17   61.43   80.98
  -1  -7 -17  105.34   84.07
  -7   1 -17  185.30   99.16
  -7   1 -17  249.59   73.56
   7  -1  17  263.81  100.29
   1   7  17  331.69  138.93
   7  -1  17  337.96   72.36
  -2  -7 -17   82.69   55.76
  -7   2 -17   21.66   47.74
  -7   2 -17  -62.71   82.09
   2   7  17   27.30  117.70
   7  -2  17 -150.04   78.20
   2   7  17   92.89   58.16
   7  -2  17   15.12   40.96
  -7   3 -17  428.52  115.72
  -7   3 -17  613.67  137.99
   7  -3  17  613.36  113.66
   7  -3  17   62.61  147.12
  -7   4 -17    6.58   45.13
  -7   4 -17   37.56   84.61
   7  -4  17    5.99   85.73
   7  -4  17   30.57   46.12
  -7   5 -17   32.59   91.61
   7  -5  17    3.17   86.20
  -7   7 -17    3.77   56.40
   7  -7  17    4.02   53.88
  -7   8 -17   -4.21  105.20
  -7   8 -17   11.88   56.96
   7  -8  17  185.27  108.68
   7  -8  17 -102.20   54.47
  -6   8 -17   -3.57   51.46
   6  -8  17  -12.05   55.20
  -4   8 -17  108.20   94.96
  -4   8 -17  227.45   50.22
  -8  -4 -17   27.14   69.70
   4  -8  17   93.18  107.53
   8   4  17   20.52   39.27
  -8  -3 -17   69.10   73.86
  -3   8 -17  147.89   51.00
  -3   8 -17  195.39   99.25
  -8  -3 -17   78.67   52.81
   8   3  17  103.08   44.64
   3  -8  17   41.33  114.48
  -8  -2 -17  152.16   80.61
  -8  -2 -17  158.89   61.97
  -2   8 -17  186.16   55.75
  -2   8 -17   12.38  103.12
   2  -8  17   62.87  127.99
   8   2  17  150.79   52.65
  -1   8 -17   33.75   46.36
  -8  -1 -17  -10.28   48.44
  -8  -1 -17  -37.47   69.70
  -1   8 -17  -65.83   93.01
   8   1  17   28.21   37.27
   1  -8  17  -45.92  124.10
  -1   8  17   57.63  105.60
  -8   0 -17   -2.96   73.86
  -8   0 -17  -17.10   46.28
   0   8 -17   30.84   48.82
   8   0  17  -14.60   38.26
   0   8  17  -51.62  118.66
  -8   1 -17   33.71   74.14
  -1  -8 -17   93.11   62.26
  -8   1 -17   30.70   48.63
   1   8  17    8.42   65.31
   8  -1  17    6.17   42.05
   1   8  17   60.64  121.64
  -2  -8 -17  167.74   74.68
  -8   2 -17  158.20   66.79
  -8   2 -17  194.02   87.41
   8  -2  17  246.13   90.26
   8  -2  17  250.99   60.26
   2   8  17  143.87  143.85
   2   8  17   99.22   73.38
  -8   3 -17   18.17   59.25
  -8   3 -17  102.83   89.32
   3   8  17  219.37  132.38
   8  -3  17  179.95   56.55
   8  -3  17  287.20   90.23
   3   8  17  106.69   65.89
  -8   4 -17  -24.50   87.42
   8  -4  17    3.14   86.32
  -8   6 -17 -207.86   59.04
  -8   6 -17   -3.94   87.61
   8  -6  17   15.91   54.87
   8  -6  17   -3.58   83.60
  -8   7 -17   71.14   58.34
  -8   7 -17   -4.17   95.99
   8  -7  17  -87.63  107.65
   8  -7  17   46.29   61.50
  -8   8 -17  -75.91  113.66
  -8   8 -17   26.35   62.62
   8  -8  17   62.71   63.38
   8  -8  17   -4.11  115.46
  -8   9 -17 -196.97  119.55
  -8   9 -17    4.62   69.05
   8  -9  17    4.75   66.13
   8  -9  17   21.99  122.52
  -7   9 -17    4.26   62.53
  -7   9 -17 -106.58  105.43
   7  -9  17    4.50   64.09
   7  -9  17  128.79  124.07
  -6   9 -17 -167.41   56.88
  -6   9 -17  -80.99  110.61
   6  -9  17  -85.12   62.78
   5  -9  17   12.01   56.03
  -9  -4 -17  242.09   87.40
  -9  -3 -17   50.97   69.09
  -3   9 -17 -119.11   95.62
   3  -9  17   31.24  121.44
  -2   9 -17    4.29   99.63
  -9  -2 -17  121.15   73.69
  -2   9 -17   36.60   45.13
   9   2  17   42.68   40.98
   2  -9  17   43.54  128.96
  -9  -1 -17  -73.72   71.16
  -1   9 -17  -22.88   98.81
  -1   9 -17   22.17   50.48
  -9  -1 -17  -15.74   44.61
   1  -9  17   10.89  139.71
   9   1  17   25.18   40.50
  -1   9  17  -24.17  115.09
  -9   0 -17  -48.38   71.99
  -9   0 -17  -15.73   51.69
   0  -9 -17   11.34   67.31
   0   9 -17  -14.02   53.56
   0   9  17   65.38  123.54
   9   0  17  -29.43   42.91
  -9   1 -17   78.78   51.59
  -1  -9 -17   44.80   70.83
  -9   1 -17   74.87   75.11
   9  -1  17   37.66   47.09
   1   9  17   68.12   66.72
   1   9  17   -7.52  136.69
  -2  -9 -17   -3.09   66.80
  -9   2 -17    6.49   78.27
   2   9  17  135.68   64.76
   2   9  17    7.68  145.09
  -3  -9 -17   44.24   70.12
  -3  -9 -17   96.21   74.70
   3   9  17   78.20   66.62
   3   9  17  197.89  147.04
  -9   4 -17   29.39   60.38
   9  -4  17   50.83   58.31
  -9   5 -17 -110.44   91.55
   9  -5  17  -48.90   92.13
  -9   6 -17   40.81   60.17
  -9   6 -17    4.03   88.19
   9  -6  17    4.30   57.34
   9  -6  17    3.70  104.18
  -9   7 -17    4.74   66.19
  -9   7 -17   43.14  101.82
   9  -7  17   40.89   67.96
   9  -7  17    3.98  113.40
  -9   8 -17  116.08  118.53
  -9   8 -17  -84.31   66.18
   9  -8  17    4.80   67.02
   9  -8  17    8.53  111.25
  -9   9 -17    5.20   74.13
  -9   9 -17   49.42  120.54
   9  -9  17    5.08   61.38
   9  -9  17  -69.39  130.98
  -9  10 -17  -27.35   76.64
  -9  10 -17   10.60  132.18
   9 -10  17 -145.12  141.75
   9 -10  17   65.39   77.92
  -8  10 -17   -9.98   71.98
  -8  10 -17   59.52  123.31
   8 -10  17    5.03   65.68
   8 -10  17    9.60  134.10
  -7  10 -17   17.91   66.87
  -7  10 -17 -122.07  122.07
   7 -10  17   61.72   71.20
   7 -10  17 -100.75  129.06
  -6  10 -17   17.92  110.77
  -6  10 -17    4.09   57.34
   6 -10  17  126.21   69.20
   6 -10  17    4.52  133.13
  -5  10 -17 -266.43  113.32
  -5  10 -17    3.69   57.18
   5 -10  17 -330.60  125.64
   5 -10  17  -38.15   63.98
  -4  10 -17  -10.20   47.61
   4 -10  17    4.16   61.40
 -10  -3 -17  124.82   82.07
 -10  -2 -17   18.16   69.47
   2 -10  17   -5.18  138.57
  -1  10 -17   -9.56  109.55
 -10  -1 -17   12.36   71.87
   1 -10  17   -5.82  149.67
  -1  10  17    3.91  134.96
 -10   0 -17   15.84   77.30
   0  10 -17   -3.62   45.00
   0 -10 -17   20.36   73.94
   0  10  17  -40.54  140.63
   0  10  17  -27.26   75.14
  -1 -10 -17  -15.03   77.51
   1  10  17  -54.28  158.17
   1  10  17   44.44   71.86
 -10   2 -17  -27.30   64.10
  -2 -10 -17   27.48   74.62
   2  10  17   -4.23  163.87
   2  10  17  170.67   69.71
  10  -2  17   23.26   51.27
 -10   3 -17   -3.54   93.53
 -10   3 -17   65.07   70.06
  -3 -10 -17  228.34   82.53
  -3 -10 -17  318.36   96.12
   3  10  17   69.67  161.49
  10  -3  17  113.91   64.94
   3  10  17  130.07   76.62
 -10   4 -17    9.47   68.36
 -10   4 -17 -185.33   90.43
  10  -4  17   -4.25   55.68
 -10   5 -17    3.92   91.70
 -10   5 -17  161.42   73.86
  10  -5  17    4.48   60.94
 -10   6 -17  -15.23   61.86
 -10   6 -17  150.07   99.71
  10  -6  17   33.03   59.22
 -10   7 -17   10.57   74.71
 -10   7 -17 -148.26  111.11
  10  -7  17  -79.32  112.86
  10  -7  17 -124.51   65.44
 -10   8 -17  -60.75   71.59
 -10   8 -17 -111.17  118.26
  10  -8  17   -4.46  115.67
  10  -8  17   -5.26   68.43
 -10   9 -17  -52.04   79.95
 -10   9 -17   87.52  127.93
  10  -9  17   -5.56   65.90
  10  -9  17   77.18  135.54
 -10  10 -17  -72.22  134.34
 -10  10 -17  -84.87   88.48
  10 -10  17  176.23   79.94
  10 -10  17   62.92  150.63
 -10  11 -17  101.41  147.94
 -10  11 -17  -63.63   91.99
  10 -11  17 -123.74  165.29
  10 -11  17  -30.95   81.64
  -9  11 -17   -5.88   82.13
  -9  11 -17 -183.43  139.77
   9 -11  17    5.76   73.15
   9 -11  17   10.71  147.46
  -8  11 -17  177.62  130.37
  -8  11 -17   -5.26   73.07
   8 -11  17  -58.53   71.73
   8 -11  17   10.46  145.44
  -7  11 -17  -34.62  128.23
  -7  11 -17    4.71   66.66
   7 -11  17 -195.69  138.93
   7 -11  17  -14.99   67.29
  -6  11 -17   -4.29   61.55
  -6  11 -17    4.68  115.68
   6 -11  17 -226.29  138.65
   6 -11  17   38.41   67.44
  -5  11 -17   54.49   56.50
  -5  11 -17 -134.69  108.16
   5 -11  17 -187.88  138.80
   5 -11  17  -40.24   58.84
  -4  11 -17  -57.49   57.67
  -4  11 -17  140.50  109.81
   4 -11  17 -104.32   62.45
   4 -11  17   19.82  130.95
  -3  11 -17   -4.54   82.41
  -3  11 -17   20.29   55.02
   0 -11 -17  440.74  217.67
   0  11  17 1052.17  202.67
  -1 -11 -17   93.34  146.09
   1  11  17  881.91  145.39
  -2 -11 -17  186.88  105.19
  -2 -11 -17  -65.41   92.74
   2  11  17  -45.89   80.56
  -3 -11 -17   -6.24   95.88
  -3 -11 -17  -72.71   86.02
 -11   3 -17 -157.28   87.65
   3  11  17  593.05  177.82
   3  11  17  -68.27   83.07
 -11   4 -17    3.92   92.07
   4  11  17  546.76  160.36
  11  -4  17   46.12   61.62
   4  11  17   90.95   87.31
 -11   5 -17   70.35   95.54
  11  -5  17   -4.83   60.41
 -11   6 -17  -48.12  103.64
 -11   7 -17  -32.68  104.88
  11  -7  17   21.33   65.33
 -11   8 -17   45.37  121.64
  11  -8  17    5.62   70.12
 -11   9 -17   75.72  128.40
  11  -9  17   35.29  138.24
  11  -9  17  -77.20   78.49
 -11  10 -17 -215.29  146.45
  11 -10  17 -114.50  150.95
  11 -10  17   56.50   79.62
 -11  11 -17    6.27  147.62
  11 -11  17  -23.41  165.14
  11 -11  17    6.63   85.19
  11 -12  17  291.57  226.20
  11 -12  17  167.79  122.83
 -10  12 -17  150.76  160.18
 -10  12 -17    6.67   91.31
  10 -12  17 -308.13   92.01
  10 -12  17    6.06  176.44
  -9  12 -17  -46.90  146.10
  -9  12 -17   55.55   94.11
   9 -12  17   24.36   88.72
   9 -12  17   81.62  172.87
  -8  12 -17  -27.66   77.99
  -8  12 -17  -87.95  134.62
   8 -12  17   45.42   75.44
   8 -12  17   22.22  165.11
  -7  12 -17  743.79  188.29
   7 -12  17  566.19  209.18
  -6  12 -17    9.33   66.71
  -6  12 -17   83.01  116.43
   6 -12  17 -121.21   73.93
   6 -12  17   -5.23  155.58
  -5  12 -17 -265.33  113.32
  -5  12 -17  -55.22   62.99
   5 -12  17  -26.26  146.41
   5 -12  17   71.29   66.21
  -4  12 -17 -165.14  108.54
  -4  12 -17   38.85   57.49
   4 -12  17  -22.81   61.99
   4 -12  17 -122.93  155.22
  -3  12 -17  -39.85   56.97
  -3  12 -17    4.65  106.94
   3 -12  17  110.59  151.99
  -2  12 -17    3.55   53.29
  -2  12 -17   24.00  116.09
   2 -12  17 -168.40  156.32
  -2  12  17   28.61  160.83
   1 -12 -17  306.42  124.96
  -1  12 -17   10.81   86.96
   1 -12  17  985.68  197.59
  -1  12  17  168.05  194.08
   0  12 -17   34.13   63.01
   0 -12 -17  -72.49   93.40
   0  12  17   29.37  172.53
   0  12  17   93.85   85.51
  -1 -12 -17  627.41  170.71
   1  12  17  996.61  158.53
   1  12  17  247.83  240.67
  -2 -12 -17  -50.08  105.56
   2  12  17  -25.28  191.73
  -3 -12 -17  -70.43  108.25
   3  12  17  288.91  181.24
  -4 -12 -17    6.96  106.25
   4  12  17   -4.73  165.65
 -11  13 -17 -331.71  182.54
  11 -13  17 -102.07  199.53
 -10  13 -17 -366.74  184.98
 -10  13 -17  -42.31  103.68
  10 -13  17  -61.84   90.63
  10 -13  17    6.58  195.95
  -9  13 -17   24.44  146.66
  -9  13 -17   12.93   87.16
   9 -13  17  125.84  179.45
   9 -13  17  -12.97   82.97
  -8  13 -17   11.93   80.85
  -8  13 -17  -74.47  139.54
   8 -13  17   -5.96   83.77
   8 -13  17   84.64  173.68
  -7  13 -17  117.77  131.85
  -7  13 -17  -26.74   79.10
   7 -13  17   11.05   77.83
   7 -13  17  -76.41  175.29
  -6  13 -17  -40.33  121.39
  -6  13 -17  -19.54   69.63
   6 -13  17   53.03   80.26
   6 -13  17  -45.34  157.75
  -5  13 -17  775.17  191.44
   5 -13  17  695.15  236.42
  -4  13 -17   33.54   67.96
  -4  13 -17 -186.96  119.85
   4 -13  17 -319.10  167.52
   4 -13  17   -9.49   71.14
  -3  13 -17  -93.36   61.54
  -3  13 -17 -249.55  113.35
   3 -13  17  -18.84   69.13
   3 -13  17   11.95  167.11
  -2  13 -17    7.41   54.96
  -2  13 -17  -69.54  114.21
   2 -13  17   26.00  171.10
  -2  13  17 -389.20  184.14
   1 -13 -17  -33.56  107.38
  -1  13 -17  -63.95   60.27
  -1  13  17  298.64  179.62
   0 -13 -17  181.97  115.50
   0  13 -17   66.53   65.73
   0  13  17   38.39   95.97
   0  13  17  551.97  197.35
  -1 -13 -17  -55.51  104.08
   1  13  17  284.91  193.68
   1  13  17    4.07   87.08
  -2 -13 -17  -48.13  128.99
  -2 -13 -17   43.87  107.55
   2  13  17  -27.39  197.87
   2  13  17  106.08   96.65
  -3 -13 -17 -174.11  124.41
  -3 -13 -17  -54.58  107.63
   3  13  17  225.89  101.26
   3  13  17  369.99  197.29
  -4 -13 -17   94.20  122.37
  -4 -13 -17  -25.90  118.84
   4  13  17 -348.16  108.70
   4  13  17 -357.49  198.81
 -11  14 -17    7.30  177.04
  11 -14  17    7.34  197.26
 -10  14 -17  -66.30  105.84
 -10  14 -17    6.80  168.16
  10 -14  17  100.43   95.67
  10 -14  17   49.45  201.78
  -9  14 -17   13.72   91.92
  -9  14 -17  165.28  162.45
   9 -14  17 -115.65  201.02
   9 -14  17 -162.73   87.02
  -8  14 -17  -18.73   93.98
  -8  14 -17 -419.54  164.80
   8 -14  17    6.21   86.17
   8 -14  17  -12.95  190.75
  -7  14 -17 -225.37  135.07
  -7  14 -17   33.60   77.64
   7 -14  17   29.19   77.27
   7 -14  17  -61.85  176.82
  -6  14 -17   36.14  125.92
  -6  14 -17   31.28   76.31
   6 -14  17    5.53   73.98
   6 -14  17 -146.76  173.34
   5 -14  17  -30.12  168.90
   5 -14  17   21.08   77.92
   4 -14  17  -34.73   68.58
  -2  14  17 -353.96  194.43
   1 -14 -17 -142.01  120.71
  -1  14  17 -240.87  203.86
  -1  14  17 -278.98  109.54
   0 -14 -17  142.12  123.55
   0  14  17 -187.68  214.38
   0  14  17 -121.81  101.17
  -1 -14 -17  -85.08  123.77
  -1 -14 -17  -89.19  142.50
   1  14  17 -135.44  107.05
   1  14  17 -295.01  218.27
  -2 -14 -17  -33.13  120.31
  -2 -14 -17  106.93  143.14
   2  14  17 -310.30  108.42
   2  14  17   94.89  223.95
  -3 -14 -17   90.23  121.32
  -3 -14 -17   80.34  134.06
   3  14  17 -159.82  208.34
   3  14  17  -96.57  105.78
  -4 -14 -17  -53.77  138.37
  -4 -14 -17   58.64  129.69
   4  14  17 -163.88  204.32
   4  14  17   72.15  112.60
   5  14  17  159.35  210.82
  -2  15  17 -430.61  221.08
   1 -15 -17 -164.57  143.35
  -1  15  17 -771.46  219.92
  -1  15  17    5.27  108.90
   0 -15 -17  -86.19  139.04
   0  15  17 -207.16  116.16
   0  15  17  329.62  223.32
  -1 -15 -17  -78.43  162.56
  -1 -15 -17 -179.19  141.66
   1  15  17   25.12  108.21
   1  15  17  254.38  229.07
  -2 -15 -17  128.65  169.94
  -2 -15 -17   68.80  134.59
   2  15  17  147.81  229.13
   2  15  17  193.59  115.43
  -3 -15 -17  -19.19  143.94
  -3 -15 -17   29.89  148.75
   3  15  17    5.13  118.62
   3  15  17   25.43  229.02
  -4 -15 -17 -101.02  148.68
  -4 -15 -17  -13.27  152.62
   4  15  17   91.15  120.59
   4  15  17 -208.50  226.79
   5  15  17   20.49  227.75
   1 -16 -17  252.91  158.34
  -1  16  17 -121.95  124.86
  -1  16  17  -89.15  246.79
   0 -16 -17   43.12  172.51
   0 -16 -17   97.01  153.45
   0  16  17  178.16  123.77
   0  16  17 -402.07  238.71
  -1 -16 -17 -391.21  158.40
  -1 -16 -17 -260.23  184.70
   1  16  17 -646.07  257.00
   1  16  17 -151.26  135.01
  -2 -16 -17 -263.33  203.86
  -2 -16 -17 -672.02  194.38
  -3 -16 -17  849.59  921.42
  -3 -16 -17 2984.38  848.89
  -4 -16 -17 -215.56  180.21
   5  16  17  211.21  266.64
   5  16  17    6.19  144.59
   2 -17 -17 -183.55  173.18
  -2  17  17    7.47  260.93
   1 -17 -17 -215.33  175.86
  -1  17  17  141.59  138.24
  -1  17  17  496.19  264.16
   0 -17 -17 -286.23  177.01
   0 -17 -17  200.81  196.15
   0  17  17  300.83  143.58
   0  17  17  756.17  261.55
  -1 -17 -17  344.87  180.00
  -1 -17 -17  -11.99  177.82
   1  17  17 -296.28  262.03
   1  17  17  287.67  143.98
  -2 -17 -17   61.16  177.73
  -2 -17 -17 -299.81  179.88
   2  17  17 -139.32  136.38
   2  17  17   36.89  256.26
  -3 -17 -17 -148.59  191.52
  -3 -17 -17   -8.18  187.23
   3  17  17  134.12  255.57
   3  17  17  -38.74  145.56
  -4 -17 -17  168.32  190.57
  -4 -17 -17 -102.56  194.86
   4  17  17  199.66  158.74
   4  17  17  247.36  278.65
  -5 -17 -17  -61.14  200.68
  -5 -17 -17  -12.93  188.08
   5  17  17   27.45  158.45
   5  17  17 -273.32  282.03
   2 -18 -17   68.74  192.08
   1 -18 -17  136.01  188.10
   1 -18 -17  -78.28  213.20
  -1  18  17 -121.84  152.57
   0 -18 -17  305.19  192.15
   0 -18 -17   65.39  193.41
   0  18  17 -343.11  152.42
   0  18  17 -270.07  281.41
  -1 -18 -17   26.54  198.72
  -1 -18 -17  279.24  194.56
   1  18  17 -139.68  153.67
   1  18  17  446.43  289.88
  -2 -18 -17   27.08  213.71
  -2 -18 -17 -211.88  187.54
   2  18  17 -318.27  282.58
   2  18  17   14.09  152.62
  -3 -18 -17 -175.50  211.94
  -3 -18 -17  -55.84  204.73
   3  18  17  370.72  287.98
   3  18  17 -695.16  170.45
  -4 -18 -17 -143.29  203.99
  -4 -18 -17 -330.85  215.28
   4  18  17  132.38  170.13
   4  18  17 -331.87  308.17
  -5 -18 -17 -129.88  221.69
  -5 -18 -17  591.50  231.60
   5  18  17   37.72  180.31
   5  18  17   18.26  300.30
  -1   0 -18  -18.85   77.62
  -1   0 -18  -10.56   39.77
   1   0  18   33.09   97.88
  -1  -1 -18 1040.41  237.21
  -1   1 -18 1097.41  267.82
  -1   1 -18  972.44  227.72
   1  -1  18  866.36  284.93
   1   1  18  861.38  288.59
  -1   2 -18   35.04   81.12
  -1   2 -18   69.14   39.87
  -2  -1 -18    6.90   76.13
  -2  -1 -18    6.88   34.11
   2   1  18  -45.67   86.80
   1  -2  18  -72.03  102.38
  -2   0 -18   91.12   81.54
  -2   0 -18  112.18   38.08
   2   0  18   84.97   87.73
  -2   1 -18   46.43   76.32
  -2   1 -18   -4.91   33.55
  -1  -2 -18   -7.47   33.50
   2  -1  18   53.50   84.42
  -2   2 -18   90.80   48.07
  -2   2 -18   36.86   84.62
  -2  -2 -18  203.57   48.91
  -2  -2 -18  158.84   83.11
   2  -2  18  240.96  100.14
   2   2  18   46.18   98.53
  -2   3 -18   82.26   34.98
  -3  -2 -18   16.81   29.43
  -3  -2 -18   25.54   70.86
  -2   3 -18  113.29   86.96
   2  -3  18  -63.97   95.13
   3   2  18   15.17   82.43
  -1   3 -18  592.95  147.52
  -3  -1 -18  707.23  156.18
  -3  -1 -18  537.73  183.87
  -1   3 -18  604.80  182.30
   1  -3  18  811.95  201.52
   3   1  18  662.70  185.90
  -3   0 -18  -71.73   77.43
  -3   0 -18   -4.56   32.38
   0  -3 -18   51.43   40.69
   3   0  18    3.10   82.40
  -1  -3 -18  585.52  158.41
  -3   1 -18  472.12  176.95
  -3   1 -18  619.92  145.63
   3  -1  18  700.05  178.72
  -3   2 -18    7.30   32.75
  -3   2 -18   37.42   80.45
  -2  -3 -18   21.09   32.19
  -2  -3 -18   16.65   74.84
   2   3  18 -140.61   98.91
   3  -2  18  154.45   86.00
  -3  -3 -18  614.08  164.40
  -3   3 -18  704.88  151.58
  -3   3 -18  565.93  182.70
  -3  -3 -18  645.67  192.88
   3  -3  18  708.97  187.41
   3   3  18  750.68  196.41
  -4  -3 -18  844.02  219.88
  -3   4 -18  809.26  199.37
  -4  -3 -18  944.51  249.64
  -3   4 -18  917.77  238.06
   3  -4  18 1017.90  245.71
   4   3  18  933.12  206.16
   4   3  18  749.19  247.88
  -2   4 -18 1252.48  276.87
  -4  -2 -18  988.28  302.94
  -4  -2 -18 1376.36  336.20
  -2   4 -18 1450.93  327.59
   4   2  18 1165.04  333.74
   2  -4  18 1527.62  339.33
  -4  -1 -18  496.14  142.93
  -4  -1 -18  613.61  117.84
  -1   4 -18  359.23  143.24
   1  -4  18  476.31  166.74
   4   1  18  510.55  144.17
   0  -4 -18  480.91  131.78
  -4   0 -18  440.92  119.51
  -4   0 -18  565.27  143.51
   4   0  18  560.50  146.84
  -4   1 -18  452.77  110.55
  -4   1 -18  488.64  137.91
  -1  -4 -18  414.42  120.88
   4  -1  18  487.05  137.69
  -4   2 -18 1230.66  281.97
  -2  -4 -18 1255.52  332.70
  -4   2 -18 1141.82  315.29
  -2  -4 -18 1274.60  311.52
   4  -2  18 1267.94  321.28
   2   4  18 1304.02  355.57
  -3  -4 -18  987.12  230.80
  -4   3 -18  803.94  211.13
  -4   3 -18  943.45  241.91
  -3  -4 -18  966.61  259.32
   4  -3  18  888.07  246.18
   3   4  18 1114.80  266.49
  -4  -4 -18  534.75  130.50
  -4  -4 -18  609.47  157.80
  -4   4 -18  632.23  120.79
  -4   4 -18  -45.53  167.27
   4   4  18  762.17  159.24
   4  -4  18  183.56  164.67
   4   4  18  544.74  119.26
  -5  -4 -18  159.63   77.39
  -5  -4 -18   91.92   39.10
   5   4  18  106.93   34.68
   5   4  18   99.27   74.90
  -5  -3 -18  189.92   49.38
  -5  -3 -18  154.81   78.12
  -3   5 -18  -81.85  113.10
   3  -5  18  112.08  111.16
   5   3  18  172.41   44.15
   5   3  18  207.60   77.03
  -5  -2 -18  664.84  211.73
  -5  -2 -18  831.64  184.84
  -2   5 -18  755.12  212.01
   5   2  18  609.54  172.11
   2  -5  18  803.06  224.48
   5   2  18  746.00  211.79
  -5  -1 -18   86.81   71.65
  -1   5 -18  126.11   84.69
  -1   5 -18   50.58   43.34
  -5  -1 -18   69.37   39.94
   1  -5  18   92.60  113.06
   5   1  18   57.62   72.59
   5   1  18   73.18   36.83
   0  -5 -18   -2.51   35.05
  -5   0 -18  -14.65   36.41
   0   5 -18  102.93   45.02
  -5   0 -18    9.19   74.89
   0   5  18    8.78   77.03
   5   0  18    2.65   35.52
   5   0  18   13.00   69.11
  -5   1 -18   75.56   78.83
  -5   1 -18   79.04   38.91
  -1  -5 -18   54.47   36.78
   5  -1  18   21.64   73.70
   5  -1  18   42.37   44.36
  -5   2 -18  857.00  188.78
  -5   2 -18  856.61  214.12
   5  -2  18  876.00  218.18
   5  -2  18  695.93  185.90
  -5   3 -18  -97.42  103.01
  -5   3 -18 -158.82   60.96
   5  -3  18   72.76   58.18
  -5   4 -18  -78.33   57.15
   5  -4  18  -16.62   62.31
  -5   5 -18    3.64   90.17
   5  -5  18   90.61   95.38
  -5   6 -18   48.69   46.77
  -5   6 -18   -3.80   94.61
   5  -6  18  179.03   53.32
   5  -6  18    3.55   97.98
  -4   6 -18   96.44   43.90
  -4   6 -18    3.79   93.16
  -6  -4 -18   75.07   76.11
  -6  -4 -18    2.48   40.16
   6   4  18   14.06   31.58
   4  -6  18   95.58  103.09
   6   4  18  133.43   71.69
  -3   6 -18  998.45  196.82
  -6  -3 -18  833.55  218.11
  -6  -3 -18 1106.85  249.85
  -3   6 -18  957.29  238.89
   6   3  18  664.93  201.33
   3  -6  18  405.46  253.84
   6   3  18  899.22  248.49
  -2   6 -18  -66.04  103.42
  -6  -2 -18   -2.91   78.35
  -6  -2 -18   95.37   41.80
  -2   6 -18   82.12   42.59
   6   2  18   11.83   35.82
   6   2  18  125.56   70.91
   2  -6  18 -145.81  120.66
  -6  -1 -18  837.57  162.15
  -1   6 -18  595.03  169.16
  -1   6 -18  423.67  123.31
  -6  -1 -18  482.57  132.88
   6   1  18  271.27  124.82
   6   1  18  436.23  159.10
   1  -6  18  497.99  193.37
   0   6 -18   55.57   51.57
  -6   0 -18   68.90   48.83
  -6   0 -18  193.21   84.61
   6   0  18   59.54   46.39
   6   0  18  202.73   78.61
   0   6  18   29.78   94.94
  -6   1 -18  559.53  145.97
   6  -1  18  630.99  142.39
   1   6  18  623.02  205.31
  -6   2 -18  -58.20   52.34
   6  -2  18  -67.07   48.71
  -6   3 -18  929.43  240.48
  -6   3 -18 1491.10  263.67
   6  -3  18 1046.99  237.95
   6  -3  18  937.64  272.95
  -6   4 -18  139.38   54.92
  -6   4 -18   -3.51   90.46
   6  -4  18  204.60   96.46
   6  -4  18   98.20   55.28
  -6   5 -18  -66.21   91.11
   6  -5  18    3.32   96.20
  -6   7 -18    3.61   54.12
   6  -7  18    3.97   54.64
  -4   7 -18  293.61   59.86
  -4   7 -18  204.71  105.32
  -7  -4 -18  149.84   60.08
  -7  -4 -18  106.27   84.41
   4  -7  18    3.90  113.49
   7   4  18  164.62   47.98
  -3   7 -18   -2.92   40.70
  -3   7 -18   -4.03   95.35
  -7  -3 -18   38.30   72.76
  -7  -3 -18   14.56   40.56
   3  -7  18   -4.17  114.85
   7   3  18   21.10   69.80
   7   3  18  -31.08   31.39
  -7  -2 -18  412.84  116.92
  -2   7 -18  301.14  108.57
  -7  -2 -18  690.20  142.08
  -2   7 -18  524.75  153.83
   2  -7  18    9.15  169.84
   7   2  18  394.99  107.86
   7   2  18  741.83  144.64
  -1   7 -18   12.59   43.17
  -1   7 -18 -126.03   97.79
  -7  -1 -18   21.03   41.86
  -7  -1 -18   67.12   78.79
   7   1  18   21.02   36.31
   1  -7  18    5.14  127.70
   7   1  18  -38.03   72.85
   0   7 -18  -14.23   52.90
  -7   0 -18   97.02   76.85
  -7   0 -18   72.67   45.55
   7   0  18   31.11   42.47
   0   7  18   50.89  107.12
   7   0  18  -65.87   75.53
  -7   1 -18  -12.62   47.58
  -7   1 -18   68.39   80.07
   1   7  18  -39.71  119.67
   7  -1  18  101.53   81.04
   7  -1  18  -12.08   41.31
  -7   2 -18  545.55  143.77
  -7   2 -18  475.34  121.25
   7  -2  18  381.49  117.01
   7  -2  18  578.85  151.51
  -7   3 -18    3.35   46.00
  -7   3 -18  -45.44   82.72
   7  -3  18  121.15   86.02
   7  -3  18  -30.62   47.87
  -7   4 -18   -3.64   98.08
   7  -4  18    3.19   94.37
  -7   6 -18    3.81   54.82
   7  -6  18    4.01   56.64
  -7   7 -18    3.98   58.99
  -7   7 -18 -318.51  110.24
   7  -7  18  -71.98   65.58
   7  -7  18    3.88  109.38
  -7   8 -18 -124.03  119.35
  -7   8 -18    4.17   60.76
   7  -8  18 -151.85   68.39
  -6   8 -18   -3.78   56.21
  -6   8 -18    4.29  101.53
   6  -8  18  -20.52  115.12
   6  -8  18   16.81   61.15
  -5   8 -18   58.26   53.20
   5  -8  18  -12.07   54.60
  -8  -4 -18   45.48   49.55
  -8  -4 -18  125.60   77.02
  -8  -3 -18  250.55   84.60
  -3   8 -18   29.49   96.74
  -8  -3 -18  146.35   60.01
   8   3  18  237.12   84.51
   8   3  18   99.76   46.24
   3  -8  18   44.77  126.08
  -2   8 -18  162.51   98.28
  -8  -2 -18   12.17   76.70
  -8  -2 -18   27.83   47.52
  -2   8 -18  135.68   46.09
   8   2  18  -16.71   37.61
   8   2  18  -20.51   70.44
   2  -8  18   -4.85  124.72
  -1   8 -18   94.47   50.94
  -1   8 -18   84.16  102.50
  -8  -1 -18  136.71   80.42
  -8  -1 -18   48.58   53.18
   8   1  18   57.76   46.19
   1  -8  18   92.51  134.61
   8   1  18  180.51   80.82
  -1   8  18   -6.19  112.74
   0   8 -18  -25.51   53.01
  -8   0 -18  -50.97   74.08
  -8   0 -18   10.39   47.99
   0   8  18  -16.44  117.52
   8   0  18 -155.37   78.30
   8   0  18   45.90   40.69
  -8   1 -18   67.74   59.94
  -8   1 -18  104.89   89.84
  -1  -8 -18   80.77   69.61
   8  -1  18  164.14   87.14
   1   8  18    3.45  133.31
   8  -1  18  214.17   53.10
  -8   2 -18  103.91   52.49
  -8   2 -18 -135.60   85.47
   2   8  18  -15.98   61.68
   8  -2  18   23.99   84.66
   2   8  18  -10.50  135.90
   8  -2  18   26.97   45.41
  -8   3 -18   -3.52   84.46
   8  -3  18   -3.14   90.75
  -8   5 -18  481.68  116.50
   8  -5  18  324.57  120.79
  -8   6 -18 -180.50   60.24
  -8   6 -18   58.42  108.99
   8  -6  18   18.73  109.32
   8  -6  18    8.30   59.53
  -8   7 -18   -4.39   66.05
  -8   7 -18 -303.81  114.28
   8  -7  18  -52.62   64.46
   8  -7  18  -60.31  123.15
  -8   8 -18    4.60   68.26
  -8   8 -18   83.32  117.74
   8  -8  18    4.29  127.62
   8  -8  18   -4.65   64.36
  -8   9 -18    4.91  120.36
  -8   9 -18    9.67   75.20
   8  -9  18   -4.69  126.46
   8  -9  18   29.49   68.63
  -7   9 -18    4.38   57.79
  -7   9 -18   89.23  119.96
   7  -9  18   80.07   64.18
   7  -9  18   -4.50  124.12
  -6   9 -18    3.96   57.14
  -6   9 -18  112.84  105.51
   6  -9  18    4.44   59.82
   6  -9  18  -40.23  129.97
  -5   9 -18   18.01   54.70
  -5   9 -18 -362.33  119.26
   5  -9  18 -224.60  134.44
   5  -9  18 -197.20   63.66
  -4   9 -18 -146.40   49.26
  -9  -3 -18  205.84   82.53
   9   3  18  126.10   46.24
  -9  -2 -18  123.66   57.45
  -9  -2 -18  107.77   78.54
   9   2  18   61.97   44.94
  -9  -1 -18 -109.95   81.43
  -1   9 -18  150.88  105.69
  -9  -1 -18   27.91   56.51
   1  -9  18    5.79  147.52
   9   1  18   83.86   46.32
  -1   9  18    3.51  119.94
  -9   0 -18   55.85   58.63
  -9   0 -18   86.95   78.12
   9   0  18  -20.33   45.92
   0   9  18  -33.30  132.76
  -9   1 -18  150.58   84.38
  -1  -9 -18   57.51   74.67
   1   9  18    7.66  147.57
   1   9  18   89.60   71.72
   2   9  18   90.16  156.81
   2   9  18   96.74   70.75
  -9   3 -18    4.23   57.90
   9  -3  18   15.30   47.43
  -9   4 -18 -131.32   59.67
  -9   4 -18  -68.24   86.24
   9  -4  18    4.04   57.98
   9  -4  18   93.31   96.83
  -9   5 -18  128.54  102.47
  -9   5 -18    4.54   64.54
   9  -5  18    4.27   59.90
   9  -5  18   -3.68  103.69
  -9   6 -18   -4.73   65.03
  -9   6 -18   93.35  106.19
   9  -6  18   46.84  101.64
  -9   7 -18   14.82   65.42
  -9   7 -18  -59.18  109.59
   9  -7  18    4.21  109.45
   9  -7  18   19.04   68.61
  -9   8 -18   56.93   77.35
  -9   8 -18  145.16  117.38
   9  -8  18   15.09   71.58
   9  -8  18   90.04  126.54
  -9   9 -18    5.19  125.29
  -9   9 -18   -5.43   74.72
   9  -9  18   -5.31   69.61
   9  -9  18  116.71  139.13
  -9  10 -18    5.71   84.40
  -9  10 -18  503.39  151.31
   9 -10  18  165.11  160.12
   9 -10  18   67.30   90.88
  -8  10 -18    5.09   73.65
  -8  10 -18   -5.19  122.86
   8 -10  18 -167.60   74.96
   8 -10  18 -107.50  146.70
  -7  10 -18    4.60   63.64
  -7  10 -18  128.95  125.32
   7 -10  18   -4.98   71.56
   7 -10  18    9.89  142.06
  -6  10 -18  108.90  113.99
  -6  10 -18    4.32   63.81
   6 -10  18  -28.20   69.49
   6 -10  18   -4.88  135.56
  -5  10 -18 -274.23  112.04
  -5  10 -18    3.90   58.99
   5 -10  18    4.79  134.38
   5 -10  18    4.43   59.58
  -4  10 -18    4.49  116.74
  -4  10 -18   85.96   60.96
   4 -10  18  -39.40   62.34
   4 -10  18  -24.71  135.95
 -10  -3 -18  517.79  132.07
   3 -10  18  533.84  169.61
 -10  -2 -18 -146.78   83.67
  -2  10 -18  -43.99   55.25
 -10  -1 -18   19.52   80.23
  -1  10  18  170.96  142.18
   0 -10 -18   50.43   79.02
   0  10  18   70.12  144.33
  -1 -10 -18  -42.74   79.45
 -10   1 -18    4.59   59.19
   1  10  18  -62.21   74.78
   1  10  18   38.19  158.08
  10  -1  18   46.05   49.75
  -2 -10 -18  -17.74   76.40
 -10   2 -18  -74.67   92.50
 -10   2 -18   -4.64   59.76
   2  10  18  -99.28  174.73
  10  -2  18  -72.52   55.83
   2  10  18  -90.52   75.96
 -10   3 -18   42.86   73.37
 -10   3 -18  196.52  101.48
  10  -3  18   67.40   62.45
 -10   4 -18    4.91   69.88
 -10   4 -18  -66.18   97.76
  10  -4  18  137.38   62.86
 -10   5 -18    4.15  102.41
 -10   5 -18 -195.05   72.60
  10  -5  18  -46.69   65.27
 -10   6 -18    4.40  106.52
  10  -6  18    4.08  110.19
 -10   7 -18    5.42   76.13
 -10   7 -18    4.71  117.13
  10  -7  18   10.39   67.51
  10  -7  18    4.38  121.90
 -10   8 -18  118.82   79.12
 -10   8 -18   10.02  114.98
  10  -8  18   98.75   82.89
  10  -8  18   18.73  130.61
 -10   9 -18    5.93   85.22
 -10   9 -18   97.37  124.79
  10  -9  18   69.62   83.65
  10  -9  18  320.19  155.18
 -10  10 -18    6.32   87.34
 -10  10 -18   11.66  144.18
  10 -10  18    6.12   81.86
  10 -10  18   16.38  154.60
 -10  11 -18    6.18  149.05
 -10  11 -18   13.26   92.61
  10 -11  18   47.25  167.90
  10 -11  18    6.46   84.72
  -9  11 -18   34.85  145.38
  -9  11 -18  -36.02   82.79
   9 -11  18   -5.70  161.39
   9 -11  18   47.30   82.00
  -8  11 -18 -400.80  140.91
  -8  11 -18 -110.05   80.52
   8 -11  18   16.62   76.34
   8 -11  18   27.32  156.97
  -7  11 -18   15.64  126.71
  -7  11 -18    4.95   65.46
   7 -11  18    5.24   67.48
   7 -11  18    5.39  146.27
  -6  11 -18   29.75  121.84
  -6  11 -18    4.53   65.29
   6 -11  18   64.63   68.53
   6 -11  18  -67.64  147.87
  -5  11 -18   99.82  115.79
  -5  11 -18   -4.10   60.08
   5 -11  18    5.24  147.19
   5 -11  18   14.04   69.82
  -4  11 -18 -393.46  113.49
  -4  11 -18  -52.97   56.72
   4 -11  18  -10.55  141.44
   4 -11  18    4.56   64.54
  -3  11 -18    4.80  110.67
  -3  11 -18   42.78   51.82
   3 -11  18   66.04  150.46
  -2  11 -18   34.33  105.99
  -2  11 -18   -7.13   52.05
   2 -11  18   59.65  158.42
   1 -11  18  546.04  196.53
 -11   0 -18   24.55   83.90
   0  11 -18  -39.27   59.66
 -11   1 -18  202.05  100.93
  -1 -11 -18  114.03   96.45
   1  11  18  233.27   92.15
  -2 -11 -18    3.94   86.39
 -11   2 -18    3.74   90.56
   2  11  18   -6.66   82.93
  11  -2  18   48.08   55.28
 -11   3 -18  -38.90   98.33
  11  -3  18    4.55   58.94
 -11   4 -18  215.58  102.20
  11  -4  18    4.76   60.54
 -11   5 -18  -81.63  101.44
 -11   5 -18    5.56   72.61
  11  -5  18   -4.98   61.34
 -11   6 -18 -155.01  103.87
 -11   7 -18    9.82  114.37
 -11   7 -18 -328.99   83.60
  11  -7  18   11.06   72.41
 -11   8 -18   -5.24  127.58
 -11   8 -18    6.23   81.10
  11  -8  18    5.83   78.01
  11  -8  18 -190.55  133.81
 -11   9 -18 -152.09  131.79
 -11   9 -18    6.52   87.87
  11  -9  18   36.95   79.44
  11  -9  18 -126.65  147.80
 -11  10 -18 -218.44   94.98
 -11  10 -18    6.09  150.17
  11 -10  18    5.67  163.51
  11 -10  18   -6.50   88.56
 -11  11 -18 -149.39  160.19
 -11  11 -18   -7.16   98.58
  11 -11  18    6.16  179.48
  11 -11  18   27.50   93.48
 -11  12 -18  174.02  174.06
  11 -12  18   53.24  190.07
  11 -12  18    7.25   91.16
 -10  12 -18    6.50  160.74
 -10  12 -18    6.95  100.44
  10 -12  18  -61.17   91.23
  10 -12  18   -6.45  188.85
  -9  12 -18 -238.40  154.62
  -9  12 -18   -6.31   84.61
   9 -12  18    6.20  173.96
   9 -12  18   75.97   86.06
  -8  12 -18  167.67  137.57
  -8  12 -18    5.79   82.94
   8 -12  18  221.44  165.97
   8 -12  18   11.70   78.91
  -7  12 -18  201.15  126.77
  -7  12 -18 -202.78   74.67
   7 -12  18   91.57  159.35
   7 -12  18  143.00   78.85
  -6  12 -18    4.75   71.86
  -6  12 -18  134.21  137.02
   6 -12  18  118.94  173.96
   6 -12  18   63.43   76.92
  -5  12 -18   13.46   64.74
  -5  12 -18  -49.46  117.46
   5 -12  18   34.55   67.04
   5 -12  18    5.56  155.26
  -4  12 -18   98.24  114.05
  -4  12 -18   20.47   60.58
   4 -12  18  -17.06  161.72
   4 -12  18    4.77   67.71
  -3  12 -18   54.18  112.66
  -3  12 -18    3.82   62.08
   3 -12  18   -5.94  160.07
  -2  12 -18  248.91  124.44
  -2  12 -18    7.50   72.03
   2 -12  18  186.32  177.84
  -1  12 -18   -7.64   58.90
   1 -12  18  329.76  180.89
  -1  12  18  160.86  172.26
   0 -12 -18  -14.84   97.88
   0  12 -18   80.48   60.04
   0  12  18  352.68  176.40
   0  12  18 -124.42   88.68
  -1 -12 -18 -135.28   99.97
   1  12  18 -128.40  185.34
   1  12  18   -3.84   86.98
  -2 -12 -18   44.34  135.89
  -2 -12 -18  606.38  113.01
   2  12  18 -242.14  204.51
   3  12  18 -152.10  187.23
   3  12  18   -3.64   75.35
 -11  13 -18  -50.96  183.03
  11 -13  18 -231.97  214.22
  11 -13  18   68.62  101.32
 -10  13 -18    6.83  162.70
 -10  13 -18   65.57  112.64
  10 -13  18  154.19  201.12
  10 -13  18   -7.17   94.58
  -9  13 -18 -514.90  188.13
  -9  13 -18 -209.75  112.82
   9 -13  18    6.67  101.81
   9 -13  18 -541.50  214.92
  -8  13 -18 -164.22   88.13
  -8  13 -18   -6.03  140.80
   8 -13  18  105.81   84.21
   8 -13  18   45.36  185.78
  -7  13 -18 -175.41  140.78
  -7  13 -18 -202.41   90.87
   7 -13  18   49.67  180.66
   7 -13  18  -34.43   83.92
  -6  13 -18   56.61   75.68
  -6  13 -18   -5.32  129.85
   6 -13  18  -98.38  185.01
   6 -13  18 -144.00   77.29
  -5  13 -18   32.85   72.78
  -5  13 -18 -122.65  128.22
   5 -13  18  -66.53  170.56
   5 -13  18   15.68   67.08
  -4  13 -18 -225.74  139.22
  -4  13 -18  -34.43   77.03
   4 -13  18 -262.88   79.71
   4 -13  18 -268.88  180.06
  -3  13 -18  -96.19  121.31
  -3  13 -18  -16.41   64.55
   3 -13  18 -336.33  187.41
   3 -13  18   -4.96   80.12
  -2  13 -18   15.66   61.81
  -2  13 -18  -47.42  121.15
   2 -13  18 -164.84  186.40
   1 -13 -18  181.77  113.43
  -1  13 -18   35.84   66.16
  -1  13  18  409.18  192.50
   0 -13 -18  108.43  108.87
   0  13 -18   74.80   63.08
   0  13  18 -250.05  195.53
   0  13  18  -13.06   93.25
  -1 -13 -18  238.94  111.44
   1  13  18  105.35   97.69
   1  13  18 -105.72  194.86
  -2 -13 -18   63.85  102.67
  -2 -13 -18   90.00  128.62
   2  13  18 -128.07  202.78
   2  13  18   20.54   94.45
  -3 -13 -18  -40.49  126.93
  -3 -13 -18  -92.47  116.33
   3  13  18 -281.43  103.89
   3  13  18 -442.58  220.93
 -11  14 -18  -76.06  190.63
  11 -14  18   30.68  220.08
  11 -14  18  -16.01  103.98
 -10  14 -18   57.07  180.76
 -10  14 -18    7.68  104.73
  10 -14  18    7.39  209.52
  10 -14  18   14.98   96.70
  -9  14 -18   53.44  163.49
  -9  14 -18   63.61  103.23
   9 -14  18   78.67  207.10
   9 -14  18 -155.51   99.75
  -8  14 -18 -340.05  105.85
   8 -14  18    6.50   91.88
   8 -14  18 -292.90  215.52
  -7  14 -18  -11.65  138.58
  -7  14 -18  111.76   89.19
   7 -14  18    6.69  197.64
   7 -14  18   36.20   82.61
  -6  14 -18 -164.78  136.20
  -6  14 -18  -42.98   72.47
   6 -14  18 -187.82  180.21
   6 -14  18   17.36   82.52
  -5  14 -18   30.45   71.12
  -5  14 -18 -121.90  125.19
   5 -14  18 -226.48  183.75
   5 -14  18   -5.49   80.90
  -4  14 -18   50.85   69.80
  -4  14 -18  218.79  128.84
   4 -14  18    6.51  176.45
   4 -14  18   26.03   73.77
   3 -14  18   10.22   71.26
   3 -14  18  246.02  180.80
  -2  14  18  -46.33  195.13
   1 -14 -18   31.20  113.02
  -1  14  18    5.81  192.12
   0 -14 -18 -282.56  129.08
   0  14  18   35.65  211.00
   0  14  18 -222.90  108.08
  -1 -14 -18  -45.49  133.55
  -1 -14 -18   -5.82  115.45
   1  14  18  227.35  214.26
   1  14  18  -97.69  103.22
  -2 -14 -18  105.32  120.22
  -2 -14 -18  -36.41  142.49
   2  14  18   60.24  216.27
   2  14  18   22.45  101.95
  -3 -14 -18  160.28  126.82
  -3 -14 -18  -36.49  140.55
   3  14  18   86.83  106.64
   3  14  18   36.10  212.10
  -2  15  18 -132.88  215.32
   1 -15 -18   76.07  125.93
  -1  15  18  -44.42  218.34
   0 -15 -18   40.29  131.49
   0  15  18  -62.61  110.62
   0  15  18   70.62  221.60
  -1 -15 -18  -99.66  155.02
  -1 -15 -18  104.73  135.02
   1  15  18 -311.00  228.16
   1  15  18    5.16  113.25
  -2 -15 -18  201.88  170.24
  -2 -15 -18   94.28  127.04
   2  15  18 -169.52  227.60
   2  15  18 -115.25  109.17
  -3 -15 -18   10.17  153.68
  -3 -15 -18 -169.43  137.41
   3  15  18 -102.19  119.27
   3  15  18  -58.17  228.07
   4  15  18 -151.30  233.96
   1 -16 -18   30.84  169.56
  -1  16  18 -658.85  272.93
   0 -16 -18 -437.89  208.40
   0 -16 -18  557.31  191.57
   0  16  18  351.59  279.19
  -1 -16 -18 -280.75  186.78
  -1 -16 -18  309.82  184.34
   1  16  18 -424.38  286.89
   1  16  18 -661.03  155.48
  -2 -16 -18  -55.91  183.58
  -3 -16 -18 -135.23  151.61
  -3 -16 -18   68.45  166.41
   3  16  18 -132.77  241.39
   3  16  18 -142.56  131.35
   4  16  18   21.88  250.91
  -2  17  18 -136.17  262.41
   1 -17 -18   86.49  172.01
  -1  17  18  314.67  267.69
   0 -17 -18   23.95  189.23
   0 -17 -18 -356.55  170.51
   0  17  18   38.51  138.16
   0  17  18  194.10  259.46
  -1 -17 -18  -48.76  179.18
  -1 -17 -18   16.73  174.42
   1  17  18    6.42  139.89
   1  17  18    7.49  265.53
  -2 -17 -18  121.21  182.06
  -2 -17 -18  136.93  188.09
   2  17  18 -426.49  150.03
   2  17  18  180.96  264.24
  -3 -17 -18 -138.79  198.08
  -3 -17 -18 -120.91  182.38
   3  17  18 -317.54  151.44
   3  17  18 -188.00  256.44
   4  17  18 -286.90  154.34
   4  17  18  217.69  271.52
   1 -18 -18  370.33  212.31
   0 -18 -18   -9.61  195.57
   0  18  18  128.97  154.89
   0  18  18    8.03  243.94
  -1 -18 -18 -296.14  204.74
  -1 -18 -18 -142.23  205.35
   1  18  18   57.43  159.42
  -2 -18 -18   55.05  217.00
  -2 -18 -18 -157.91  198.74
   2  18  18 -225.18  285.31
   2  18  18 -326.97  163.13
  -3 -18 -18  -18.25  203.98
  -3 -18 -18   99.30  220.33
   3  18  18   33.19  281.77
   3  18  18   57.71  159.54
  -4 -18 -18  194.99  206.10
   4  18  18   51.25  170.20
  -1   0 -19 1049.96  232.85
   1   0  19  839.27  289.30
  -1  -1 -19    8.22   39.91
  -1   1 -19  -12.42   84.26
  -1   1 -19   54.76   42.00
   1  -1  19 -113.20  113.21
   1   1  19  -44.82  103.98
  -2  -1 -19  -63.37   86.31
  -1   2 -19  -84.08   88.82
  -1   2 -19    5.90   39.37
  -2  -1 -19  -22.26   38.55
   2   1  19  -70.18   97.09
   1  -2  19  -68.83  110.45
  -2   0 -19   20.53   38.45
  -2   0 -19  -52.93   82.01
   2   0  19   50.44   95.94
  -2   1 -19    5.26   37.92
  -1  -2 -19    5.32   38.91
  -2   1 -19  -38.61   84.35
   2  -1  19  -54.97   95.87
  -2  -2 -19   11.02   78.12
  -2  -2 -19    2.39   34.64
  -2   2 -19  -70.77   84.57
  -2   2 -19   -8.09   40.04
   2  -2  19  -72.18  101.67
   2   2  19   62.43   99.73
  -3  -2 -19 1013.47  292.13
  -3  -2 -19  852.42  256.79
  -2   3 -19 1262.33  233.23
  -2   3 -19 1136.75  280.26
   3   2  19  990.42  292.77
   2  -3  19  940.34  292.69
  -3  -1 -19   19.06   36.17
  -3  -1 -19   60.38   81.38
  -1   3 -19   30.00   93.06
  -1   3 -19   84.74   45.87
   3   1  19  -13.51   87.01
   1  -3  19   32.85  110.08
  -3   0 -19  541.06  180.93
  -3   0 -19  637.25  150.74
   3   0  19  675.83  190.37
  -3   1 -19   22.80   38.77
  -3   1 -19  -10.89   81.04
  -1  -3 -19   81.99   42.33
   3  -1  19  180.35   92.74
  -2  -3 -19 1164.24  258.11
  -2  -3 -19  918.41  284.23
  -3   2 -19 1185.09  274.09
  -3   2 -19 1148.30  233.49
   3  -2  19  867.73  279.49
   2   3  19  747.04  301.91
  -3   3 -19    2.68   39.10
  -3  -3 -19   30.85   75.24
  -3  -3 -19   -2.17   35.30
  -3   3 -19  -71.84   85.10
   3   3  19  -20.21   90.49
   3  -3  19  -88.63   98.71
  -4  -3 -19 1337.52  338.17
  -3   4 -19 1455.14  266.44
   4   3  19  762.61  278.14
   4   3  19 1020.57  334.75
  -4  -2 -19  373.87  115.63
  -2   4 -19  415.76  124.43
  -4  -2 -19  274.77   81.80
  -2   4 -19  378.01   81.01
   4   2  19  199.56  113.49
   2  -4  19  200.43  137.93
  -4  -1 -19  832.94  209.80
  -4  -1 -19 1081.02  238.26
  -1   4 -19  868.67  194.10
  -1   4 -19  881.35  240.00
   4   1  19  742.56  236.91
   1  -4  19  894.15  258.05
  -4   0 -19   21.95   37.12
  -4   0 -19   50.78   80.45
   4   0  19   15.27   79.37
  -4   1 -19 1027.37  231.38
  -4   1 -19  810.02  201.50
  -1  -4 -19  820.60  221.39
   4  -1  19  790.39  235.28
  -4   2 -19  296.98   77.79
  -2  -4 -19  289.66   82.05
  -4   2 -19  127.92  116.45
   4  -2  19  169.62  120.53
   2   4  19  644.79  135.07
  -3  -4 -19  731.38  317.42
  -4   3 -19 1538.43  286.81
  -3  -4 -19 1190.94  350.59
   3   4  19 1422.01  361.32
  -4   4 -19   13.90   41.07
  -4   4 -19   79.19   82.79
  -4  -4 -19  -22.38   29.17
  -4  -4 -19  -44.48   77.18
   4   4  19   -2.96   82.31
   4  -4  19   -3.55  100.38
   4   4  19    6.20   31.50
  -5  -4 -19  271.88   81.87
  -4   5 -19  311.14  119.79
  -5  -4 -19  425.80  114.77
   5   4  19  441.24  113.98
   4  -5  19    7.47  128.64
   5   4  19  218.65   73.93
  -5  -3 -19  878.87  219.57
  -3   5 -19  755.96  212.35
  -5  -3 -19  677.13  189.20
   5   3  19  771.52  175.67
   5   3  19  771.31  217.28
  -5  -2 -19  825.76  184.69
  -2   5 -19  215.91  184.45
  -5  -2 -19  806.26  156.89
   5   2  19  527.72  145.25
   5   2  19  905.47  184.07
   2  -5  19  217.74  200.60
  -1   5 -19  617.08  165.57
  -5  -1 -19  372.41  125.32
  -5  -1 -19  574.81  153.24
   5   1  19  340.16  118.91
   1  -5  19  797.07  189.05
   5   1  19  467.97  150.87
  -5   0 -19 1034.07  228.92
  -5   0 -19  671.37  197.27
   5   0  19  905.66  228.18
   5   0  19  776.06  191.46
  -5   1 -19  521.00  144.75
  -5   1 -19  966.88  176.94
   5  -1  19  928.20  175.55
   5  -1  19  389.47  143.32
  -5   2 -19  363.96  178.00
  -5   2 -19  828.30  145.48
   5  -2  19  328.55  183.46
   5  -2  19  594.13  143.45
  -5   3 -19  849.55  185.64
  -5   3 -19  708.18  211.27
   5  -3  19  719.16  220.11
   5  -3  19  936.51  184.61
  -5   4 -19  437.05  132.43
  -5   4 -19  496.96   98.86
   5  -4  19  394.27  100.94
   5  -4  19  275.26  135.71
  -5   5 -19   -3.89   95.15
   5  -5  19  -51.25   99.55
  -4   6 -19    4.04  107.85
  -6  -4 -19  269.76   88.25
  -6  -4 -19  202.87   53.31
   4  -6  19    8.07  118.18
  -3   6 -19  311.11   68.71
  -3   6 -19  204.47  111.02
  -6  -3 -19  133.38   68.81
  -6  -3 -19  291.53   99.01
   3  -6  19  175.32  131.28
   6   3  19  174.35   62.33
   6   3  19  356.59   98.41
  -2   6 -19  723.43  136.67
  -2   6 -19  358.03  181.48
  -6  -2 -19  556.89  180.12
  -6  -2 -19  568.75  152.55
   6   2  19  584.14  141.60
   2  -6  19  241.94  202.54
   6   2  19  586.04  180.46
  -6  -1 -19  -19.36   82.92
  -1   6 -19   65.30   49.39
  -1   6 -19   88.24  104.96
  -6  -1 -19   56.41   41.99
   1  -6  19    5.23  133.63
   6   1  19   18.83   77.82
   6   1  19   91.84   41.93
  -6   0 -19   74.28   42.72
  -6   0 -19   -9.90   81.66
   6   0  19    2.89   37.97
   6   0  19   -8.38   78.94
   0   6  19  -66.01   96.41
  -6   1 -19   91.39   86.86
  -6   1 -19   83.70   50.22
   6  -1  19   88.71   46.88
   6  -1  19  226.78   85.50
  -6   2 -19 1019.42  204.96
  -6   2 -19  626.85  180.72
   6  -2  19  777.97  177.68
   6  -2  19  901.14  210.19
  -6   3 -19  340.11  107.00
  -6   3 -19  302.28   71.87
   6  -3  19  139.74  106.79
   6  -3  19  135.80   69.39
  -6   4 -19  248.76   97.12
   6  -4  19    3.43   98.22
   6  -4  19   -3.57   43.97
  -6   6 -19    3.51   52.60
   6  -6  19   -3.94   52.74
  -6   7 -19  139.38   57.09
  -6   7 -19  -38.92  109.44
   6  -7  19   -4.16  115.07
   6  -7  19   74.75   64.42
  -5   7 -19   -3.36   51.76
   5  -7  19    4.04   59.50
  -7  -4 -19    3.03   42.93
  -7  -3 -19  541.51  152.69
  -7  -3 -19  636.72  125.74
  -3   7 -19  416.66  157.73
   7   3  19  428.67  153.02
   7   3  19  470.86  113.81
   3  -7  19   94.87  175.68
  -7  -2 -19  109.95   54.14
  -7  -2 -19  252.74   87.98
  -2   7 -19  209.64   53.93
  -2   7 -19  144.51  113.61
   7   2  19   78.44   85.14
   2  -7  19   -4.91  133.18
   7   2  19   96.16   47.55
  -1   7 -19  134.46  129.45
  -7  -1 -19  286.90   71.74
  -1   7 -19  280.80   73.39
  -7  -1 -19  150.46  100.81
   7   1  19  204.67   68.21
   7   1  19  314.86  103.18
   1  -7  19   76.88  152.90
  -7   0 -19  -35.42   46.76
  -7   0 -19   50.49   81.28
   7   0  19   93.03   76.90
   0   7  19   60.60  104.94
   7   0  19  -27.08   39.54
  -7   1 -19  265.79   73.40
  -7   1 -19  251.15  100.94
   7  -1  19  190.52  102.64
   7  -1  19  195.62   68.74
  -7   2 -19  216.40   92.06
  -7   2 -19   51.29   53.12
   7  -2  19   15.30   86.84
   7  -2  19   81.82   51.11
  -7   3 -19  577.03  162.95
   7  -3  19  604.43  171.20
  -7   5 -19    3.73   53.07
   7  -5  19    4.02   56.41
  -7   6 -19    4.20  106.11
  -7   6 -19   46.71   55.83
   7  -6  19  -31.32  112.16
  -7   7 -19  372.34  152.01
   7  -7  19   -4.46  101.46
   7  -7  19  323.98  130.45
  -7   8 -19   -4.41   69.12
  -7   8 -19  201.97  126.26
   7  -8  19   68.24  128.63
   7  -8  19   56.31   72.55
  -6   8 -19   27.27  109.44
  -6   8 -19    3.99   59.73
   6  -8  19   21.89   65.28
   6  -8  19   13.27  127.81
  -5   8 -19 -195.28  109.38
  -5   8 -19   18.06   58.73
   5  -8  19   -4.48  123.42
   5  -8  19    4.22   62.34
  -4   8 -19    3.34   50.39
  -8  -3 -19   70.83   81.99
  -8  -3 -19  -49.34   50.20
   8   3  19    2.74   35.27
   8   3  19   34.65   79.36
  -8  -2 -19  101.71   85.90
  -8  -2 -19  116.27   59.55
   8   2  19  119.47   49.94
   8   2  19  163.22   86.94
  -8  -1 -19   30.13   82.60
  -8  -1 -19   24.63   44.81
   8   1  19  -45.83   84.86
   8   1  19  -30.24   40.79
  -8   0 -19   76.12   54.20
  -8   0 -19  -54.81   83.37
   8   0  19  201.67   84.86
   0   8  19  -16.75  120.67
   8   0  19  -28.54   44.35
  -8   1 -19  273.39   56.91
  -8   1 -19   38.71   86.44
   8  -1  19  100.51   48.16
   8  -1  19    3.08   88.07
  -8   4 -19  548.17  126.32
   8  -4  19  411.08  133.40
  -8   5 -19   58.23  103.29
  -8   5 -19    4.11   59.96
   8  -5  19  -82.78   56.24
   8  -5  19    3.74  105.59
  -8   6 -19   21.83  112.08
   8  -6  19    7.92  115.80
  -8   7 -19   82.48  120.14
  -8   7 -19    4.48   65.61
   8  -7  19   78.21   68.64
   8  -7  19    4.30  124.46
  -8   8 -19    4.87  124.03
  -8   8 -19    4.69   65.85
   8  -8  19    4.85   67.63
   8  -8  19   13.77  126.89
  -8   9 -19   15.43  123.88
  -8   9 -19   76.12   80.23
   8  -9  19   95.13  146.28
   8  -9  19  250.78   79.26
  -7   9 -19  -54.55  128.40
  -7   9 -19 -156.94   71.53
   7  -9  19   24.34  133.01
   7  -9  19    4.94   67.57
  -6   9 -19  119.38  117.49
  -6   9 -19   12.54   63.81
   6  -9  19   18.55   65.72
   6  -9  19   28.94  132.05
  -5   9 -19    4.64  113.33
  -5   9 -19    7.59   60.00
   5  -9  19   57.24  134.80
   5  -9  19  -31.04   65.46
  -4   9 -19  897.63  173.07
   4  -9  19  424.40  188.05
  -9  -3 -19   36.21   84.68
  -3   9 -19  -16.98   55.51
  -9  -3 -19   44.41   52.71
  -3   9 -19  247.11  108.99
   9   3  19   22.47   79.54
   3  -9  19  776.39  135.26
  -2   9 -19  -23.88   48.75
  -9  -2 -19   43.19   83.92
  -9  -2 -19 -101.00   57.42
   9   2  19   46.44   78.21
   9   2  19  -19.15   43.39
  -9  -1 -19  176.71   60.63
  -9  -1 -19   98.13   83.93
   9   1  19   53.47   45.85
  -1   9  19  -10.72  127.13
   9   1  19   23.94   83.19
  -9   0 -19  276.76  105.15
   0   9  19  177.01  150.67
   9   0  19  154.38  103.14
   1   9  19  -70.25  148.67
  -9   2 -19   34.27   55.99
   9  -2  19   -3.80   47.15
  -9   3 -19  -72.94   86.74
  -9   3 -19  -26.53   65.68
   9  -3  19   20.09   52.06
   9  -3  19 -160.35   95.01
  -9   4 -19  220.38  105.09
  -9   4 -19  133.77   72.37
   9  -4  19   84.08  114.10
   9  -4  19   29.71   63.05
  -9   5 -19   -4.63   65.06
  -9   5 -19   55.36   95.39
   9  -5  19    4.42   58.99
   9  -5  19  167.83  112.44
  -9   6 -19   58.43  113.16
   9  -6  19  268.57  121.84
  -9   7 -19 -221.63   75.85
  -9   7 -19 -168.26  122.26
   9  -7  19  -39.60  123.51
   9  -7  19   44.34   68.99
  -9   8 -19  127.25  121.52
  -9   8 -19  -10.54   81.24
   9  -8  19  114.40   78.08
   9  -8  19    4.74  134.00
  -9   9 -19    5.53   77.75
  -9   9 -19  -48.37  139.02
   9  -9  19  -50.02   74.64
   9  -9  19   72.60  145.02
  -9  10 -19   -5.96   87.13
  -9  10 -19   11.46  147.53
   9 -10  19   29.32   86.77
   9 -10  19   16.68  150.00
  -8  10 -19    5.33   79.92
  -8  10 -19 -218.72  143.03
   8 -10  19   37.92   75.35
   8 -10  19   80.36  149.71
  -7  10 -19    4.84   68.57
  -7  10 -19   26.16  122.26
   7 -10  19  -37.20  143.12
   7 -10  19    5.20   72.97
  -6  10 -19    5.02  117.20
  -6  10 -19    4.39   67.87
   6 -10  19   25.79  144.81
   6 -10  19   -4.90   63.91
  -5  10 -19 -111.28  117.25
  -5  10 -19   -3.99   60.36
   5 -10  19  -15.64  148.44
   5 -10  19    4.62   67.55
  -4  10 -19    3.69   57.25
  -4  10 -19 -157.97  118.31
   4 -10  19  -45.95   67.52
   4 -10  19  -42.06  141.69
 -10  -3 -19  -23.34   81.89
  -3  10 -19    3.56   54.50
  -3  10 -19   73.84  114.14
   3 -10  19  -10.97  146.84
 -10  -2 -19   -3.38   79.72
  -2  10 -19   -3.57   55.92
  -2  10 -19  -90.23  124.14
   2 -10  19  -59.34  159.53
  -1  10 -19    3.70   59.47
  -1  10 -19  -80.63  126.05
   1 -10  19    6.52  163.78
 -10   0 -19   13.95   66.42
  10   0  19  -37.90   52.01
   0  10  19  -46.14  155.67
 -10   1 -19  308.44   92.99
 -10   1 -19  117.36   72.81
  -1 -10 -19   80.39   88.80
   1  10  19   90.67  174.18
   1  10  19   57.68   91.97
  10  -1  19   87.68   59.57
 -10   2 -19    4.81   65.92
 -10   2 -19    3.79   91.48
  10  -2  19  -20.87   52.26
 -10   3 -19    4.87   68.88
 -10   3 -19  110.55   94.87
  10  -3  19   30.75   58.02
 -10   4 -19 -132.17  103.62
 -10   4 -19 -276.91   78.34
  10  -4  19  114.42   64.58
  10  -4  19    3.82  102.93
 -10   5 -19    4.38  103.68
 -10   5 -19   52.20   77.21
  10  -5  19 -108.50  108.91
  10  -5  19   28.91   66.52
 -10   6 -19   55.41  116.81
  10  -6  19    4.29  120.77
 -10   7 -19   11.31   78.41
 -10   7 -19    9.91  119.55
  10  -7  19  -59.39  127.01
  10  -7  19    5.35   73.77
 -10   8 -19  124.11   86.59
 -10   8 -19    5.28  126.83
  10  -8  19 -152.66   81.57
  10  -8  19 -543.26  147.85
 -10   9 -19   34.10  146.11
 -10   9 -19    6.19   87.63
  10  -9  19    5.35  157.58
  10  -9  19   11.95   84.56
 -10  10 -19    6.49   89.18
 -10  10 -19  211.43  152.51
  10 -10  19   56.85   85.66
  10 -10  19   86.02  164.55
 -10  11 -19  159.70  160.98
 -10  11 -19    6.81   94.26
  10 -11  19 -138.40  178.66
  10 -11  19 -134.80   91.37
  -9  11 -19   30.30  149.23
  -9  11 -19   12.54   88.32
   9 -11  19    6.07  168.75
   9 -11  19 -179.28   82.55
  -8  11 -19    5.79  146.27
  -8  11 -19   22.43   82.64
   8 -11  19   45.86   81.27
   8 -11  19    5.89  168.29
  -7  11 -19  228.93   89.65
  -7  11 -19  647.48  151.35
   7 -11  19  226.47  177.51
   7 -11  19   10.96   89.91
  -6  11 -19   23.87   70.11
  -6  11 -19  204.55  133.94
   6 -11  19   28.15  154.83
   6 -11  19   10.36   75.56
  -5  11 -19    4.31   66.87
  -5  11 -19   75.91  125.10
   5 -11  19  -14.64   73.39
   5 -11  19   99.83  154.13
  -4  11 -19   20.10  113.78
  -4  11 -19    3.98   59.33
   4 -11  19    4.80   63.35
   4 -11  19  -11.35  161.04
  -3  11 -19  -37.48   55.37
  -3  11 -19 -247.36  124.98
   3 -11  19  -29.55  156.21
  -2  11 -19   52.66   56.68
 -11  -2 -19   -3.52   74.81
  -2  11 -19  -72.68  114.29
   2 -11  19   38.27  157.79
  -1  11 -19   73.46   59.02
 -11  -1 -19   43.06   93.13
   1 -11  19 -325.64  178.28
  -1  11  19  430.24  158.13
   0  11 -19  141.60   89.73
 -11   0 -19  499.03  120.83
 -11   1 -19  -79.16   94.80
  11  -1  19   94.96   58.28
 -11   2 -19   23.42   92.63
  11  -2  19   53.98   58.19
 -11   3 -19   -5.43   71.11
 -11   3 -19   -4.06   94.16
  11  -3  19    4.69   60.33
 -11   4 -19  -80.89   97.14
 -11   4 -19    5.58   71.08
  11  -4  19 -113.45   64.78
 -11   5 -19    5.76   80.74
 -11   5 -19  -18.13  102.74
  11  -5  19   88.35   70.12
 -11   6 -19    4.80  113.86
  11  -6  19   -4.49  120.28
 -11   7 -19    6.21   84.95
 -11   7 -19   20.54  121.24
  11  -7  19  347.39  135.47
  11  -7  19    5.78   80.01
 -11   8 -19 -194.36   87.47
 -11   8 -19    5.47  134.89
  11  -8  19    5.12  139.68
  11  -8  19   91.44   82.69
 -11   9 -19    5.91  139.87
 -11   9 -19    6.77   86.22
  11  -9  19   11.12  157.04
  11  -9  19    6.43   81.22
 -11  10 -19 -164.10  152.57
 -11  10 -19    7.10   97.85
  11 -10  19   33.91   89.33
  11 -10  19 -208.93  167.79
 -11  11 -19  156.37  139.32
 -11  11 -19  890.83  216.20
  11 -11  19  872.99  237.01
  11 -11  19  121.41  137.65
 -11  12 -19   50.19  175.55
 -11  12 -19    7.81  110.04
  11 -12  19 -473.50  107.93
  11 -12  19 -269.12  207.50
 -10  12 -19  391.94  129.54
 -10  12 -19  263.92  192.48
  10 -12  19  832.22  224.31
  10 -12  19   -7.09  124.67
  -9  12 -19 -109.36  166.55
  -9  12 -19   -6.60   91.10
   9 -12  19  155.97   87.22
   9 -12  19  -33.33  191.09
  -8  12 -19 -182.48  145.94
  -8  12 -19   -5.90   86.22
   8 -12  19   64.20  177.83
   8 -12  19  127.82   79.91
  -7  12 -19  103.51  142.05
  -7  12 -19   92.95   82.39
   7 -12  19   28.79   85.68
   7 -12  19  -43.26  171.19
  -6  12 -19   40.05   73.77
  -6  12 -19  119.69  132.71
   6 -12  19  -43.75   79.84
   6 -12  19  -35.98  170.29
  -5  12 -19    4.54   72.63
  -5  12 -19  162.63  133.29
   5 -12  19  229.86  179.15
   5 -12  19   10.27   71.68
  -4  12 -19  116.24   64.65
  -4  12 -19    5.27  119.62
   4 -12  19  164.64  168.91
   4 -12  19   -5.00   72.77
  -3  12 -19  104.57  122.89
  -3  12 -19   52.29   61.30
   3 -12  19  -25.27  173.95
  -2  12 -19   31.69   61.63
  -2  12 -19  -26.94  124.52
   2 -12  19    6.81  180.53
  -1  12 -19  173.66   80.20
  -1  12  19  341.40  185.69
   0 -12 -19   65.48  103.42
   0  12  19  367.80  193.89
  -1 -12 -19  261.97  112.10
   1  12  19  160.29  102.25
   1  12  19  260.62  198.89
   2  12  19   -5.24  191.02
   2  12  19 -223.36   89.50
 -12   7 -19   -5.38  128.48
  12  -7  19   80.48   84.41
 -12   8 -19   51.63  131.01
  12  -8  19  -58.94  143.16
  12  -8  19    6.52   76.58
 -12   9 -19  135.76  142.19
  12  -9  19    6.88   89.63
  12  -9  19  -75.08  153.13
 -12  10 -19    6.68  170.13
  12 -10  19    6.20  178.00
 -12  11 -19 -192.60  180.66
  12 -11  19   67.28  194.24
 -12  12 -19  130.50  185.38
  12 -12  19   94.63  205.63
 -12  13 -19 -120.98  195.12
  12 -13  19   93.31  231.53
 -11  13 -19   40.89  108.77
 -11  13 -19   -7.61  181.64
  11 -13  19  -30.26  208.43
  11 -13  19   23.75   98.30
 -10  13 -19   50.08  183.26
 -10  13 -19    7.61  105.92
  10 -13  19  219.63  215.27
  10 -13  19 -186.19  102.49
  -9  13 -19 -290.47  173.32
  -9  13 -19 -152.37  104.69
   9 -13  19 -426.24  207.38
   9 -13  19   90.11   97.99
  -8  13 -19 -329.76  172.19
  -8  13 -19   -6.37   93.48
   8 -13  19  176.88  208.21
   8 -13  19 -326.81   91.39
  -7  13 -19  310.72  148.51
  -7  13 -19   11.47   82.29
   7 -13  19  -67.10  194.70
   7 -13  19 -263.58   84.73
  -6  13 -19   -5.43   81.53
  -6  13 -19 -260.04  135.10
   6 -13  19  -92.67   81.25
   6 -13  19   -6.50  179.66
  -5  13 -19  -98.23  136.71
  -5  13 -19   29.70   75.46
   5 -13  19   -6.49  185.20
   5 -13  19   27.17   75.01
  -4  13 -19   13.60   68.23
  -4  13 -19   32.61  135.82
   4 -13  19   -5.24   76.89
   4 -13  19 -110.48  192.26
  -3  13 -19    5.37  119.64
  -3  13 -19   29.67   62.50
   3 -13  19   34.05  191.51
   3 -13  19    5.20   69.71
  -2  13 -19  111.68  132.04
  -2  13 -19  -74.45   65.31
   2 -13  19 -203.69  194.24
  -1  13 -19   63.20   78.38
  -1  13  19  263.90  200.99
   0 -13 -19   99.28  152.49
   0  13  19 1249.84  246.56
  -1 -13 -19  168.93  127.75
   1  13  19  200.82  117.19
   1  13  19  762.06  225.35
  -2 -13 -19   29.90  104.14
   2  13  19 -498.01  215.81
   2  13  19 -114.23   95.93
 -11  14 -19    7.96  207.04
  11 -14  19 -130.86  244.77
  11 -14  19 -298.79  112.14
 -10  14 -19    7.95  108.99
 -10  14 -19  300.20  187.77
  10 -14  19   31.28  105.71
  10 -14  19   71.79  227.19
  -9  14 -19 -244.38  105.28
  -9  14 -19   77.31  172.79
   9 -14  19   79.99  101.03
   9 -14  19    7.66  217.41
  -8  14 -19 -401.16  156.99
  -8  14 -19    6.68   95.77
   8 -14  19  169.27  208.78
   8 -14  19   20.37  100.31
  -7  14 -19   18.55   93.03
   7 -14  19 -238.23   97.05
  -6  14 -19  -45.32   83.22
  -6  14 -19  104.61  149.26
   6 -14  19    6.04   86.29
   6 -14  19   14.06  194.92
  -5  14 -19   20.67   75.34
  -5  14 -19   -5.67  133.22
   5 -14  19  -34.35  191.61
   5 -14  19  114.46   83.63
  -4  14 -19  -93.81  127.86
  -4  14 -19    4.88   71.61
   4 -14  19 -111.57  192.43
   4 -14  19   27.16   79.70
  -3  14 -19   -5.51  120.43
  -3  14 -19   27.26   68.84
   3 -14  19   65.16  186.02
   3 -14  19    5.39   76.95
   2 -14  19  123.39  199.62
  -1  14  19  323.90  206.81
   0 -14 -19  -36.57  122.61
   0  14  19   -4.82   98.61
   0  14  19 -222.47  215.61
  -1 -14 -19   64.85  142.79
  -1 -14 -19  -23.39  122.22
   1  14  19 -109.12  216.89
   1  14  19  -42.32  104.64
  -2 -14 -19   44.86  125.65
  -2 -14 -19  129.86  144.92
   2  14  19  149.68  104.15
  -1  15  19 -353.31  225.13
   0 -15 -19   -6.78  131.48
   0  15  19 -214.40  237.20
   0  15  19 -243.01  117.43
  -1 -15 -19   30.41  155.78
  -1 -15 -19   13.11  133.06
   1  15  19 -135.37  114.44
   1  15  19  229.70  233.36
  -2 -15 -19  -10.27  170.90
  -2 -15 -19   -6.34  139.48
   2  15  19  370.06  237.20
   2  15  19  -45.49  113.46
   1 -16 -19 -131.66  147.93
  -1  16  19   -7.01  253.51
   0 -16 -19  -66.60  178.20
   0 -16 -19   -7.59  149.04
   0  16  19 -271.87  253.57
   0  16  19 -227.54  132.22
  -1 -16 -19  -78.61  170.74
  -1 -16 -19  303.01  149.79
   1  16  19   42.22  250.10
   1  16  19  133.05  129.92
  -2 -16 -19   22.74  176.76
  -2 -16 -19  143.36  150.66
   2  16  19  180.55  129.45
   2  16  19 -369.69  252.41
   3  16  19  283.08  257.48
   1 -17 -19  190.77  164.33
  -1  17  19 -348.40  266.07
   0 -17 -19  145.29  167.38
   0 -17 -19   60.63  193.65
   0  17  19 -505.57  268.10
   0  17  19   51.78  139.52
  -1 -17 -19  123.60  195.19
  -1 -17 -19 -225.36  169.86
   1  17  19   19.34  142.07
   1  17  19 -287.36  270.49
  -2 -17 -19    8.13  169.28
  -2 -17 -19 -101.18  193.83
   2  17  19 -314.87  141.63
   2  17  19   30.51  273.33
   3  17  19 -106.10  263.88
   0 -18 -19  202.58  190.82
   0  18  19 -122.56  153.89
  -1 -18 -19  -94.63  193.40
   1  18  19   -7.20  153.39
  -2 -18 -19   18.47  196.09
  -2 -18 -19   27.89  215.14
   2  18  19    7.23  158.29
   3  18  19 -169.94  162.43
  -1   0 -20  -12.02   40.16
   1   0  20   29.08  109.77
  -1   1 -20  208.99   58.95
  -1  -1 -20  164.16   64.71
   1  -1  20  161.33  123.05
  -2  -1 -20  -60.47   84.12
  -1   2 -20   58.91   95.92
  -1   2 -20   -3.14   43.92
  -2  -1 -20    2.66   40.66
   2   1  20  -51.10  105.66
   1  -2  20  -29.76  119.68
  -2   0 -20   -4.09   88.63
  -2   0 -20   10.99   38.24
   2   0  20   47.03  104.29
  -2   1 -20    4.14   89.38
  -2   1 -20   42.21   41.37
  -1  -2 -20   19.92   41.84
   2  -1  20    4.32  104.91
  -2   2 -20  400.07   77.70
  -2   2 -20  147.42  119.05
  -2  -2 -20  443.69  118.00
  -2  -2 -20  247.41   79.38
   2   2  20  215.14  136.92
   2  -2  20   78.39  139.10
  -3  -2 -20   56.71   95.51
  -3  -2 -20   89.09   54.76
  -2   3 -20  178.23   56.19
  -2   3 -20  371.27  114.05
   2  -3  20  477.33  137.53
   3   2  20  107.45  106.53
  -3  -1 -20  719.22  132.21
  -1   3 -20  602.06  123.26
  -3  -1 -20  415.16  165.53
  -1   3 -20  170.57  165.93
   3   1  20  406.22  171.76
   1  -3  20  530.23  188.15
  -3   0 -20   43.23   93.85
  -3   0 -20  -26.45   38.15
   3   0  20   11.23  107.17
  -3   1 -20  416.67  166.08
  -1  -3 -20  484.07  139.06
  -3   1 -20  569.89  127.89
   3  -1  20  545.92  171.92
  -3   2 -20  374.56  109.26
  -2  -3 -20  107.19  106.71
  -3   2 -20  147.42   64.82
   2   3  20   99.97  120.64
   3  -2  20  874.06  130.36
  -3   3 -20  756.38  255.93
  -3   3 -20 1279.87  301.39
  -3  -3 -20 1366.02  319.66
  -3  -3 -20 1185.92  286.11
   3  -3  20 1653.56  312.90
   3   3  20  998.52  325.71
  -4  -3 -20   13.98   37.60
  -3   4 -20   58.72   43.14
  -3   4 -20 -101.29  100.42
  -4  -3 -20  -21.18   83.69
   3  -4  20    4.20  115.74
   4   3  20    6.57   90.20
  -4  -2 -20  915.01  204.20
  -4  -2 -20  862.55  235.87
  -2   4 -20  741.76  227.72
  -2   4 -20  897.35  183.45
   2  -4  20  856.96  247.85
   4   2  20  533.42  235.45
  -1   4 -20 -112.96  102.98
  -4  -1 -20  -53.24   37.26
  -4  -1 -20   -7.24   87.37
  -1   4 -20   -9.90   42.64
   1  -4  20    5.19  127.33
   4   1  20  -56.42   87.15
  -4   0 -20  597.34  199.19
  -4   0 -20  661.66  170.64
   4   0  20  867.01  205.01
  -1  -4 -20  -10.41   39.98
  -4   1 -20  -15.01   90.24
  -4   1 -20   -2.71   40.95
   4  -1  20  -27.99   91.40
  -4   2 -20 1046.03  240.51
  -2  -4 -20  739.23  227.28
  -4   2 -20  934.48  207.74
   4  -2  20  983.22  246.63
  -3  -4 -20   29.14   85.97
  -4   3 -20  247.60   95.97
  -3  -4 -20   24.37   35.53
  -4   3 -20  -20.16   41.66
   3   4  20 -236.10  102.43
   4  -3  20   48.79   97.99
  -4  -4 -20   84.12   99.33
  -4   4 -20  215.70   60.98
  -4   4 -20  226.70  110.05
  -4  -4 -20  177.47   56.54
   4  -4  20  191.86  119.33
  -4   5 -20   83.68  103.66
  -5  -4 -20  212.65   92.49
  -5  -4 -20   84.47   47.99
   4  -5  20  172.32  118.24
  -5  -3 -20  845.03  185.35
  -5  -3 -20  799.15  219.12
  -3   5 -20  704.82  212.82
   5   3  20  771.46  214.72
   3  -5  20  135.92  226.23
   5   3  20  713.94  167.82
  -2   5 -20  335.30  184.91
  -5  -2 -20  575.79  156.07
  -5  -2 -20  734.58  186.42
   5   2  20  579.66  144.11
   5   2  20  847.70  187.92
   2  -5  20  239.14  204.33
  -5  -1 -20  851.00  205.08
  -1   5 -20  443.69  235.70
  -5  -1 -20  876.23  234.93
   5   1  20 1039.19  193.82
   1  -5  20  461.86  261.05
   5   1  20  986.91  235.53
  -5   0 -20   17.98   87.12
  -5   0 -20   -8.29   42.67
   5   0  20   -3.08   42.98
   5   0  20   15.85   85.58
  -5   1 -20 1194.83  236.75
  -5   1 -20  701.57  206.49
   5  -1  20  820.40  239.07
   5  -1  20  793.49  201.00
  -5   2 -20  730.96  177.11
  -5   2 -20  976.47  204.39
   5  -2  20  794.41  210.60
   5  -2  20  704.79  174.92
  -5   3 -20  803.47  195.88
  -5   3 -20  795.29  225.63
   5  -3  20  933.21  194.76
   5  -3  20  910.69  232.96
  -5   4 -20  160.52   97.81
   5  -4  20    3.72  106.01
  -5   6 -20   20.39   49.98
   5  -6  20   -4.09   59.32
  -6  -3 -20  578.49  180.11
  -6  -3 -20  694.57  151.70
   6   3  20  549.24  139.79
   6   3  20  605.78  178.92
  -2   6 -20  324.69  124.82
  -6  -2 -20  215.95  106.69
  -6  -2 -20  172.46   70.08
   2  -6  20   10.01  145.98
   6   2  20  453.56  107.56
   6   2  20  198.33   67.37
  -1   6 -20  104.19  114.93
  -6  -1 -20  164.37   97.95
  -6  -1 -20  216.62   65.48
  -1   6 -20   -3.46   64.74
   1  -6  20  212.50  152.86
   6   1  20  270.48   93.55
   6   1  20  250.85   60.32
  -6   0 -20  -32.15   89.84
  -6   0 -20   46.10   46.88
   6   0  20   21.56   85.30
   6   0  20   21.50   42.22
  -6   1 -20  311.04  108.40
  -6   1 -20  163.46   65.75
   6  -1  20  207.81  101.64
   6  -1  20  188.45   65.96
  -6   2 -20  297.18  114.79
  -6   2 -20  313.95   82.27
   6  -2  20  261.73   80.24
   6  -2  20  323.16  116.31
  -6   3 -20  353.49  163.28
   6  -3  20  564.03  171.11
  -6   5 -20  117.87   55.76
   6  -5  20   27.83   58.13
  -6   6 -20   17.54  112.40
   6  -6  20   -4.15  120.11
  -6   7 -20  371.26  135.81
  -6   7 -20  212.75   72.24
   6  -7  20    4.36   70.09
   6  -7  20  149.62  138.93
  -5   7 -20   -3.54   53.33
  -5   7 -20 -176.07  109.94
   5  -7  20   17.05   62.86
   5  -7  20  -94.18  120.55
  -4   7 -20   -4.50   92.88
  -4   7 -20   36.35   48.64
   4  -7  20   -4.67  104.74
  -7  -3 -20   34.09   47.84
  -7  -3 -20   26.92   86.83
   7   3  20   33.34   37.95
   7   3  20  111.58   85.06
  -7  -2 -20  288.66   92.27
  -7  -2 -20  456.09  119.21
   7   2  20  296.59   83.72
   7   2  20  269.90  120.86
  -7  -1 -20  164.43   92.05
  -7  -1 -20   42.71   48.69
   7   1  20   70.76   85.10
   7   1  20   50.75   42.41
  -7   0 -20  -14.36   89.90
  -7   0 -20   53.70   48.58
   7   0  20   12.80   47.62
   7   0  20  149.93   88.91
  -7   1 -20  -33.00   90.78
  -7   1 -20  157.57   52.70
   7  -1  20   82.62   92.35
   7  -1  20  -30.75   49.00
  -7   2 -20  411.54  126.46
   7  -2  20  311.03  130.79
  -7   4 -20   45.74   57.11
  -7   4 -20   -4.06   80.17
   7  -4  20   12.00   55.55
   7  -4  20   -3.70   86.97
  -7   5 -20   -3.96   60.50
  -7   5 -20    8.50  105.69
   7  -5  20   -4.20   62.06
   7  -5  20    3.89  113.14
  -7   6 -20  102.71  129.94
   7  -6  20  173.22  130.35
  -7   8 -20   13.46   65.81
   7  -8  20   49.14   75.33
   7  -8  20    4.81  130.52
  -6   8 -20   12.14   59.27
  -6   8 -20  192.60  120.96
   6  -8  20   28.75  128.45
   6  -8  20   -4.57   58.34
  -5   8 -20    3.71   57.69
  -5   8 -20 -131.59  126.26
   5  -8  20  -90.51  139.42
   5  -8  20   -4.44   63.35
  -4   8 -20 -238.72  114.57
  -4   8 -20 -124.48   49.38
   4  -8  20  -94.07  139.53
  -3   8 -20  106.04   55.23
  -8  -3 -20   27.71   90.91
  -3   8 -20   -4.87  111.73
  -8  -3 -20  -10.94   56.29
   8   3  20   45.30   44.82
   8   3  20   59.65   89.06
   3  -8  20  351.53  139.29
  -2   8 -20    3.45   48.92
  -8  -2 -20  155.51   91.74
  -8  -2 -20  -18.34   51.41
   8   2  20   -2.98   36.85
   8   2  20   29.49   91.07
  -8  -1 -20 -137.01   90.58
  -1   8 -20   21.98   58.84
  -8  -1 -20   14.75   56.60
   8   1  20   61.11   89.20
   8   1  20  122.33   43.24
  -8   0 -20  110.49   88.22
   8   0  20  170.77   92.52
   8   0  20   -3.33   45.08
  -8   2 -20   -3.99   54.78
   8  -2  20   -3.70   50.16
  -8   3 -20  570.46  130.85
   8  -3  20  408.98  132.26
  -8   4 -20 -108.13   99.14
  -8   4 -20   50.11   63.67
   8  -4  20 -164.16  114.03
   8  -4  20   -4.17   58.62
  -8   5 -20  -13.03   62.33
  -8   5 -20    4.35  108.68
   8  -5  20 -208.63  119.24
   8  -5  20    4.40   65.29
  -8   6 -20    9.16  111.30
   8  -6  20    8.50  119.86
  -8   7 -20   -4.72   67.77
  -8   7 -20   43.34  125.76
   8  -7  20    4.87   69.40
   8  -7  20    4.61  125.46
  -8   8 -20  168.41  133.76
  -8   8 -20    4.94   73.33
   8  -8  20    4.90  136.73
   8  -8  20   35.87   76.66
  -8   9 -20    5.17   73.12
  -8   9 -20    5.43  127.61
   8  -9  20  123.20   76.99
   8  -9  20    5.39  146.69
  -7   9 -20   97.27   79.65
  -7   9 -20  261.84  125.73
   7  -9  20    5.17   74.10
   7  -9  20  115.18  146.11
  -6   9 -20    5.07  127.53
  -6   9 -20   30.84   65.99
   6  -9  20   28.91   68.81
   6  -9  20    5.11  144.29
  -5   9 -20   -3.99   56.91
  -5   9 -20  113.18  125.47
   5  -9  20   55.66   63.38
   5  -9  20    5.19  138.62
  -4   9 -20   -3.69   53.07
  -4   9 -20  122.40  120.40
   4  -9  20  -52.60  141.62
  -9  -3 -20  -61.81   57.48
  -3   9 -20    3.58   56.10
  -3   9 -20   10.07  122.34
  -9  -3 -20   -7.08   88.84
   9   3  20   62.45   42.30
   9   3  20  -71.52   91.38
   3  -9  20    5.50  148.12
  -9  -2 -20   79.17  101.77
  -9  -2 -20  291.32   67.38
  -2   9 -20    7.21   68.31
  -2   9 -20  518.38  131.75
   9   2  20  141.79  105.03
   2  -9  20  -71.21  161.85
   9   2  20  229.82   62.21
  -1   9 -20 -142.72  131.20
  -1   9 -20  -37.68   58.09
   1  -9  20 -247.30  163.87
   0   9  20 -172.28  160.68
  -9   1 -20   -3.83   81.34
  -9   1 -20    4.35   59.71
   9  -1  20   -3.39   85.88
   9  -1  20   71.69   55.57
  -9   2 -20   71.09  108.89
  -9   2 -20  100.44   73.35
   9  -2  20  356.28  114.20
   9  -2  20   95.97   67.37
  -9   3 -20    4.09   99.73
  -9   3 -20   54.20   62.80
   9  -3  20   62.62   57.81
   9  -3  20   11.13  108.06
  -9   4 -20    4.68   68.82
  -9   4 -20  -81.08  105.52
   9  -4  20    3.88  112.28
   9  -4  20    4.41   59.13
  -9   5 -20   -4.52  105.02
  -9   5 -20    4.86   70.20
   9  -5  20  -90.06  116.99
   9  -5  20    4.65   60.86
  -9   6 -20   19.02  112.43
   9  -6  20   74.25  123.27
  -9   7 -20  131.91   84.17
  -9   7 -20  254.45  131.82
   9  -7  20  139.40   80.75
   9  -7  20  102.13  137.29
  -9   8 -20  -52.89  124.99
  -9   8 -20    5.52   81.07
   9  -8  20  151.90  140.82
   9  -8  20   16.33   74.01
  -9   9 -20   16.85  142.16
  -9   9 -20 -295.04   87.17
   9  -9  20    5.74   81.61
   9  -9  20  -27.10  152.44
  -9  10 -20   66.81   89.47
  -9  10 -20  113.61  151.36
   9 -10  20   -6.05   82.70
   9 -10  20  -77.04  163.75
  -8  10 -20    5.43   80.54
  -8  10 -20  -57.58  145.37
   8 -10  20   -5.64   75.60
   8 -10  20   17.32  161.55
  -7  10 -20   10.19   77.93
  -7  10 -20 -319.36  137.73
   7 -10  20  -67.01  152.54
   7 -10  20   -5.44   73.81
  -6  10 -20    4.62   70.28
  -6  10 -20 -106.09  123.67
   6 -10  20  102.00   72.96
   6 -10  20  -50.25  155.38
  -5  10 -20 -149.15  122.48
  -5  10 -20    4.19   62.96
   5 -10  20   19.50   72.00
   5 -10  20   66.36  152.22
  -4  10 -20   -3.88   57.78
  -4  10 -20 -107.84  117.94
   4 -10  20   -5.66  158.53
  -3  10 -20   -5.17  113.44
  -3  10 -20    7.52   54.54
   3 -10  20  -53.13  160.29
  -2  10 -20  138.01  123.42
  -2  10 -20   30.24   57.03
   2 -10  20    6.31  158.18
  -1  10 -20   70.42   62.52
 -10  -1 -20   -4.71   62.43
   1 -10  20 -117.04  163.17
  10   1  20   -3.36   77.90
  10   1  20   74.62   50.17
 -10   0 -20  171.15   93.37
 -10   0 -20  514.21  122.79
  10   0  20  524.71  126.01
  10   0  20  137.77   78.84
 -10   1 -20    3.88   90.93
 -10   1 -20   48.73   70.76
  10  -1  20  -49.58   54.35
  10  -1  20   21.34   96.05
 -10   2 -20   64.10   67.90
 -10   2 -20   -4.03   98.61
  10  -2  20   18.39  102.26
  10  -2  20   69.74   62.32
 -10   3 -20  104.44  104.13
 -10   3 -20    5.09   69.44
  10  -3  20 -343.50  110.80
  10  -3  20    4.54   66.23
 -10   4 -20   47.39   74.04
 -10   4 -20   -4.36  104.74
  10  -4  20   96.85  112.22
  10  -4  20   23.88   65.64
 -10   5 -20   -5.46   75.19
 -10   5 -20   32.40  113.95
  10  -5  20    4.25  115.97
  10  -5  20    5.03   68.13
 -10   6 -20 -121.99  116.91
  10  -6  20    4.54  124.44
 -10   7 -20  -11.57   79.51
 -10   7 -20    5.17  134.07
  10  -7  20    5.59   76.05
  10  -7  20    4.83  133.67
 -10   8 -20   61.10  141.58
 -10   8 -20  234.87   95.03
  10  -8  20    5.20  146.35
  10  -8  20   82.48   86.63
 -10   9 -20    5.87  134.23
 -10   9 -20   -6.47   92.02
  10  -9  20 -261.11   90.15
  10  -9  20    5.57  156.09
 -10  10 -20  -13.57   95.13
 -10  10 -20   18.77  156.03
  10 -10  20    6.57   88.59
  10 -10  20    6.11  161.93
 -10  11 -20 -272.96  166.45
 -10  11 -20    7.12   96.62
  10 -11  20 -124.64  187.16
  10 -11  20   55.50   98.02
  -9  11 -20    6.38   92.10
  -9  11 -20   76.57  163.28
   9 -11  20   -6.45   90.03
   9 -11  20   45.68  181.95
  -8  11 -20   36.52  149.67
  -8  11 -20   58.75   91.73
   8 -11  20    6.32  176.52
   8 -11  20 -107.05   82.24
  -7  11 -20   -5.35   81.27
  -7  11 -20   63.78  137.53
   7 -11  20   61.08  166.03
   7 -11  20   11.43   87.92
  -6  11 -20  558.37  161.14
  -6  11 -20  213.14   94.98
   6 -11  20  188.53   96.35
   6 -11  20  148.91  186.70
  -5  11 -20  294.68  138.57
  -5  11 -20   -4.54   70.48
   5 -11  20   86.44   72.49
   5 -11  20  168.85  164.29
  -4  11 -20   43.09  123.33
  -4  11 -20   16.70   64.56
   4 -11  20    5.04   71.78
   4 -11  20   42.26  166.06
  -3  11 -20   -5.36  124.06
  -3  11 -20   27.62   64.91
   3 -11  20   12.59  167.95
 -11  -2 -20  126.49   91.40
  -2  11 -20   11.90   64.18
  -2  11 -20    5.51  118.73
   2 -11  20 -101.60  171.78
  -1  11 -20  359.88   86.05
 -11  -1 -20  143.87  111.36
   1 -11  20   43.84  199.36
  -1  11  20  318.13  174.40
 -11   0 -20    3.87   90.86
   0  11  20  242.00  175.49
  11   0  20   17.03   53.71
 -11   1 -20  174.91  113.44
  11  -1  20  226.60   78.18
 -11   2 -20  -10.96   68.38
 -11   2 -20  -33.13   95.55
  11  -2  20  -41.78   64.53
 -11   3 -20   45.00   77.91
 -11   3 -20  -51.75  111.13
  11  -3  20    4.89   71.24
 -11   4 -20 -193.75  102.28
 -11   4 -20  -34.78   80.92
  11  -4  20 -103.07   68.27
  11  -4  20    4.22  111.49
 -11   5 -20  -59.42   82.33
 -11   5 -20   71.55  116.93
  11  -5  20    5.43   77.71
  11  -5  20  -48.67  117.94
 -11   6 -20   60.33  123.96
  11  -6  20   -5.69   81.15
  11  -6  20  117.85  133.55
 -11   7 -20   -6.42   92.83
 -11   7 -20 -303.88  134.58
  11  -7  20 -340.51  145.19
  11  -7  20 -102.04   82.95
 -11   8 -20    6.69   96.38
 -11   8 -20    5.75  135.18
  11  -8  20    6.33   83.80
  11  -8  20  -21.63  152.75
 -11   9 -20 -136.41  155.27
 -11   9 -20    7.00   96.84
  11  -9  20    6.68   87.74
  11  -9  20 -562.03  166.83
 -11  10 -20  -14.67  101.93
 -11  10 -20 -204.98  169.66
  11 -10  20 -294.82  182.54
  11 -10  20   -7.08   96.81
 -11  11 -20    7.01  170.19
 -11  11 -20  100.00  103.64
  11 -11  20 -104.46   99.61
  11 -11  20    6.88  200.12
 -11  12 -20   29.95  188.95
 -11  12 -20   -8.14  106.99
  11 -12  20    7.39  202.82
  11 -12  20  -39.23  105.14
 -10  12 -20   22.41  101.48
 -10  12 -20    7.09  165.85
  10 -12  20  -50.19  196.76
  10 -12  20    7.39   95.99
  -9  12 -20 -742.97  196.80
   9 -12  20    6.79   96.58
  -8  12 -20   -6.18   92.32
  -8  12 -20    6.39  163.43
   8 -12  20  195.33  197.45
   8 -12  20  -94.40   85.04
  -7  12 -20   -5.61   84.88
  -7  12 -20    6.07  143.37
   7 -12  20   13.35  183.51
   7 -12  20 -270.64   83.48
  -6  12 -20   -5.77  140.76
  -6  12 -20    5.27   76.54
   6 -12  20    6.49  184.43
   6 -12  20   34.17   80.52
  -5  12 -20    4.77   73.52
  -5  12 -20  -89.47  131.69
   5 -12  20   -5.37   79.94
   5 -12  20   89.85  171.25
  -4  12 -20  151.09  134.64
  -4  12 -20  -88.24   70.48
   4 -12  20 -136.38  189.99
   4 -12  20  -78.57   78.08
  -3  12 -20   11.03  132.63
  -3  12 -20    4.24   66.36
   3 -12  20 -162.81  189.75
  -2  12 -20   45.99   65.59
  -2  12 -20 -354.38  140.88
   2 -12  20  238.03  194.10
  -1  12 -20   47.01   71.22
  -1  12  20  365.86  184.57
   0  12  20  566.48  243.84
   1  12  20  179.75  199.66
 -12   3 -20   40.22  107.65
 -12   4 -20  261.87  117.14
  12  -4  20    5.53   71.65
 -12   5 -20   74.55  117.99
  12  -5  20   -5.80   76.55
 -12   6 -20  136.61  127.41
  12  -6  20   19.76  134.04
  12  -6  20    6.10   74.82
 -12   7 -20   16.85  140.07
  12  -7  20    6.42   84.74
  12  -7  20    5.23  139.74
 -12   8 -20   -5.98  147.77
  12  -8  20  -16.85  158.63
  12  -8  20  -60.94   84.84
 -12   9 -20    6.46  158.02
  12  -9  20    6.01  176.38
  12  -9  20    7.14   92.59
 -12  10 -20    6.91  167.72
  12 -10  20   -6.52  182.50
  12 -10  20    7.54   98.57
 -12  11 -20  209.04  186.79
  12 -11  20  219.14  201.48
  12 -11  20 -119.37   98.46
 -12  12 -20   86.89  189.21
  12 -12  20   98.62  220.01
  12 -12  20   -8.39   98.56
 -11  13 -20   15.83  193.95
 -11  13 -20   34.14  115.11
  11 -13  20   82.24  109.03
  11 -13  20   16.12  228.26
 -10  13 -20   -7.96  108.92
 -10  13 -20  105.28  190.76
  10 -13  20    7.76  104.54
  10 -13  20   31.50  229.28
  -9  13 -20    7.24   98.40
  -9  13 -20   21.32  164.29
   9 -13  20  -38.07  215.66
   9 -13  20    7.11   94.03
  -8  13 -20 -213.55  109.74
   8 -13  20 -186.72  100.43
  -7  13 -20 -422.87  158.01
  -7  13 -20    6.02   89.50
   7 -13  20   -6.29   87.02
   7 -13  20 -162.87  199.88
  -6  13 -20    5.52   82.54
  -6  13 -20   11.97  143.70
   6 -13  20    7.05  190.51
   6 -13  20   -6.04   86.46
  -5  13 -20   -5.83  135.58
  -5  13 -20    5.21   80.41
   5 -13  20  180.74   84.80
   5 -13  20  -41.35  193.25
  -4  13 -20  153.90  135.35
  -4  13 -20 -157.39   71.74
   4 -13  20 -188.54  189.80
   4 -13  20   82.11   82.29
  -3  13 -20    4.46   67.26
  -3  13 -20   34.16  123.58
   3 -13  20    7.22  191.76
  -2  13 -20   -5.92  129.61
  -2  13 -20   70.15   67.59
   2 -13  20  253.22  199.30
  -1  13 -20  106.98   71.78
  -1  13  20   70.87  184.37
   0 -13 -20  -67.00  105.17
   0  13  20   11.15  200.93
   1  13  20   95.53  102.66
   1  13  20  354.62  217.45
 -10  14 -20  -58.26  114.73
 -10  14 -20  126.01  191.46
  10 -14  20    8.12  110.31
  10 -14  20  -25.63  246.59
  -9  14 -20 -318.00  183.95
  -9  14 -20    7.59  106.43
   9 -14  20 -107.15  246.34
   9 -14  20   -7.56  103.99
  -8  14 -20   27.75  176.11
  -8  14 -20  153.94  104.91
   8 -14  20   -6.99   86.46
   8 -14  20   87.33  230.30
  -7  14 -20    6.51  150.76
  -7  14 -20    6.31   90.55
   7 -14  20   52.24   99.25
   7 -14  20 -176.11  218.00
  -6  14 -20    6.17  161.26
  -6  14 -20    5.96   91.54
   6 -14  20  -12.62   95.65
   6 -14  20 -290.64  223.97
  -5  14 -20    5.45   83.72
  -5  14 -20 -206.40  149.64
   5 -14  20    5.96   85.70
   5 -14  20 -360.81  218.95
  -4  14 -20  105.40  139.67
  -4  14 -20  -10.29   75.33
   4 -14  20  -44.46  212.44
   4 -14  20   17.03   76.59
  -3  14 -20   11.70  131.22
  -3  14 -20  -23.93   67.79
   3 -14  20    7.73  206.54
   3 -14  20   68.02   84.52
  -2  14 -20   -9.16   70.16
   2 -14  20  187.05  208.82
  -1  14 -20 -121.27   74.49
  -1  14  20 -321.67  207.15
   0 -14 -20  190.26  136.55
   0  14  20  401.48  223.06
  -1 -14 -20   -9.41  158.35
  -1 -14 -20   47.26  113.09
   1  14  20  265.53  108.23
   1  14  20   18.42  221.49
  10 -15  20    8.98  266.53
   9 -15  20    7.89  108.43
   8 -15  20 -132.63  102.66
  -1 -15 -20 -343.46  156.78
  -1 -15 -20  -30.84  167.02
  -1  16  20 -113.31  248.69
   0 -16 -20  101.07  172.95
   0 -16 -20 -151.99  149.68
   0  16  20 -253.35  244.87
  -1 -16 -20 -163.44  149.70
  -1 -16 -20  -22.74  173.85
   1  16  20  262.75  257.92
   1  16  20  144.83  129.16
  -1  17  20   45.88  280.06
   0 -17 -20  -17.07  163.16
   0 -17 -20   85.72  182.93
   0  17  20 -509.90  273.50
  -1 -17 -20 -312.71  208.71
  -1 -17 -20   41.91  174.35
   1  17  20 -167.55  142.51
   1  17  20  427.72  269.66
  -1   0 -21  291.33   81.76
  -1   1 -21  -45.81   49.58
  -1  -1 -21   15.61   46.68
   1  -1  21 -205.52  130.03
  -1   2 -21   66.96   45.67
  -2  -1 -21   69.84   95.83
  -2  -1 -21   85.34   44.41
   2   1  21    4.67  113.18
   1  -2  21 -197.16  127.82
  -2   0 -21   -4.40   96.89
  -2   0 -21   17.47   43.58
   2   0  21 -117.02  115.25
  -1  -2 -21   60.77   44.51
  -2   1 -21  132.08   50.22
  -2   1 -21  -22.32  102.26
   2  -1  21  196.88  119.88
  -2  -2 -21  -13.84   43.01
  -2  -2 -21   65.07   94.10
  -2   2 -21  -13.58  105.91
  -2   2 -21    9.12   44.67
   2  -2  21  -76.18  120.88
   2   2  21  -98.60  120.61
  -2   3 -21  658.68  157.79
  -3  -2 -21  117.41  118.50
  -2   3 -21  447.89  105.35
  -3  -2 -21  482.43  155.15
   2  -3  21  253.46  171.54
   3   2  21  495.24  164.44
  -1   3 -21  -82.06   50.38
  -1   3 -21   34.63  106.64
  -3  -1 -21   22.09   41.29
  -3  -1 -21   33.11   97.37
   1  -3  21  -86.90  122.52
   3   1  21   20.57  113.64
  -3   0 -21  246.58   88.72
  -3   0 -21  601.88  130.20
   3   0  21  296.52  134.45
  -1  -3 -21    2.93   42.72
  -3   1 -21 -172.41  102.67
  -3   1 -21   -8.70   41.68
   3  -1  21   50.21  108.30
  -3   2 -21  631.66  135.52
  -3   2 -21  816.61  172.44
  -2  -3 -21  597.18  145.35
   2   3  21  576.22  192.52
   3  -2  21  483.38  180.61
  -3   3 -21  -35.77  106.31
  -3  -3 -21  -28.08   95.22
  -3  -3 -21   15.34   39.85
  -3   3 -21   57.69   46.66
   3  -3  21  154.30  116.34
   3   3  21  -20.72  106.84
  -3   4 -21  324.92  151.88
  -4  -3 -21  470.19  110.06
  -4  -3 -21  392.28  144.74
   3  -4  21  255.61  160.57
   4   3  21  571.33  151.72
  -2   4 -21  143.56   51.60
  -4  -2 -21  113.12   93.91
  -2   4 -21    9.40  106.57
  -4  -2 -21   60.37   44.25
   2  -4  21 -125.40  131.02
   4   2  21   36.80  107.75
  -4  -1 -21  924.04  214.96
  -4  -1 -21  837.84  182.19
  -1   4 -21  594.91  216.32
  -1   4 -21  789.72  167.24
   1  -4  21  267.48  234.69
   4   1  21  854.90  217.69
  -4   0 -21  -31.00   44.73
  -4   0 -21   27.85   93.85
   4   0  21   68.06  100.68
  -4   1 -21  845.63  215.99
  -4   1 -21  780.07  179.39
  -1  -4 -21  545.21  194.83
   4  -1  21  880.62  218.21
  -4   2 -21   83.62   45.86
  -4   2 -21    4.13  102.75
  -2  -4 -21   45.59   43.73
   4  -2  21  271.94  109.61
  -4   3 -21  523.85  145.90
  -3  -4 -21  434.19  145.53
  -3  -4 -21  588.05  115.27
  -4   3 -21  429.05  107.11
   4  -3  21  223.48  155.30
  -4   4 -21   -4.34  107.28
   4  -4  21   -4.31  116.47
  -5  -3 -21  176.84  102.93
  -5  -3 -21  202.66   61.88
   5   3  21  312.35  106.23
   5   3  21  144.99   55.08
  -5  -2 -21  524.71  116.07
  -5  -2 -21  512.73  148.81
  -2   5 -21  597.09  156.76
   2  -5  21    5.20  177.04
   5   2  21  251.17  106.51
   5   2  21  575.34  151.40
  -1   5 -21  185.66  113.59
  -5  -1 -21  131.79   50.73
  -5  -1 -21  118.33  102.77
   1  -5  21    5.75  145.76
   5   1  21  120.59   47.81
   5   1  21   61.41  102.33
  -5   0 -21  691.58  154.81
  -5   0 -21  419.65  182.07
   5   0  21  554.66  149.88
   5   0  21  772.65  190.60
  -5   1 -21  101.18   49.51
  -5   1 -21    7.93   95.64
   5  -1  21  -68.93  100.77
   5  -1  21   80.90   51.92
  -5   2 -21  356.93  154.14
  -5   2 -21  520.83  121.45
   5  -2  21  560.52  123.45
   5  -2  21  503.43  162.89
  -5   3 -21  312.40  112.73
   5  -3  21   19.56  116.32
  -5   5 -21   -4.44   94.42
  -5   5 -21   13.84   53.13
   5  -5  21   -4.29  104.50
   5  -5  21 -162.02   60.84
  -5   6 -21  170.16  109.47
   5  -6  21    4.52  122.26
  -4   6 -21  855.54  189.90
   4  -6  21  781.23  189.85
  -6  -3 -21  134.51  103.88
  -6  -3 -21  308.05   66.85
  -3   6 -21   13.27   66.08
   6   3  21  191.35   59.85
   6   3  21  306.19  105.69
  -6  -2 -21  629.31  165.74
  -6  -2 -21  501.28  135.22
   6   2  21  561.12  165.98
   6   2  21  426.15  125.10
  -6  -1 -21   37.82   52.79
  -6  -1 -21  143.49   91.89
   6   1  21   92.46   47.06
   6   1  21  146.63   95.90
  -6   0 -21  184.75   93.62
  -6   0 -21  -33.06   48.78
   6   0  21  -43.86   96.62
   6   0  21    3.27   47.34
  -6   1 -21   49.52   47.12
  -6   1 -21  216.48   94.38
   6  -1  21   34.97  102.57
   6  -1  21   66.09   55.44
  -6   2 -21  420.03  171.43
   6  -2  21  799.72  179.62
  -6   4 -21   -4.30  107.07
  -6   4 -21  160.96   74.29
   6  -4  21   -3.97  116.93
   6  -4  21  156.33   72.89
  -6   5 -21   22.32  111.72
  -6   5 -21   68.14   60.30
   6  -5  21    4.18   56.07
   6  -5  21    4.17  124.20
  -6   6 -21   55.92  121.45
   6  -6  21  162.23  132.44
  -6   7 -21    8.16   61.51
  -6   7 -21 -131.66  131.10
   6  -7  21   -4.57   70.81
   6  -7  21   19.13  138.80
  -5   7 -21    3.73   58.61
  -5   7 -21 -345.03  121.93
   5  -7  21  -44.07  142.69
   5  -7  21  130.21   66.19
  -4   7 -21  -45.28   53.34
  -4   7 -21    4.81  119.12
   4  -7  21 -174.57  138.24
  -3   7 -21    4.99  118.27
  -7  -3 -21  112.87   95.12
  -3   7 -21   -3.45   53.82
  -7  -3 -21   55.64   51.38
   7   3  21   58.12   93.53
   3  -7  21   -5.23  145.59
   7   3  21   56.48   42.30
  -7  -2 -21   44.50   92.80
  -7  -2 -21    3.34   46.63
  -2   7 -21  -31.57   53.09
   2  -7  21  794.90  145.06
   7   2  21  -61.79   92.68
  -7  -1 -21  139.45   93.51
  -1   7 -21   -3.75   54.84
  -7  -1 -21   27.41   50.83
   7   1  21    3.18   43.34
   7   1  21  -22.41   95.30
  -7   0 -21   15.38  104.97
  -7   0 -21  165.00   60.60
   7   0  21    3.32   98.95
   7   0  21  170.56   54.62
   7  -3  21  616.68  153.27
  -7   4 -21 -134.71  109.27
  -7   4 -21  -68.89   75.03
   7  -4  21    4.03  129.22
   7  -4  21    4.22   64.06
  -7   5 -21    4.20   70.03
  -7   5 -21 -145.02  117.26
   7  -5  21    4.24  129.20
   7  -5  21 -141.41   67.90
  -7   6 -21  104.33  125.94
   7  -6  21    4.49  128.21
  -7   7 -21   36.32   68.99
  -7   7 -21 -274.04  133.87
   7  -7  21  -68.02  132.98
   7  -7  21   68.03   86.92
  -7   8 -21   10.49  134.37
  -7   8 -21  127.79   75.34
   7  -8  21  173.40   83.95
   7  -8  21  -46.53  143.72
  -6   8 -21   40.82  134.52
  -6   8 -21   -4.26   62.89
   6  -8  21   20.33  141.46
   6  -8  21  -62.32   73.24
  -5   8 -21 -240.42  118.12
  -5   8 -21   -3.90   57.88
   5  -8  21 -114.14  142.43
   5  -8  21  -18.64   69.08
  -4   8 -21   85.37  117.00
  -4   8 -21 -109.25   54.78
   4  -8  21 -160.27  149.40
  -3   8 -21    3.61   55.94
  -8  -3 -21 -198.85   98.50
  -8  -3 -21   40.85   51.80
  -3   8 -21 -245.58  121.73
   3  -8  21   -5.53  146.55
   8   3  21 -113.66  104.07
   8   3  21  -34.90   42.70
  -2   8 -21   26.35  121.45
  -2   8 -21   -3.65   54.30
  -8  -2 -21   33.69   56.25
  -8  -2 -21  194.61  102.29
   8   2  21   79.67   98.86
   8   2  21   55.54   44.90
   2  -8  21  101.71  150.51
  -1   8 -21    3.88   57.73
  -8  -1 -21 -205.75  101.26
   8   1  21  -36.30  101.30
   1  -8  21  -84.97  162.80
  -8   1 -21   -3.96   61.06
   8  -1  21    7.39   51.41
  -8   2 -21    4.09  109.11
  -8   2 -21   94.42   63.66
   8  -2  21   63.25   55.42
   8  -2  21 -228.00  111.03
  -8   3 -21   -8.53   68.36
  -8   3 -21    4.24  103.09
   8  -3  21   11.51  114.33
   8  -3  21  -58.59   58.82
  -8   4 -21  -44.09  105.14
  -8   4 -21   26.55   69.26
   8  -4  21   -4.02  118.30
   8  -4  21  -52.97   64.87
  -8   5 -21    4.59  116.28
  -8   5 -21 -188.41   71.33
   8  -5  21    4.64   67.39
   8  -5  21    4.32  126.62
  -8   6 -21   14.47  121.41
   8  -6  21    4.56  134.44
  -8   7 -21  183.41  131.95
  -8   7 -21    4.98   74.15
   8  -7  21   66.59   80.57
   8  -7  21  241.89  130.45
  -8   8 -21   -5.20   77.49
  -8   8 -21 -140.44  134.62
   8  -8  21  -10.60  145.82
   8  -8  21 -215.09   81.58
  -8   9 -21   48.90   81.26
  -8   9 -21    5.72  138.33
   8  -9  21    5.68  159.84
   8  -9  21  -39.51   82.01
  -7   9 -21   66.32  136.91
  -7   9 -21    4.94   70.84
   7  -9  21   81.04   79.62
   7  -9  21   16.93  158.69
  -6   9 -21  230.40  128.71
  -6   9 -21    4.46   67.21
   6  -9  21  105.28  155.99
   6  -9  21    5.02   75.09
  -5   9 -21  245.78  130.13
  -5   9 -21  -50.27   63.68
   5  -9  21    9.72   68.10
   5  -9  21  121.31  153.50
  -4   9 -21   42.67   60.92
  -4   9 -21 -110.31  114.96
   4  -9  21  -73.75  156.05
  -3   9 -21    5.29  126.33
  -3   9 -21    3.78   58.79
  -9  -3 -21   15.21   96.17
   3  -9  21  -94.75  157.97
  -2   9 -21   15.24   58.21
  -2   9 -21  130.55  119.97
   2  -9  21   -6.37  156.44
  -1   9 -21   -3.99   60.79
  -9  -1 -21   -4.38   53.89
   1  -9  21  -61.93  169.98
  -9   0 -21  959.97  155.01
   9   0  21  949.10  164.92
   9   0  21  115.81  127.78
  -9   1 -21  124.41   65.44
  -9   1 -21  -65.66  103.68
   9  -1  21   23.84   52.85
   9  -1  21 -177.32  107.46
  -9   2 -21  -64.30   67.42
  -9   2 -21    8.44  106.31
   9  -2  21  -33.28   55.13
   9  -2  21 -142.61  112.44
  -9   3 -21 -152.15   72.41
  -9   3 -21   -4.37  105.09
   9  -3  21   35.48  113.93
   9  -3  21   -4.40   60.59
  -9   4 -21   -4.92   75.18
  -9   4 -21  -54.42  111.02
   9  -4  21    4.12  117.35
   9  -4  21 -180.66   64.15
  -9   5 -21  179.00  112.89
  -9   5 -21    4.97   75.33
   9  -5  21  169.05  124.35
   9  -5  21    4.88   62.83
  -9   6 -21  -64.36  125.46
   9  -6  21    4.68  136.99
  -9   7 -21  237.20   88.65
  -9   7 -21   -5.24  125.31
   9  -7  21   19.89  131.70
   9  -7  21    5.39   75.29
  -9   8 -21    5.63   81.45
  -9   8 -21   94.21  135.86
   9  -8  21    5.68   77.77
   9  -8  21   27.08  153.39
  -9   9 -21 -247.71  150.34
  -9   9 -21   -6.06   90.91
   9  -9  21 -520.66  168.13
   9  -9  21    5.99   83.15
  -9  10 -21  353.15  161.41
  -9  10 -21   44.50   92.35
   9 -10  21   70.18  180.82
   9 -10  21    6.32   84.05
  -8  10 -21  345.43  154.13
  -8  10 -21 -261.87   90.47
   8 -10  21   -6.20  175.00
   8 -10  21 -160.02   86.51
  -7  10 -21 -181.08   80.24
  -7  10 -21  -64.07  145.58
   7 -10  21   85.23   80.51
   7 -10  21   36.21  167.57
  -6  10 -21 -167.84  132.28
  -6  10 -21  -77.70   70.87
   6 -10  21 -106.40  167.40
   6 -10  21    5.30   74.79
  -5  10 -21 -218.16  130.01
  -5  10 -21    4.40   65.96
   5 -10  21    5.09   71.37
   5 -10  21   66.10  152.60
  -4  10 -21    4.08   62.50
  -4  10 -21  225.75  129.69
   4 -10  21   84.44  166.41
  -3  10 -21    3.96   57.95
  -3  10 -21 -159.12  132.57
   3 -10  21  107.01  168.51
  -2  10 -21   -3.99   61.53
  -2  10 -21  -90.22  127.08
 -10  -2 -21  -38.05   70.16
   2 -10  21   33.76  176.56
  10   2  21   25.57   53.33
  -1  10 -21   74.53   66.76
 -10  -1 -21  221.45   73.41
 -10  -1 -21  114.44  102.57
   1 -10  21   58.19  180.67
  10   1  21    7.74   54.42
  10   1  21  195.57  110.08
 -10   0 -21  -34.58   68.60
 -10   0 -21    4.02  103.71
  10   0  21  -28.56   55.74
  10   0  21   25.60  103.80
 -10   1 -21  354.26  113.25
 -10   1 -21  -25.01   72.11
  10  -1  21  380.68  114.39
  10  -1  21  133.72   67.01
 -10   2 -21 -188.87  105.14
 -10   2 -21  -10.32   70.20
  10  -2  21    9.00   65.08
  10  -2  21 -234.05  111.52
 -10   3 -21   10.67   76.80
 -10   3 -21  142.16  109.83
  10  -3  21  -23.70   64.89
  10  -3  21    4.10  115.72
 -10   4 -21    5.40   73.58
 -10   4 -21   97.16  114.32
  10  -4  21    4.29  119.83
  10  -4  21    4.99   65.86
 -10   5 -21    4.85  119.62
 -10   5 -21    5.60   75.44
  10  -5  21    4.50  129.99
  10  -5  21    5.18   71.12
 -10   6 -21    5.82   79.38
 -10   6 -21  123.84  123.77
  10  -6  21   10.93   75.59
  10  -6  21   -4.80  136.71
 -10   7 -21    6.06   84.01
 -10   7 -21  157.95  130.25
  10  -7  21    5.76   80.31
  10  -7  21  -25.48  144.68
 -10   8 -21    5.75  134.16
 -10   8 -21   18.98   91.57
  10  -8  21  -54.40  154.65
  10  -8  21 -242.47   86.40
 -10   9 -21   33.11   91.45
 -10   9 -21   73.58  154.10
  10  -9  21 -101.15  160.81
  10  -9  21   -6.48   86.76
 -10  10 -21    6.95   98.99
 -10  10 -21  195.81  164.22
  10 -10  21   71.73  184.07
  10 -10  21  150.36   95.32
 -10  11 -21 -767.59  187.73
 -10  11 -21 -327.67  123.73
  10 -11  21   28.85  110.74
  -9  11 -21  113.92  167.11
  -9  11 -21 -300.56   99.47
   9 -11  21  -86.41   93.02
   9 -11  21  -47.99  191.74
  -8  11 -21   -5.98   87.98
  -8  11 -21   31.96  159.87
   8 -11  21  -68.12   85.47
   8 -11  21   92.83  179.52
  -7  11 -21    5.62   83.43
  -7  11 -21   -6.11  141.62
   7 -11  21   32.99  182.79
   7 -11  21   41.76   82.27
  -6  11 -21   -5.09   75.33
  -6  11 -21   82.12  146.93
   6 -11  21    6.46  187.77
   6 -11  21   -5.61   78.55
  -5  11 -21   -4.63   70.17
  -5  11 -21 -182.38  146.49
   5 -11  21    5.31   81.07
   5 -11  21 -390.22  179.45
  -4  11 -21 -160.45  127.02
  -4  11 -21   96.47   69.17
   4 -11  21 -205.67   82.95
  -3  11 -21 -107.93   63.14
  -3  11 -21  220.54  136.12
   3 -11  21  101.48  172.69
 -11  -2 -21  286.92  115.43
  -2  11 -21  233.96  140.69
  -2  11 -21  108.80   84.29
   2 -11  21  -50.27  194.15
  11   2  21  475.47  128.56
 -11  -1 -21 -340.33   99.76
  -1  11 -21    8.65   68.35
  11   1  21  -56.27  112.52
 -11   0 -21  421.44  165.52
  11   0  21  433.41  136.32
  11   0  21  758.09  184.83
 -11   1 -21  105.84  107.12
 -11   1 -21    5.54   72.81
  11  -1  21   71.20  111.01
  11  -1  21  -96.32   61.66
 -11   2 -21   30.78  115.07
 -11   2 -21  176.38   99.09
  11  -2  21  146.81  122.75
  11  -2  21  237.28   78.93
 -11   3 -21    5.80   78.12
 -11   3 -21 -113.79  107.10
  11  -3  21   16.92  117.16
  11  -3  21   15.33   67.53
 -11   4 -21   18.97  117.70
 -11   4 -21    5.99   81.68
  11  -4  21  -62.30  128.89
  11  -4  21    5.36   73.54
 -11   5 -21   -6.20   83.30
 -11   5 -21 -124.21  114.05
  11  -5  21 -126.06  128.38
  11  -5  21   67.91   79.35
 -11   6 -21  -68.93  128.34
 -11   6 -21  103.07   93.23
  11  -6  21   11.93   82.99
  11  -6  21   39.91  135.69
 -11   7 -21  -61.83  136.88
 -11   7 -21   -6.71   96.12
  11  -7  21    5.29  153.70
 -11   8 -21   20.98   99.38
 -11   8 -21 -151.04  152.12
  11  -8  21    6.62   92.00
  11  -8  21  136.75  154.96
 -11   9 -21    7.31   97.78
 -11   9 -21 -360.20  150.61
  11  -9  21    6.09  169.66
  11  -9  21    6.98   96.62
 -11  10 -21    7.66  116.08
 -11  10 -21 -518.87  185.90
  11 -10  21  -73.58  109.83
 -11  11 -21   36.61  180.69
 -11  11 -21  -48.19  124.93
  11 -11  21    7.19  197.04
  11 -11  21    7.74  103.65
 -11  12 -21 -117.96  122.32
 -11  12 -21  116.86  184.89
  11 -12  21  270.17  110.11
  11 -12  21  -31.50  217.42
 -10  12 -21   15.64  106.62
 -10  12 -21  -96.90  173.52
  10 -12  21 -182.43  102.72
  10 -12  21   46.34  222.20
  -9  12 -21 -175.58  101.44
  -9  12 -21    7.10  175.29
   9 -12  21   -7.08   92.25
   9 -12  21  104.93  218.03
  -8  12 -21  -25.89  102.13
   8 -12  21 -444.08  103.10
   8 -12  21 -261.21  218.22
  -7  12 -21 -100.22   90.92
  -7  12 -21 -224.23  152.64
   7 -12  21   63.34  198.64
   7 -12  21    6.27   90.77
  -6  12 -21   79.46  149.11
  -6  12 -21 -315.63   82.91
   6 -12  21 -330.76  192.04
   6 -12  21 -313.70   91.03
  -5  12 -21  -45.07   72.02
  -5  12 -21 -131.41  140.62
   5 -12  21    5.59   79.82
   5 -12  21   55.11  191.11
  -4  12 -21    4.63   67.63
  -4  12 -21  -87.93  142.75
   4 -12  21    5.50   76.00
   4 -12  21   48.36  181.36
  -3  12 -21  -70.19  136.42
  -3  12 -21    4.38   70.04
   3 -12  21   36.01  190.60
 -12  -2 -21  -98.19   98.33
  -2  12 -21    6.06  137.06
  -2  12 -21    4.41   67.50
   2 -12  21 -259.63  210.23
  -1  12 -21   -4.52   74.14
 -12  -1 -21  154.05  107.11
  -1  12  21  390.62  188.61
 -12   0 -21  -29.78  115.59
 -12   1 -21    4.37  107.82
 -12   2 -21   13.65  114.36
 -12   3 -21 -113.46  115.56
  12  -3  21   27.31   72.73
 -12   4 -21   24.66  119.89
  12  -4  21  -79.36  127.11
  12  -4  21   -5.74   73.90
 -12   5 -21    5.22  126.72
  12  -5  21 -165.98  130.95
  12  -5  21   72.33   77.03
 -12   6 -21  -87.92  133.25
 -12   6 -21    6.98   95.11
  12  -6  21   15.56  147.96
  12  -6  21   95.12   85.66
 -12   7 -21  116.39  145.74
  12  -7  21 -126.37  153.69
 -12   8 -21 -257.07  158.85
 -12   8 -21    7.56  102.38
  12  -8  21   -7.05  104.97
  12  -8  21 -319.95  175.64
 -12   9 -21    7.90  108.92
 -12   9 -21   20.09  154.46
  12  -9  21   -7.43   94.22
  12  -9  21    6.34  180.01
 -12  10 -21 -108.51  174.00
  12 -10  21    7.83  104.99
  12 -10  21  -82.26  187.25
 -12  11 -21 -476.35  187.43
  12 -11  21 -567.19  214.42
 -11  13 -21    8.32  200.78
 -10  13 -21  -32.79  115.56
 -10  13 -21  165.60  200.44
  10 -13  21  140.60  237.07
  10 -13  21 -199.99  106.40
  -9  13 -21 -386.52  114.58
  -9  13 -21   52.23  177.78
   9 -13  21   59.40  102.12
   9 -13  21   -8.18  235.60
  -8  13 -21 -108.82  108.31
  -8  13 -21  -77.58  169.95
   8 -13  21   87.09  222.84
   8 -13  21  144.57   97.60
  -7  13 -21  499.89  117.54
  -7  13 -21  -86.52  207.09
   7 -13  21  130.33  260.54
   7 -13  21    6.58  105.87
  -6  13 -21   17.41   81.28
  -6  13 -21   -6.34  157.70
   6 -13  21 -276.33  210.34
   6 -13  21   -6.24   88.81
  -5  13 -21  -56.19  148.37
  -5  13 -21   -5.27   77.04
   5 -13  21  -36.90  206.95
   5 -13  21  -23.48   82.73
  -4  13 -21 -120.87  143.36
  -4  13 -21  -50.12   84.66
   4 -13  21    7.42  207.47
   4 -13  21   57.21   82.46
  -3  13 -21    4.69   71.58
  -3  13 -21 -198.85  131.88
   3 -13  21  200.80  210.57
  -2  13 -21   -4.63   70.95
   2 -13  21 -339.70  210.31
  -1  13 -21   -4.71   73.08
  -1  13  21 -408.02  203.93
   0  13  21    5.64  192.00
 -10  14 -21  173.89  206.56
 -10  14 -21   -8.72   94.01
  10 -14  21  116.57  250.36
  -9  14 -21 -163.68  185.60
  -9  14 -21 -357.78  117.60
   9 -14  21   -7.75  103.73
   9 -14  21   52.14  245.92
  -8  14 -21    7.29  174.90
  -8  14 -21    7.33  108.90
   8 -14  21  -92.25  244.67
   8 -14  21    7.28  102.94
  -7  14 -21  344.22  174.33
  -7  14 -21  125.80  103.59
   7 -14  21 -137.12   98.28
   7 -14  21   33.18  238.27
  -6  14 -21   92.25  154.29
  -6  14 -21   12.56   88.73
   6 -14  21  263.78  222.92
   6 -14  21 -112.11   85.22
  -5  14 -21 -596.95  175.84
   5 -14  21 -242.60  243.40
   5 -14  21 -186.44   96.33
  -4  14 -21    5.27   81.31
  -4  14 -21 -191.43  159.29
   4 -14  21 -381.86  225.52
   4 -14  21   59.36   90.75
  -3  14 -21  -15.11   74.50
  -3  14 -21  248.40  146.15
   3 -14  21  -73.77  218.67
   3 -14  21  172.76   92.57
  -2  14 -21   24.15   74.66
   2 -14  21    8.55  212.09
  -1  14 -21   59.18   77.18
  -1  14  21   90.28  213.50
   0  14  21 -110.61  220.35
  -9  15 -21   24.14  196.85
   9 -15  21  365.12  283.74
   8 -15  21    7.59  105.85
   8 -15  21  -81.18  248.61
   7 -15  21 -156.12  101.79
   6 -15  21    6.85   95.94
  -1  15  21  340.83  245.61
   0  15  21 -178.92  237.32
  -1  16  21 -257.24  261.86
   0 -16 -21 -113.85  140.43
   0 -16 -21  215.21  185.75
   0  16  21  408.54  262.25
  -1  17  21 -154.34  282.60
   0 -17 -21   42.54  163.49
   0 -17 -21   98.76  187.33
   0  17  21 -130.43  268.15
  -1   0 -22  -20.43   49.17
  -1   1 -22    6.95   48.26
  -1  -1 -22   36.54   45.00
  -2  -1 -22   12.15   48.10
  -1   2 -22  -39.10   53.01
  -2  -1 -22   14.16  109.02
   1  -2  22   28.60  137.72
   2   1  22   76.09  126.88
  -2   0 -22  -58.98   48.98
  -2   0 -22  -61.75  110.13
   2   0  22  -10.14  131.53
  -2   1 -22   31.70   47.43
  -2   1 -22  -33.54  106.64
  -1  -2 -22    9.70   46.50
   2  -1  22 -245.09  134.37
  -2   2 -22  169.70  117.41
  -2   2 -22  252.12   66.18
  -2  -2 -22  210.08   66.30
   2   2  22  213.37  140.13
   2  -2  22    5.15  133.48
  -3  -2 -22    5.73   41.02
  -3  -2 -22 -171.10  104.43
  -2   3 -22   44.30  104.75
  -2   3 -22  115.64   49.14
   2  -3  22  -10.50  129.30
   3   2  22   81.25  122.96
  -3  -1 -22  368.42  146.53
  -3  -1 -22  396.41  108.17
  -1   3 -22  435.89  106.16
   1  -3  22  430.18  181.01
   3   1  22  363.18  159.47
  -3   0 -22  -72.25  104.04
  -3   0 -22  -39.38   48.55
   3   0  22 -140.16  118.30
  -1  -3 -22  356.08  117.12
  -3   1 -22  507.23  112.38
  -3   1 -22  553.64  151.81
   3  -1  22  367.19  164.92
  -3   2 -22  106.99  101.26
  -3   2 -22  -44.19   43.60
  -2  -3 -22   -2.86   43.94
   3  -2  22  -83.58  119.79
  -3   3 -22  219.92  124.91
  -3  -3 -22  303.09   75.23
  -3  -3 -22  203.35  117.30
   3   3  22  162.88  136.40
   3  -3  22  200.23  137.52
  -4  -3 -22   57.47   41.34
  -4  -3 -22   16.82   98.66
   4   3  22   84.24  115.60
  -4  -2 -22  515.01  119.63
  -4  -2 -22  585.36  154.75
   4   2  22  477.38  162.74
  -4  -1 -22   87.98   46.81
  -4  -1 -22  -42.90  100.74
   1  -4  22   -5.95  145.35
   4   1  22  174.83  112.03
  -4   0 -22  468.08  127.99
  -4   0 -22  783.90  167.76
   4   0  22  318.99  170.60
  -4   1 -22  -78.93  103.01
  -1  -4 -22   53.35   43.81
  -4   1 -22   83.96   43.85
   4  -1  22 -360.84  116.47
  -4   2 -22  480.67  149.33
   4  -2  22  522.23  159.38
  -4   4 -22  146.94   62.05
  -4   5 -22  103.07   58.41
  -4   5 -22  235.36  117.54
   4  -5  22  -19.33  137.56
  -5  -3 -22  167.21  104.48
  -3   5 -22   57.82   55.17
  -5  -3 -22  108.04   50.05
   5   3  22  128.26   47.45
   5   3  22  118.29  107.24
  -5  -2 -22  165.76   47.80
  -5  -2 -22  -32.41  103.50
  -2   5 -22   -3.48   56.17
   5   2  22  228.71  110.56
   5   2  22   64.51   46.67
  -5  -1 -22  -49.38  109.14
  -5  -1 -22  107.55   61.48
   5   1  22    3.78  112.29
   5   1  22  246.12   60.79
  -5   0 -22  -63.64   49.14
  -5   0 -22   -4.18  102.68
   5   0  22  -28.52   51.38
   5   0  22   42.75  109.73
  -5   1 -22  399.61   78.94
  -5   1 -22  157.28  120.85
   5  -1  22  398.24   79.80
   5  -1  22 -124.19  126.88
  -5   4 -22  316.04  113.17
   5  -4  22  479.68  135.37
   5  -4  22   72.00   72.57
  -5   5 -22    3.66   56.76
  -5   5 -22    4.73  119.28
   5  -5  22    4.39   62.61
   5  -5  22   -4.70  135.60
  -5   6 -22 -363.65  118.96
   5  -6  22  -88.88  144.92
  -4   6 -22 -193.95  115.71
   4  -6  22 -302.21  141.43
  -6  -3 -22  137.77   67.45
  -3   6 -22  244.74  126.77
  -6  -3 -22  298.24  112.89
   6   3  22  124.40  114.25
   6   3  22  112.66   57.23
   3  -6  22   16.04  151.59
  -2   6 -22  -47.34  115.63
  -6  -2 -22   90.04   55.41
  -2   6 -22   -3.58   56.44
  -6  -2 -22  203.56  100.81
   2  -6  22   -5.81  150.77
   6   2  22  274.90  108.62
   6   2  22  100.99   45.01
  -6  -1 -22    4.07  104.90
  -6  -1 -22   84.81   58.03
  -1   6 -22  159.65   62.89
   6   1  22   91.82   55.84
   6   1  22  150.67  108.14
   1  -6  22  450.94  152.76
  -6   0 -22  197.56   64.65
  -6   0 -22  -45.54  110.60
   6   0  22  294.12   67.58
   6   0  22   77.83  113.73
  -6   3 -22 1076.78  218.27
   6  -3  22 1068.13  222.99
  -6   4 -22   -3.88   71.09
  -6   4 -22 -330.80  116.80
   6  -4  22    4.23   61.53
   6  -4  22   21.67  140.37
  -6   5 -22   -4.01   66.81
  -6   5 -22    4.77  115.88
   6  -5  22    4.55  138.67
   6  -5  22    4.41   66.51
  -6   6 -22  168.35  129.72
   6  -6  22    4.79  140.03
  -6   7 -22   -5.18  130.50
  -6   7 -22   -4.30   61.93
   6  -7  22    5.20  136.83
   6  -7  22   -4.79   70.66
  -5   7 -22   11.79   51.68
  -5   7 -22   56.30  122.73
   5  -7  22    4.72   67.65
   5  -7  22  109.40  142.39
  -4   7 -22   15.52  128.19
  -4   7 -22   73.40   70.70
   4  -7  22   53.92  155.71
  -7  -3 -22   10.12   52.84
  -3   7 -22    3.64   56.22
  -7  -3 -22 -101.92  101.24
  -3   7 -22   26.27  126.47
   7   3  22   76.96   45.76
   3  -7  22 -186.93  152.41
  -2   7 -22  107.66   57.30
  -7  -2 -22   24.94   52.03
  -7  -2 -22   39.90  108.00
  -2   7 -22 -254.57  123.33
   2  -7  22    6.07  151.92
   7   2  22  -61.20  108.17
   7   2  22   50.13   45.82
  -1   7 -22   -3.97   61.38
  -7  -1 -22 -101.58  104.41
   1  -7  22   13.23  155.39
   7   1  22 -105.54  103.85
   7   1  22  196.52   48.04
  -7   1 -22    7.74   54.17
   7  -1  22   -3.84   55.68
  -7   2 -22  407.75  113.06
  -7   2 -22  164.72   64.52
   7  -2  22  -94.07  110.46
   7  -2  22    4.05   57.05
  -7   3 -22   12.48   65.62
  -7   3 -22    4.47  115.38
   7  -3  22   93.51   64.98
   7  -3  22  327.01  129.42
   7  -4  22 1035.97  205.71
  -7   5 -22  -86.67  122.97
  -7   5 -22 -223.29   71.80
   7  -5  22    4.59  145.41
   7  -5  22   -4.65   65.86
  -7   6 -22   10.07  128.54
   7  -6  22    9.69  135.07
  -7   7 -22   57.47   74.86
  -7   7 -22    5.27  132.67
   7  -7  22  -30.50   72.09
   7  -7  22   -5.13  142.09
  -7   8 -22   11.09  136.79
  -7   8 -22  114.70   76.73
   7  -8  22    5.59  154.65
   7  -8  22    5.33   76.62
  -6   8 -22 -237.29   68.54
  -6   8 -22   37.92  131.66
   6  -8  22   -5.01   72.86
   6  -8  22   -5.52  152.72
  -5   8 -22    4.10   57.04
  -5   8 -22   58.56  129.67
   5  -8  22  -11.30  158.16
   5  -8  22   88.36   71.49
  -4   8 -22  -42.16   59.90
  -4   8 -22   97.09  119.59
   4  -8  22  125.38  153.40
  -8  -3 -22    7.88  102.58
  -3   8 -22   38.03  120.75
  -8  -3 -22   73.82   51.84
  -3   8 -22    3.80   60.76
   3  -8  22  -95.44  157.52
  -2   8 -22   50.32  120.57
  -8  -2 -22   -8.01  100.90
  -2   8 -22   57.88   57.12
   2  -8  22   12.84  160.85
   8   2  22   99.91  100.82
  -1   8 -22   -4.10   61.38
   1  -8  22    6.93  172.32
  -8   0 -22   -4.16   58.80
   8   0  22   47.80   52.96
  -8   1 -22  -50.41   59.01
  -8   1 -22 -156.86  103.08
   8  -1  22  -57.40  110.61
   8  -1  22  -23.70   56.93
  -8   2 -22 -209.08  105.58
  -8   2 -22    4.37   62.89
   8  -2  22   16.79   54.40
   8  -2  22  138.97  112.89
  -8   3 -22   58.82   68.64
  -8   3 -22 -130.33  110.90
   8  -3  22 -161.26  123.80
   8  -3  22  -22.17   59.65
  -8   4 -22    4.58   72.61
  -8   4 -22 -181.88  114.78
   8  -4  22   -4.32  122.69
   8  -4  22    4.67   66.03
  -8   5 -22   48.75  129.24
  -8   5 -22  118.74   74.08
   8  -5  22  -48.99   70.62
   8  -5  22   -4.55  125.79
  -8   6 -22   -4.93   71.76
  -8   6 -22    5.13  128.01
   8  -6  22    4.94  141.71
   8  -6  22    5.14   73.41
  -8   7 -22   80.96  138.59
  -8   7 -22    5.12   75.42
   8  -7  22    5.24  145.69
   8  -7  22   37.65   77.62
  -8   8 -22  344.35  106.54
  -8   8 -22  581.25  169.74
   8  -8  22   39.13  179.79
   8  -8  22  129.66  105.12
  -8   9 -22    5.71   86.16
  -8   9 -22  -18.10  138.72
   8  -9  22 -177.33   85.89
   8  -9  22 -121.90  169.25
  -7   9 -22   10.41   88.52
  -7   9 -22  403.31  146.48
   7  -9  22  268.41  177.67
   7  -9  22   33.57   88.03
  -6   9 -22   -4.68   70.23
  -6   9 -22    5.66  136.51
   6  -9  22  192.68  167.07
   6  -9  22    5.23   77.18
  -5   9 -22   27.75  128.73
  -5   9 -22   60.11   65.37
   5  -9  22    6.00  158.26
   5  -9  22  -66.22   72.50
  -4   9 -22   -4.08   65.38
  -4   9 -22 -191.56  135.89
   4  -9  22 -328.93  163.59
  -3   9 -22  -23.88   61.06
  -3   9 -22  -44.98  132.49
   3  -9  22   -6.32  160.10
  -2   9 -22    4.02   60.57
  -2   9 -22  185.05  133.10
  -9  -2 -22   13.30   60.04
   2  -9  22 -257.65  174.29
   9   2  22   -3.50   46.09
  -9  -1 -22  -22.46   62.75
  -9  -1 -22   33.32   97.16
  -1   9 -22   -4.22   64.37
   1  -9  22    7.28  175.16
   9   1  22  -29.43   48.17
   9   1  22   21.67  104.38
  -9   0 -22  -84.84  102.88
  -9   0 -22   41.80   63.42
   9   0  22  -31.48   53.55
   9   0  22   22.36  107.78
  -9   1 -22   18.74   73.43
  -9   1 -22  -69.01  108.91
   9  -1  22   66.21   53.69
   9  -1  22    7.70  113.11
  -9   2 -22 -248.02  114.37
  -9   2 -22    4.84   68.75
   9  -2  22    3.99  115.54
   9  -2  22   96.47   65.26
  -9   3 -22 -228.59  107.49
  -9   3 -22   68.31   73.68
   9  -3  22    4.63   61.49
   9  -3  22  110.23  120.55
  -9   4 -22   14.25  124.52
  -9   4 -22   75.82   74.92
   9  -4  22   -4.43  124.79
   9  -4  22  116.78   68.88
  -9   5 -22   20.97   77.82
  -9   5 -22    4.97  127.65
   9  -5  22    9.32  128.41
   9  -5  22    5.09   70.94
  -9   6 -22  213.53  128.14
  -9   6 -22   92.58   83.97
   9  -6  22   -5.34   75.59
   9  -6  22  -29.51  139.95
  -9   7 -22   44.02  141.84
  -9   7 -22  -17.00   80.77
   9  -7  22   95.83  157.61
  -9   8 -22    5.85  137.59
  -9   8 -22   17.72   86.38
   9  -8  22    5.90   78.69
   9  -8  22    5.67  158.48
  -9   9 -22   49.45   92.34
  -9   9 -22   80.96  157.85
   9  -9  22   12.48   84.16
   9  -9  22    6.24  168.11
  -9  10 -22   13.31   97.57
  -9  10 -22    6.63  158.38
   9 -10  22 -263.07   88.96
   9 -10  22   -6.70  181.60
  -8  10 -22    5.98   84.82
  -8  10 -22  165.77  150.86
   8 -10  22   49.61   87.50
   8 -10  22 -188.98  182.26
  -7  10 -22   -5.44   79.76
  -7  10 -22  -43.04  142.23
   7 -10  22   26.10  177.36
   7 -10  22    5.92   85.69
  -6  10 -22    5.10   74.68
  -6  10 -22    5.94  135.17
   6 -10  22   -5.52   78.50
   6 -10  22  557.77  184.30
  -5  10 -22  110.45  149.56
  -5  10 -22  -55.50   71.49
   5 -10  22    6.38  176.74
   5 -10  22  -69.16   79.52
  -4  10 -22   35.16  132.06
  -4  10 -22    4.28   65.44
   4 -10  22    6.48  170.58
  -3  10 -22 -115.85  123.66
  -3  10 -22   -4.17   64.05
   3 -10  22 -101.56  178.90
  -2  10 -22   83.91  129.85
 -10  -2 -22   37.50  106.74
  -2  10 -22    4.21   62.08
 -10  -2 -22   24.54   71.81
  10   2  22  -84.60  108.55
   2 -10  22    7.18  174.99
  10   2  22   60.52   51.37
 -10  -1 -22   84.63  108.08
  -1  10 -22   -4.38   65.32
 -10  -1 -22   -5.00   68.25
  10   1  22   92.22   51.79
  10   1  22  -90.88  113.10
 -10   0 -22   81.19   71.48
 -10   0 -22  262.83  117.32
  10   0  22   51.16   62.91
  10   0  22   97.42  114.79
 -10   1 -22  -41.95   70.11
 -10   1 -22  -96.90  106.62
  10  -1  22  -62.44   61.92
  10  -1  22 -104.43  114.55
 -10   2 -22    4.53  107.42
 -10   2 -22    5.42   77.07
  10  -2  22   47.12   65.28
  10  -2  22   16.61  116.14
 -10   3 -22   87.68   78.71
 -10   3 -22    4.73  119.22
  10  -3  22   -4.31  123.88
  10  -3  22 -119.33   68.17
 -10   4 -22    4.92  125.96
 -10   4 -22    5.67   78.35
  10  -4  22   -4.54  127.89
  10  -4  22   10.35   70.01
 -10   5 -22    5.88   85.17
 -10   5 -22  -25.64  129.63
  10  -5  22   -4.77  131.74
  10  -5  22   -5.45   78.21
 -10   6 -22    6.11   88.62
 -10   6 -22    5.36  123.41
  10  -6  22    5.74   81.92
  10  -6  22   -5.03  140.93
 -10   7 -22  -73.65  139.26
  10  -7  22    5.45  147.02
 -10   8 -22    6.03  148.82
 -10   8 -22   26.52   91.33
  10  -8  22   -5.82  160.79
  10  -8  22    6.36   88.26
 -10   9 -22   48.53   97.43
 -10   9 -22   19.23  160.38
  10  -9  22  -57.18  176.81
  10  -9  22   53.45  101.35
 -10  10 -22    7.26  128.98
 -10  10 -22  664.93  206.43
  10 -10  22  790.44  255.13
  10 -10  22  323.31  132.41
 -10  11 -22   45.73  119.07
 -10  11 -22    7.34  180.99
  10 -11  22   15.07  208.99
  10 -11  22 -210.06  101.31
  -9  11 -22 1166.81  301.76
   9 -11  22 2093.22  389.76
  -8  11 -22 -137.90  100.06
  -8  11 -22    6.74  163.64
   8 -11  22   39.00   88.09
   8 -11  22    7.15  190.36
  -7  11 -22   58.15  151.42
  -7  11 -22   59.02   92.03
   7 -11  22  104.54  195.53
   7 -11  22    6.23   82.51
  -6  11 -22    5.35   85.15
  -6  11 -22 -130.37  152.59
   6 -11  22   -7.00  188.55
   6 -11  22    5.84   81.14
  -5  11 -22    4.86   73.06
  -5  11 -22  -54.89  139.20
   5 -11  22   34.38  189.27
   5 -11  22    5.54   80.00
  -4  11 -22   -6.00  144.05
  -4  11 -22    4.51   67.81
   4 -11  22    5.53   78.09
   4 -11  22  -41.45  185.92
  -3  11 -22   23.99  139.40
  -3  11 -22   13.11   64.73
   3 -11  22   28.80  200.57
  -2  11 -22   -4.42   73.07
  -2  11 -22   12.42  140.07
 -11  -2 -22  -97.47  107.96
  11   2  22 -115.83  115.92
   2 -11  22  182.74  205.39
 -11  -1 -22  202.22  112.46
  -1  11 -22   68.61   78.74
  11   1  22   73.05   62.52
 -11   0 -22   11.22   75.84
 -11   0 -22    4.38  117.23
  11   0  22 -166.84  118.47
  11   0  22   -4.52   57.20
 -11   1 -22  260.13  121.44
 -11   1 -22   40.34   88.86
  11  -1  22  138.75   80.84
  11  -1  22  343.16  132.43
 -11   2 -22 -111.70   84.90
 -11   2 -22 -244.37  123.12
  11  -2  22    5.07   69.47
  11  -2  22 -168.44  128.59
 -11   3 -22  -36.40   82.23
 -11   3 -22   38.63  115.57
  11  -3  22  -22.39  123.49
  11  -3  22   -5.33   72.74
 -11   4 -22    6.27   85.43
 -11   4 -22  -15.07  122.92
  11  -4  22   94.48  127.08
  11  -4  22   22.49   78.25
 -11   5 -22   -6.50   90.34
 -11   5 -22  178.88  129.09
  11  -5  22  -64.33  141.99
  11  -5  22   -5.93   76.67
 -11   6 -22    6.64   94.88
 -11   6 -22  128.77  135.75
  11  -6  22    5.22  138.36
  11  -6  22    6.25   79.32
 -11   7 -22   -5.92  154.43
  11  -7  22    5.58  158.63
 -11   8 -22   43.24  105.52
 -11   8 -22   -6.25  145.70
  11  -8  22    6.93   90.69
  11  -8  22    5.95  164.35
 -11   9 -22  486.21  236.49
 -11   9 -22  496.94  183.29
  11  -9  22  350.14  178.09
  11  -9  22 1268.41  276.91
 -11  10 -22   -8.01  110.94
 -11  10 -22    7.12  183.05
  11 -10  22    7.68   98.78
  11 -10  22    6.99  193.78
 -11  11 -22   38.12  186.36
 -11  11 -22   25.20  115.93
  11 -11  22   -8.08  106.72
  11 -11  22    7.66  217.55
 -11  12 -22 -237.38  204.52
  11 -12  22    8.47  235.93
 -10  12 -22  -81.81  108.74
 -10  12 -22  125.05  194.92
  10 -12  22  102.70  106.96
  10 -12  22    8.11  217.34
  -9  12 -22   29.78  185.68
  -9  12 -22   -7.35  108.61
   9 -12  22   62.87  232.38
   9 -12  22   14.57  100.55
   8 -12  22   -6.78   95.11
  -7  12 -22 -352.61  105.00
   7 -12  22    6.53  101.91
   7 -12  22 -106.64  220.51
  -6  12 -22  129.35  151.76
  -6  12 -22   -5.61   79.28
   6 -12  22   12.31   87.54
   6 -12  22   59.60  206.61
  -5  12 -22   -5.26   81.60
  -5  12 -22   44.74  156.91
   5 -12  22   -5.83   80.07
   5 -12  22  131.72  199.22
  -4  12 -22   -4.86   75.73
  -4  12 -22 -124.21  153.20
   4 -12  22 -115.44   81.70
   4 -12  22 -548.83  213.88
  -3  12 -22   -6.19  134.49
  -3  12 -22   18.44   69.87
   3 -12  22   69.43  207.07
  -2  12 -22    4.65  109.55
 -12  -2 -22   -4.36  110.26
  12   2  22  150.99  121.85
   2 -12  22  -32.26  248.92
  -1  12 -22   -4.78   74.73
 -12  -1 -22  124.22  117.98
  12   1  22  188.26  128.21
 -12   0 -22    4.53  127.51
  12   0  22  321.43  134.38
 -12   1 -22   -4.63  111.00
  12  -1  22  -17.59  123.00
 -12   2 -22   52.91  118.31
  12  -2  22  144.82  126.92
  12  -2  22  102.48   79.03
 -12   3 -22 -134.36  125.57
  12  -3  22   -5.68   72.83
  12  -3  22 -140.45  129.42
 -12   4 -22  207.15  130.31
 -12   4 -22    6.79   89.71
  12  -4  22   58.97  130.04
  12  -4  22    5.97   82.63
 -12   5 -22    7.03   94.38
 -12   5 -22   -5.43  128.56
  12  -5  22    5.15  140.90
  12  -5  22   50.18   79.34
 -12   6 -22 -109.86  137.16
 -12   6 -22    7.28   98.80
  12  -6  22    5.49  148.66
  12  -6  22   85.94   88.91
 -12   7 -22 -330.81  157.08
  12  -7  22   -5.80  175.03
 -12   8 -22   -6.59  169.88
 -12   8 -22 -142.11  115.85
  12  -8  22 -124.84  102.37
 -12   9 -22    7.02  175.16
 -12   9 -22   -8.25  108.53
  12  -9  22   69.61  103.23
  12  -9  22   86.66  188.61
 -12  10 -22   -8.63  119.34
 -12  10 -22 -186.48  180.44
  12 -10  22   -8.15  109.00
  12 -10  22   -7.15  204.49
 -10  13 -22   82.81  199.33
  10 -13  22    8.85  245.53
  -9  13 -22   47.12  191.98
  -9  13 -22   23.17  110.86
   9 -13  22   -7.74  107.88
   9 -13  22 -894.93  248.78
  -8  13 -22    7.12  109.28
  -8  13 -22   14.87  184.77
   8 -13  22    7.15   96.31
   8 -13  22   83.45  232.77
  -7  13 -22  -56.32  169.73
  -7  13 -22    6.49   97.84
   7 -13  22    8.09  217.38
   7 -13  22    6.86   94.31
  -6  13 -22 -304.96  109.24
   6 -13  22  -88.04  259.83
   6 -13  22  -38.97   97.96
  -5  13 -22 -364.20  171.43
  -5  13 -22 -309.48   98.69
   5 -13  22  -42.97   93.64
   5 -13  22 -824.38  241.35
  -4  13 -22  159.36  152.90
  -4  13 -22   -5.26   82.84
   4 -13  22   59.92   85.68
   4 -13  22  -70.96  207.37
  -3  13 -22    4.94   76.87
  -3  13 -22 -172.66  146.00
   3 -13  22  139.29  216.84
  -2  13 -22 -268.43   85.43
   2 -13  22    8.54  226.19
  -1  13 -22  -34.88   76.64
  -9  14 -22 -279.13  202.69
  -9  14 -22    8.33  122.32
   9 -14  22  -74.96  271.24
  -8  14 -22  215.92  191.88
  -8  14 -22   -7.48  104.51
   8 -14  22 -253.85  250.93
   8 -14  22  105.82  108.85
  -7  14 -22  145.67  178.45
  -7  14 -22    6.96   98.86
   7 -14  22 -237.05  254.27
   7 -14  22    7.16  103.60
  -6  14 -22    6.38   95.89
  -6  14 -22 -506.77  171.73
   6 -14  22   25.46  233.34
   6 -14  22  -34.37  101.69
  -5  14 -22 -217.25   90.40
  -5  14 -22   40.36  161.56
   5 -14  22  116.24   86.89
   5 -14  22   -8.41  236.81
  -4  14 -22    5.54   79.59
  -4  14 -22   -6.55  159.96
   4 -14  22 -126.72  226.81
   4 -14  22   12.53   91.00
  -3  14 -22 -435.41  161.76
  -3  14 -22  -84.84   79.44
   3 -14  22  -26.08  229.36
   3 -14  22 -150.21   94.27
  -2  14 -22 -315.99   98.88
  -1  14 -22 -166.76   87.90
  -8  15 -22   16.09  121.63
  -8  15 -22   47.69  195.34
   8 -15  22  -29.29  277.10
  -7  15 -22   65.39  102.39
  -7  15 -22 -112.98  167.42
   7 -15  22  -51.77   99.09
   7 -15  22 -345.63  263.67
   6 -15  22   18.03  250.61
   6 -15  22  -28.64   91.90
   5 -15  22  -67.92   88.83
  -1   0 -23  321.11   94.61
  -1  -1 -23   81.09   53.71
  -1   1 -23  -36.89   56.45
  -2  -1 -23   67.93   51.75
   2   1  23  120.35  131.52
  -2   0 -23   42.94   49.34
  -2   0 -23 -184.20  115.36
   2   0  23   21.96  138.55
  -2   1 -23  -25.78  114.24
  -2   1 -23   20.22   49.02
  -1  -2 -23   61.17   49.59
   2  -1  23   27.59  142.30
  -2  -2 -23  -37.86   50.63
  -2   2 -23  -98.94  113.06
   2  -2  23 -251.41  142.33
   2   2  23  -43.87  131.57
  -3  -2 -23  294.76   73.92
  -3  -2 -23  150.89  120.87
   3   2  23  186.31  141.41
  -3  -1 -23   69.53   49.17
  -3  -1 -23  119.36  115.23
   3   1  23   39.34  136.26
  -3   0 -23  347.50  124.58
  -3   0 -23  164.75   72.03
   3   0  23  348.15  149.79
  -3   1 -23  184.41   55.88
  -3   1 -23    4.91  108.66
  -1  -3 -23    6.57   55.20
   3  -1  23  332.86  139.70
  -2  -3 -23  246.84   69.66
  -3   2 -23   -4.98  128.37
  -3  -3 -23   65.07   47.09
  -3  -3 -23  -51.39  108.74
   3   3  23  -44.60  136.36
  -3   4 -23  707.40  124.94
  -4  -3 -23  129.79  112.97
  -3   4 -23   38.55   65.26
  -4  -3 -23  197.69   64.06
   4   3  23  238.20  128.76
  -2   4 -23   28.73   55.14
  -4  -2 -23   79.03   49.66
  -4  -2 -23   59.74  106.95
   4   2  23    4.40  112.48
  -4  -1 -23  242.97  115.53
  -1   4 -23    3.91   61.13
  -4  -1 -23  229.42   61.09
   4   1  23  227.17  126.95
  -4   0 -23   61.32  111.33
  -4   0 -23   16.21   47.21
   4   0  23   67.33  121.89
  -4   1 -23  281.13  124.13
   4  -1  23   13.76  132.02
  -4   3 -23 -103.63   55.40
  -4   4 -23    5.04  113.99
  -4   4 -23   38.91   53.57
   4  -4  23    5.03  131.57
  -4   5 -23   62.22  126.40
  -4   5 -23  185.29   65.82
   4  -5  23    5.24  148.07
  -5  -3 -23   64.85  108.83
  -5  -3 -23  196.39   54.74
  -3   5 -23    3.60   56.41
  -3   5 -23    5.29  122.69
   5   3  23  154.27   52.23
   5   3  23  -24.32  126.53
   3  -5  23   16.64  149.53
  -2   5 -23    5.48  118.89
  -5  -2 -23   13.10  106.01
  -5  -2 -23   45.40   47.68
  -2   5 -23    3.69   55.96
   2  -5  23  150.76  149.43
   5   2  23  143.14  112.37
   5   2  23  -13.22   51.69
  -1   5 -23    4.01   59.07
  -5  -1 -23   35.45  109.07
  -5  -1 -23   36.26   47.75
   1  -5  23 -150.34  155.39
   5   1  23  125.42   54.77
   5   1  23   50.23  111.01
  -5   0 -23  108.04  106.86
   5   0  23 -259.70  120.56
   5   0  23   -3.81   42.86
  -5   2 -23  101.78   57.61
  -5   3 -23   90.91  110.18
  -5   3 -23   21.57   57.92
   5  -3  23   59.91  132.12
  -5   4 -23  333.61  133.56
  -5   4 -23  132.64   69.14
   5  -4  23  100.74  147.93
  -5   5 -23    3.79   59.65
  -5   5 -23   10.12  126.33
   5  -5  23  -20.07  139.97
   5  -5  23    4.63   66.42
  -5   6 -23    5.24  119.52
   5  -6  23    5.39  142.95
  -4   6 -23   74.95  129.16
   4  -6  23    5.49  146.11
  -3   6 -23    5.43  128.85
  -6  -3 -23  -23.59   49.67
  -6  -3 -23 -155.81  113.42
   3  -6  23  144.54  149.13
  -6  -2 -23   72.67   60.52
  -2   6 -23    5.61  127.60
  -6  -2 -23  279.70  125.54
   6   2  23   55.47   53.77
   2  -6  23   56.29  161.57
   6   2  23  211.19  128.73
  -6  -1 -23 -157.52  123.19
   6   1  23   -3.50   40.65
   1  -6  23 -209.51  153.18
   6   1  23  -19.77  124.36
  -6   1 -23   -3.78   54.80
   6  -1  23   35.46   55.71
  -6   2 -23   85.69   73.09
  -6   2 -23  324.34  124.66
   6  -2  23  410.32  134.66
  -6   3 -23    9.52  117.17
  -6   3 -23  -66.18   61.45
   6  -3  23 -235.91  139.95
   6  -3  23   12.91   60.51
  -6   4 -23   24.53  127.00
  -6   4 -23   40.02   66.09
   6  -4  23   17.87   59.90
   6  -4  23    4.73  146.68
  -6   5 -23    5.08  123.00
  -6   5 -23  -16.48   65.31
   6  -5  23   -4.64   67.05
   6  -5  23  -49.64  148.35
  -6   6 -23    5.27  135.77
   6  -6  23    5.22  143.09
   6  -6  23   -4.82   70.05
  -6   7 -23   -4.53   73.44
  -6   7 -23 -115.01  129.93
   6  -7  23    5.52  151.06
   6  -7  23   40.12   69.96
  -5   7 -23    4.14   59.54
  -5   7 -23    5.43  126.39
   5  -7  23   74.43   74.84
   5  -7  23 -193.27  152.94
  -4   7 -23  -11.12  131.50
  -4   7 -23    7.74   60.62
   4  -7  23   -5.76  151.35
  -3   7 -23   61.58   54.38
  -3   7 -23  128.61  131.63
   3  -7  23    6.06  161.20
  -2   7 -23   82.51   59.58
  -2   7 -23    5.77  126.62
  -7  -2 -23   -4.28  103.61
   2  -7  23  -19.60  160.20
   7   2  23   25.94  108.49
  -1   7 -23   -4.21   59.06
   1  -7  23   21.07  167.55
  -7   0 -23   -3.97   57.06
   7   0  23   15.40   56.03
  -7   1 -23   54.39  110.85
  -7   1 -23   -4.14   59.26
   7  -1  23   94.45  118.02
   7  -1  23   40.76   59.56
  -7   2 -23   51.40   64.05
  -7   2 -23 -264.57  107.92
   7  -2  23   89.47  126.32
   7  -2  23   21.43   63.02
  -7   3 -23  -59.74   67.94
  -7   3 -23    9.55  110.75
   7  -3  23   94.34   63.80
   7  -3  23    4.44  133.13
  -7   4 -23  197.53  142.75
  -7   5 -23   35.81  133.51
  -7   5 -23  -13.63   77.65
   7  -5  23  885.30  170.58
   7  -5  23    4.89   66.21
  -7   6 -23  -96.11  131.46
  -7   6 -23   14.10   72.19
   7  -6  23   -5.25  145.72
   7  -6  23   10.19   74.12
  -7   7 -23 -170.41   76.51
  -7   7 -23  139.84  143.34
   7  -7  23   83.52  152.59
   7  -7  23   -5.32   76.84
  -7   8 -23  220.32   97.97
  -7   8 -23  727.22  169.68
   7  -8  23    5.91  182.68
   7  -8  23   94.61   97.97
  -6   8 -23   68.74  141.48
  -6   8 -23   -4.71   68.58
   6  -8  23    5.23   78.67
   6  -8  23    6.00  166.76
  -5   8 -23 -135.82  133.74
  -5   8 -23   90.41   69.52
   5  -8  23  -84.16  157.32
   5  -8  23 -231.72   76.74
  -4   8 -23    4.03   61.44
  -4   8 -23  127.25  134.34
   4  -8  23    6.14  164.17
  -3   8 -23 -200.94  135.45
  -3   8 -23    4.01   57.56
   3  -8  23   51.07  168.19
  -2   8 -23   36.73   61.56
  -2   8 -23  -23.81  128.28
   2  -8  23   13.70  170.36
  -8   0 -23  -68.76   62.67
  -8   0 -23   66.86  118.15
   8   0  23  -19.58  110.76
   8   0  23   19.64   54.01
  -8   1 -23  104.67  123.51
  -8   1 -23  -13.42   69.00
   8  -1  23  -50.42   61.98
   8  -1  23 -101.34  118.22
  -8   2 -23 -237.87  113.73
  -8   2 -23 -190.32   70.58
   8  -2  23  172.80  125.00
   8  -2  23  -53.48   64.50
  -8   3 -23 -159.63   76.18
  -8   3 -23   -4.81  120.02
   8  -3  23    9.00  126.94
   8  -3  23  -23.50   67.43
  -8   4 -23   -4.86   73.02
  -8   4 -23 -278.88  128.36
   8  -4  23   -4.70  131.74
   8  -4  23    4.92   72.51
  -8   5 -23  -41.49  131.01
  -8   5 -23   -5.02   77.27
   8  -5  23 -237.13   75.63
   8  -5  23    4.94  139.68
  -8   6 -23    5.43  126.90
  -8   6 -23 -187.37   80.41
   8  -6  23    5.39   74.42
   8  -6  23 -130.51  144.46
  -8   7 -23  559.32  167.24
   8  -7  23    5.65  181.67
  -8   8 -23    6.02  146.16
  -8   8 -23    5.62   82.26
   8  -8  23   29.52   83.06
   8  -8  23    6.01  171.62
  -8   9 -23    6.36  153.90
  -8   9 -23    5.86   83.54
   8  -9  23    6.56  175.86
   8  -9  23    6.18   89.07
  -7   9 -23   -6.18  148.38
  -7   9 -23 -120.36   81.00
   7  -9  23   -5.83   88.29
   7  -9  23   58.14  181.65
  -6   9 -23 -180.34  157.41
  -6   9 -23  -68.75   72.53
   6  -9  23   60.38   80.27
   6  -9  23  -38.28  182.99
  -5   9 -23   -4.51   76.56
  -5   9 -23   -5.92  142.03
   5  -9  23 -135.46  175.56
   5  -9  23    5.34   77.51
  -4   9 -23   -4.29   61.89
  -4   9 -23  155.45  132.97
   4  -9  23  -58.50  171.83
  -3   9 -23  -47.49  132.81
  -3   9 -23  -41.95   61.60
   3  -9  23    6.81  176.95
  -2   9 -23 -147.60  133.62
  -9  -2 -23    8.67  105.69
  -9  -2 -23   86.31   64.85
  -2   9 -23    4.25   64.67
   9   2  23   41.47  101.16
   9   2  23   25.59   52.37
   2  -9  23   28.83  176.42
  -9  -1 -23    9.44   62.27
  -9  -1 -23   75.14  113.70
  -1   9 -23    4.47   63.12
   9   1  23   19.38   50.73
   9   1  23  171.54  112.97
  -9   0 -23  -85.93   71.78
  -9   0 -23    4.49  113.47
   9   0  23   12.30   55.67
   9   0  23  100.64  115.36
  -9   1 -23   -4.94   72.57
  -9   1 -23 -307.72  112.71
   9  -1  23 -108.13  122.04
   9  -1  23   69.88   59.41
  -9   2 -23  -60.99  116.26
  -9   2 -23   59.82   73.79
   9  -2  23   90.45  121.98
   9  -2  23  -41.57   62.73
  -9   3 -23  -72.22   75.28
  -9   3 -23   -4.84  112.71
   9  -3  23   14.52   73.18
   9  -3  23 -174.55  123.47
  -9   4 -23  150.65  126.00
  -9   4 -23  -48.02   77.85
   9  -4  23  -10.17   72.09
   9  -4  23   -4.77  133.89
  -9   5 -23 -221.02   81.56
  -9   5 -23  -62.91  128.87
   9  -5  23   -5.00  141.06
   9  -5  23   58.67   76.99
  -9   6 -23    5.51  143.38
  -9   6 -23 -160.48   83.28
   9  -6  23    5.28  148.46
   9  -6  23    5.58   81.17
  -9   7 -23  -93.32  142.10
   9  -7  23   11.50  154.37
  -9   8 -23   18.61   91.25
  -9   8 -23   24.70  144.37
   9  -8  23  128.81  166.69
   9  -8  23    6.15   84.53
  -9   9 -23   65.56  161.40
  -9   9 -23   19.44   95.77
   9  -9  23   32.86  175.30
   9  -9  23   -6.47   87.68
  -9  10 -23    6.79  110.39
  -9  10 -23 -515.95  192.88
   9 -10  23 -383.06  111.88
   9 -10  23 -596.70  237.92
  -8  10 -23    6.27   87.07
  -8  10 -23    6.73  154.41
   8 -10  23 -105.53  192.11
   8 -10  23  -32.38   90.04
  -7  10 -23  110.45  157.44
  -7  10 -23   -5.71   81.42
   7 -10  23   13.79  190.65
   7 -10  23   -6.13   83.56
  -6  10 -23    5.15   75.27
  -6  10 -23   25.14  150.24
   6 -10  23    6.95  185.68
   6 -10  23    5.74   80.95
  -5  10 -23   99.38  142.69
  -5  10 -23   67.89   77.51
   5 -10  23   16.70   79.48
   5 -10  23   -6.86  186.27
  -4  10 -23    4.50   72.90
  -4  10 -23 -251.69  137.24
   4 -10  23  158.95  183.35
  -3  10 -23   52.74   67.50
  -3  10 -23 -479.54  145.01
   3 -10  23 -201.96  197.25
 -10  -2 -23   -4.45  108.07
 -10  -2 -23  -35.31   74.20
  -2  10 -23  140.05  144.43
  -2  10 -23  -13.34   74.17
  10   2  23  117.09  112.61
  10   2  23   35.38   55.91
   2 -10  23   99.14  194.59
 -10  -1 -23    4.53  111.18
  -1  10 -23   41.72   66.49
 -10  -1 -23  -41.78   70.33
  10   1  23  148.88  116.67
  10   1  23   16.74   52.06
 -10   0 -23  -58.56   74.01
 -10   0 -23   -9.21  116.58
  10   0  23  -57.32   64.53
  10   0  23    4.14  115.12
 -10   1 -23    4.70  121.49
 -10   1 -23   82.68   83.60
  10  -1  23 -192.17  123.95
  10  -1  23   51.41   65.42
 -10   2 -23  313.16  128.94
 -10   2 -23   11.16   77.28
  10  -2  23 -167.70  129.57
  10  -2  23   68.27   66.74
 -10   3 -23    4.94  124.16
 -10   3 -23    5.77   76.32
  10  -3  23   -5.16   71.64
  10  -3  23    4.58  130.61
 -10   4 -23  107.72  132.90
 -10   4 -23   35.80   87.70
  10  -4  23  -38.23  135.81
  10  -4  23   81.79   79.28
 -10   5 -23  214.31  147.60
 -10   5 -23  308.84   95.10
  10  -5  23   25.59  144.51
  10  -5  23   51.65   84.43
 -10   6 -23   45.14  143.30
 -10   6 -23    6.24   90.57
  10  -6  23    5.40  145.46
  10  -6  23  -84.47   83.72
 -10   7 -23  -71.31  150.92
  10  -7  23   17.54  161.90
 -10   8 -23 -173.68   96.84
 -10   8 -23    6.31  158.70
  10  -8  23    6.22  172.26
  10  -8  23    6.66   91.78
 -10   9 -23 -256.56  186.87
 -10   9 -23    7.26  114.00
  10  -9  23 -705.80  206.16
  10  -9  23   -6.99  108.44
 -10  10 -23   -7.22  181.38
 -10  10 -23    7.60  112.76
  10 -10  23    7.35  101.03
  10 -10  23  -88.21  197.93
 -10  11 -23 -183.48  107.19
 -10  11 -23  -53.92  186.16
  10 -11  23    7.91  216.23
  10 -11  23   46.25  109.26
  -9  11 -23    7.32  117.96
  -9  11 -23 -140.46  170.98
   9 -11  23  161.82  215.71
   9 -11  23    7.20  102.36
  -8  11 -23   32.86  127.44
   8 -11  23  416.46  263.35
   8 -11  23  440.97  128.55
  -7  11 -23  272.18  158.58
  -7  11 -23   -5.98   87.35
   7 -11  23  -82.98  210.29
   7 -11  23    6.49   90.30
  -6  11 -23    5.61   80.57
  -6  11 -23    6.57  157.70
   6 -11  23  163.10  193.14
   6 -11  23    6.06   86.24
  -5  11 -23   71.77  156.44
  -5  11 -23   -5.10   78.72
   5 -11  23  -99.27   84.67
   5 -11  23    7.31  197.40
  -4  11 -23 -159.03  148.99
  -4  11 -23  151.63   73.14
   4 -11  23   -7.42  193.98
   4 -11  23   -5.79   77.93
  -3  11 -23    4.60   72.09
  -3  11 -23  241.19  139.47
   3 -11  23   -7.65  202.92
 -11  -2 -23   -4.53  117.01
  -2  11 -23    4.66   75.90
  -2  11 -23    6.58  147.90
   2 -11  23  185.24  211.25
  11   2  23  -37.80   56.00
 -11  -1 -23  142.57  113.98
  11   1  23  -16.87  117.87
  11   1  23  -22.19   57.81
 -11   0 -23 -107.63  120.59
 -11   0 -23   87.57   81.82
  11   0  23   94.13   68.40
  11   0  23  272.84  128.74
 -11   1 -23   17.89   81.08
 -11   1 -23  -71.74  122.67
  11  -1  23    5.01   66.37
  11  -1  23   57.90  130.26
 -11   2 -23   -6.15   82.36
 -11   2 -23   19.65  120.91
  11  -2  23 -142.40  130.67
  11  -2  23    5.29   69.47
 -11   3 -23    6.36   86.51
 -11   3 -23    5.13  122.36
  11  -3  23   -4.76  136.82
  11  -3  23   -5.59   69.25
 -11   4 -23   45.37   91.24
 -11   4 -23 -138.51  133.26
  11  -4  23   -5.91   81.09
  11  -4  23    5.01  138.30
 -11   5 -23    5.56  137.33
 -11   5 -23   33.58   94.52
  11  -5  23  -31.42  149.64
  11  -5  23   49.21   81.89
 -11   6 -23    6.97   97.68
 -11   6 -23   35.03  143.22
  11  -6  23  -90.59   87.94
  11  -6  23    5.52  153.63
 -11   7 -23 -220.99  149.30
  11  -7  23    5.97  171.43
 -11   8 -23   75.58  117.04
 -11   8 -23  509.64  182.49
  11  -8  23  164.72  122.23
  11  -8  23  139.99  212.79
 -11   9 -23   47.35  108.76
 -11   9 -23   34.78  171.06
  11  -9  23  245.02  189.08
  11  -9  23    7.54  104.23
 -11  10 -23   67.07  180.98
 -11  10 -23   16.51  124.26
  11 -10  23    8.02  106.02
  11 -10  23 -178.84  211.92
 -11  11 -23  -16.03  195.70
  11 -11  23 -173.07  238.46
 -10  12 -23   49.24  210.77
  10 -12  23 -806.81  269.82
  -9  12 -23   15.38  108.65
  -9  12 -23   62.75  195.02
   9 -12  23   30.33   96.09
   9 -12  23   16.95  237.44
  -8  12 -23   -6.90  100.64
  -8  12 -23 -471.51  185.92
   8 -12  23    7.07   96.19
   8 -12  23 -297.39  241.40
  -7  12 -23    6.49  109.43
   7 -12  23  -13.61   95.82
  -6  12 -23   -5.89   91.07
   6 -12  23  -44.86   94.71
  -5  12 -23   -5.52   81.36
  -5  12 -23  203.77  167.01
   5 -12  23 -611.89  227.16
   5 -12  23 -103.32   82.44
  -4  12 -23  -58.95  155.06
  -4  12 -23    5.10   77.01
   4 -12  23   15.77  207.45
   4 -12  23   -6.05   83.50
  -3  12 -23 -302.22  144.48
  -3  12 -23    4.85   76.94
   3 -12  23    8.19  207.31
   2 -12  23 -324.09  301.70
 -12  -1 -23  107.98  121.77
  12   1  23  224.97  138.49
 -12   0 -23   62.19  119.36
  12   0  23 -266.81  131.84
 -12   1 -23  347.48  135.85
  12  -1  23  106.42   83.00
  12  -1  23  222.93  142.65
 -12   2 -23 -140.81  127.33
  12  -2  23   90.90  137.65
  12  -2  23   22.45   72.80
 -12   3 -23 -126.32  127.89
 -12   3 -23   -6.87   93.72
  12  -3  23   -5.90   74.80
  12  -3  23   19.80  139.75
 -12   4 -23   28.40  103.53
 -12   4 -23   87.61  129.88
  12  -4  23  -18.68   81.83
  12  -4  23   -5.21  142.57
 -12   5 -23  -80.21  133.73
 -12   5 -23   22.04  111.11
  12  -5  23    6.57   90.61
  12  -5  23  -16.35  150.04
 -12   6 -23 -251.50  105.90
 -12   6 -23 -384.05  162.73
  12  -6  23 -154.88  183.64
 -12   7 -23  -83.82  172.77
  12  -7  23 -263.37  195.02
 -12   8 -23 -335.13  171.72
 -12   8 -23    8.25  110.58
  12  -8  23   -7.69  103.55
  12  -8  23  286.69  198.86
 -12   9 -23   17.25  114.28
 -12   9 -23 -471.68  189.98
  12  -9  23  199.22  203.01
  12  -9  23    8.09  111.78
  -9  13 -23 -218.26  125.86
  -9  13 -23  115.72  207.09
   9 -13  23   71.63  105.77
   9 -13  23    9.28  256.24
  -8  13 -23  234.64  191.14
  -8  13 -23  -97.04  111.33
   8 -13  23  225.66  271.00
   8 -13  23    7.41  104.60
  -7  13 -23    7.44  180.32
  -7  13 -23  -95.34   95.08
   7 -13  23    8.78  237.84
   7 -13  23    7.13   99.43
  -6  13 -23   12.81   91.91
  -6  13 -23 -144.35  173.60
   6 -13  23    8.49  239.65
   6 -13  23    6.76   97.37
  -5  13 -23 -388.62  102.93
  -5  13 -23 -527.20  172.05
   5 -13  23 -108.93  106.63
   5 -13  23 -253.09  249.76
  -4  13 -23    5.39   85.30
  -4  13 -23    6.76  166.55
   4 -13  23   75.39   95.21
   4 -13  23  135.64  250.67
  -3  13 -23 -114.43   90.12
  -3  13 -23  -88.32  154.72
   3 -13  23 -312.85  229.75
  -2  13 -23    5.15   78.08
 -13   6 -23 -355.09  153.14
  13  -6  23  218.01  172.45
 -13   7 -23 -107.40  167.53
  13  -7  23  115.09  180.36
  13  -7  23   -7.81  103.24
 -13   8 -23    7.22  180.68
  13  -8  23 -149.47  193.08
  -8  14 -23 -266.38  122.74
  -8  14 -23   48.93  197.96
   8 -14  23  -86.12  266.79
   8 -14  23    7.81   99.99
  -7  14 -23  -36.52  113.18
  -7  14 -23   15.51  187.00
   7 -14  23   84.59  262.70
   7 -14  23    7.47  106.84
  -6  14 -23 -134.06  102.88
  -6  14 -23  -52.68  175.69
   6 -14  23    9.07  251.01
   6 -14  23  -49.82  102.82
  -5  14 -23 -164.07  172.63
  -5  14 -23   19.04   93.16
   5 -14  23    6.72   87.82
   5 -14  23 -107.18  246.23
  -4  14 -23   40.76   94.42
  -4  14 -23  124.90  154.09
   4 -14  23   52.51   94.41
   4 -14  23  233.39  236.37
  -3  14 -23 -147.85   77.97
  -3  14 -23  231.02  164.07
   3 -14  23   52.61   97.89
   3 -14  23   -9.20  235.95
  -2  14 -23  -16.13   77.73
  -7  15 -23 -651.51  214.45
   7 -15  23 -109.11  295.64
  -6  15 -23  190.16  176.68
  -6  15 -23  -14.49   95.50
   6 -15  23    7.48   96.82
   6 -15  23  115.18  258.55
  -5  15 -23   13.25   92.00
  -5  15 -23   -7.26  164.90
   5 -15  23  372.11  263.82
   5 -15  23  -14.18   94.91
   4 -15  23  105.04  246.70
   4 -15  23   61.13   92.72
   3 -15  23    6.79   95.09
  -1   0 -24  113.78   59.24
  -1  -1 -24  395.95  111.71
  -2  -1 -24  -85.98   53.26
   2   1  24  -82.45  143.26
  -2   0 -24   80.74   52.21
   2   0  24  -76.71  145.60
  -1  -2 -24   14.41   47.89
  -2   1 -24   -5.54  131.94
  -2  -2 -24   -3.35   50.34
  -3  -2 -24   -5.08  115.70
   3   2  24  -58.95  132.06
  -3  -1 -24   90.96   55.47
  -3  -1 -24   56.31  115.07
   3   1  24   79.83  139.52
  -3   0 -24 -155.39  123.64
   3   0  24   -5.36  143.34
  -1  -3 -24   41.73   55.86
  -2  -3 -24  -35.58   54.79
  -3   2 -24   39.19   52.12
  -3   3 -24   65.38   60.06
  -3   3 -24  118.44  134.81
  -3  -3 -24  191.41  120.08
  -3  -3 -24  126.52   56.22
   3   3  24  257.89  150.64
   3  -3  24  -67.12  142.22
  -4  -3 -24  243.86  130.81
  -3   4 -24   87.75  135.71
  -3   4 -24   29.69   57.49
  -4  -3 -24  110.92   59.86
   3  -4  24    5.75  159.26
  -4  -2 -24  -42.35   52.89
  -2   4 -24   41.87   57.60
  -4  -2 -24  -29.30  118.68
  -2   4 -24 -246.95  133.89
   2  -4  24  -43.88  160.06
   4   2  24 -154.35  132.40
  -4  -1 -24 -123.69  113.87
  -4  -1 -24  147.84   48.80
   4   1  24  -67.71  130.59
  -4   0 -24   -5.07  120.74
  -4   2 -24 1152.00  234.56
   4  -2  24 1175.89  241.90
  -4   3 -24  351.51  138.47
  -4   3 -24  135.52   65.26
   4  -3  24    5.26  143.32
  -4   4 -24   -3.74   54.70
  -4   4 -24  261.23  124.96
   4  -4  24    5.45  147.59
  -4   5 -24    3.84   55.73
  -4   5 -24 -139.74  136.00
   4  -5  24   50.95  150.30
  -3   5 -24 -280.32  129.89
  -5  -3 -24   36.32   53.92
  -3   5 -24 -160.06   59.80
   3  -5  24 -357.57  153.03
  -5  -2 -24   20.37   48.00
  -2   5 -24   76.11  130.67
  -5  -2 -24 -118.71  122.67
  -2   5 -24    3.90   56.09
   5   2  24    7.10   55.52
   5   2  24 -210.28  142.36
   2  -5  24   83.86  166.32
  -5  -1 -24  752.21  211.73
   5   1  24 1002.52  220.56
  -5   1 -24  135.13   81.81
   5  -1  24  162.00   84.12
  -5   2 -24  -74.55   57.29
  -5   2 -24   10.00  124.73
   5  -2  24 -127.30  135.99
  -5   3 -24 -110.47   59.50
  -5   3 -24   15.32  133.38
   5  -3  24   50.62  141.88
  -5   4 -24   31.43  128.90
  -5   4 -24   -3.90   58.18
   5  -4  24   31.57  147.64
  -5   5 -24 -145.65  128.44
  -5   5 -24    4.00   69.25
   5  -5  24 -109.82  146.69
  -5   6 -24  -89.26  131.00
  -5   6 -24 -107.18   63.76
   5  -6  24    5.76  155.13
   5  -6  24    5.04   66.96
  -4   6 -24   97.72  131.24
   4  -6  24    5.92  159.54
  -3   6 -24  166.74  136.07
   3  -6  24  -87.75  161.43
  -6  -2 -24   73.90  114.49
  -2   6 -24   71.88  132.16
   6   2  24  -88.86  117.11
   2  -6  24   80.25  173.16
  -6   0 -24   62.49   60.61
   6   0  24   59.64   59.24
  -6   1 -24    8.07   62.06
  -6   1 -24   62.96  119.64
   6  -1  24 -262.10  128.30
   6  -1  24   41.87   59.84
  -6   2 -24    8.06   57.41
  -6   2 -24  -84.08  121.24
   6  -2  24 -126.17  130.71
   6  -2  24    8.75   58.65
  -6   3 -24   28.92   66.93
  -6   3 -24    5.07  127.63
   6  -3  24  223.11  145.43
   6  -3  24  105.59   68.28
  -6   4 -24  161.59  128.87
  -6   4 -24    4.24   66.73
   6  -4  24    4.76   68.04
   6  -4  24   90.99  152.50
  -6   5 -24   -4.35   65.65
  -6   5 -24   -5.39  125.67
   6  -5  24  -70.49  158.02
   6  -5  24    4.93   70.57
  -6   6 -24    4.48   67.75
  -6   6 -24  145.48  139.37
   6  -6  24    5.06   72.81
   6  -6  24    5.70  159.35
  -6   7 -24  -58.32  140.12
   6  -7  24    6.01  165.27
  -5   7 -24  110.41  137.43
  -5   7 -24 -126.19   66.06
   5  -7  24   -6.06  161.60
   5  -7  24   15.64   75.40
  -4   7 -24    5.92  138.11
  -4   7 -24   -4.08   65.46
   4  -7  24    6.22  167.61
  -3   7 -24  -17.75  131.16
  -3   7 -24    4.07   59.04
   3  -7  24    6.55  165.98
  -2   7 -24   -6.15  134.18
  -2   7 -24    4.16   60.38
   2  -7  24   20.89  169.95
  -7  -1 -24   -4.68   95.02
  -7  -1 -24   16.23   62.23
   7   1  24   15.43   55.92
  -7   0 -24   -4.76  118.56
  -7   0 -24 -123.32   59.47
   7   0  24   44.99   58.82
   7   0  24   21.68  126.34
  -7   1 -24 -194.00  116.67
  -7   1 -24   -4.42   67.00
   7  -1  24    4.33   62.01
   7  -1  24   80.69  131.40
  -7   2 -24   13.21   63.05
  -7   2 -24   99.21  125.94
   7  -2  24   37.18  128.72
   7  -2  24  -77.22   64.46
  -7   3 -24   45.36   73.38
  -7   3 -24    5.09  130.65
   7  -3  24    4.75   65.14
   7  -3  24  285.28  140.30
  -7   4 -24   26.27  130.48
  -7   4 -24   60.69   74.28
   7  -4  24    4.94   68.60
   7  -4  24    5.05  145.64
  -7   5 -24   57.68   75.60
  -7   5 -24 -130.78  132.67
   7  -5  24   41.12   72.04
  -7   6 -24   54.54   80.36
  -7   6 -24   50.96  136.19
   7  -6  24   -5.34   75.81
   7  -6  24   33.44  158.29
  -7   7 -24  711.44  222.61
   7  -7  24  531.37  246.45
  -7   8 -24   10.65   78.71
  -7   8 -24  -62.13  152.15
   7  -8  24   11.62   72.14
   7  -8  24   -6.42  179.18
  -6   8 -24    4.95   75.99
  -6   8 -24   79.09  153.95
   6  -8  24  133.70  176.33
   6  -8  24  -10.95   80.31
  -5   8 -24    6.07  136.24
  -5   8 -24  -49.78   73.21
   5  -8  24   59.44   76.98
   5  -8  24   64.75  178.88
  -4   8 -24    6.06  137.00
  -4   8 -24    4.25   65.00
   4  -8  24    6.56  170.05
  -3   8 -24    6.10  139.10
  -3   8 -24  -42.32   64.84
   3  -8  24    6.88  178.90
  -2   8 -24    4.32   69.90
  -8  -2 -24   25.80   70.22
  -8  -2 -24  729.27  121.61
  -2   8 -24  272.37  144.79
   2  -8  24 -109.55  185.52
   8   2  24  302.47  122.56
  -8  -1 -24  -78.85   62.20
  -8  -1 -24   23.44  122.42
   8   1  24 -248.76  121.57
   8   1  24    3.86   47.79
  -8   0 -24  162.21  127.97
  -8   0 -24  100.73   66.43
   8   0  24    8.37   60.57
   8   0  24   85.73  125.26
  -8   1 -24   33.36   67.93
  -8   1 -24 -111.89  117.64
   8  -1  24   31.26   60.01
   8  -1  24 -217.33  126.47
  -8   2 -24   77.20   74.97
  -8   2 -24   34.86  124.00
   8  -2  24    9.19  128.56
   8  -2  24   28.38   66.70
  -8   3 -24  -64.84   76.28
  -8   3 -24   35.85  127.45
   8  -3  24 -114.23   69.91
   8  -3  24   14.35  137.79
  -8   4 -24   51.46   80.42
  -8   4 -24   84.74  133.66
   8  -4  24    5.10  141.45
   8  -4  24  -67.63   74.09
  -8   5 -24    5.31   79.91
  -8   5 -24 -247.88  135.31
   8  -5  24   -5.43   74.69
   8  -5  24   42.78  152.05
  -8   6 -24  103.61  149.46
  -8   6 -24    5.49   83.21
   8  -6  24    5.67   80.99
   8  -6  24   11.27  165.95
  -8   7 -24  192.95  148.79
   8  -7  24    5.96  166.49
  -8   8 -24   41.37   90.42
  -8   8 -24    6.36  160.31
   8  -8  24   24.67   88.33
   8  -8  24  129.95  177.05
  -8   9 -24 -400.29   89.82
  -8   9 -24   13.45  167.67
   8  -9  24    6.46   87.86
   8  -9  24   34.70  189.46
  -7   9 -24  182.16  160.75
  -7   9 -24   40.22   87.94
   7  -9  24 -164.17   89.03
   7  -9  24   20.50  187.84
  -6   9 -24  133.57  159.14
  -6   9 -24   30.95   73.37
   6  -9  24    6.93  180.14
   6  -9  24   -5.72   82.83
  -5   9 -24 -171.27  152.01
  -5   9 -24   -4.73   73.33
   5  -9  24    6.87  180.97
   5  -9  24   -5.61   80.31
  -4   9 -24   97.67   70.06
  -4   9 -24   12.55  142.44
   4  -9  24  252.39  190.02
  -3   9 -24   75.18   71.11
  -3   9 -24  138.70  137.36
   3  -9  24    7.25  180.99
  -2   9 -24  -49.41   64.16
  -9  -2 -24  167.05  117.75
  -9  -2 -24   23.89   67.55
  -2   9 -24 -124.25  138.68
   9   2  24   22.72   50.04
   9   2  24  150.35  121.95
   2  -9  24    7.67  187.55
  -9  -1 -24   97.04   71.73
  -9  -1 -24   70.59  120.00
   9   1  24   29.40  114.55
   9   1  24 -147.19   57.50
  -9   0 -24   30.27   73.68
  -9   0 -24   -4.78  114.70
   9   0  24  112.81  125.54
   9   0  24  -77.99   58.13
  -9   1 -24 -199.93  115.47
  -9   1 -24   40.76   69.40
   9  -1  24  -41.43   60.76
   9  -1  24 -112.07  128.95
  -9   2 -24  -10.56   74.81
  -9   2 -24  -99.99  118.71
   9  -2  24  143.84  129.56
   9  -2  24   33.91   68.20
  -9   3 -24   92.77   82.10
  -9   3 -24    5.15  125.20
   9  -3  24    5.10   72.47
   9  -3  24    4.83  136.10
  -9   4 -24   22.58   87.86
  -9   4 -24  267.37  144.65
   9  -4  24  161.18  157.04
   9  -4  24   26.71   79.90
  -9   5 -24    5.84   85.17
  -9   5 -24   72.53  137.29
   9  -5  24 -303.89  151.71
   9  -5  24 -151.12   82.49
  -9   6 -24  181.25  142.63
  -9   6 -24    6.04   84.76
   9  -6  24    5.73  154.11
   9  -6  24   -5.86   83.76
  -9   7 -24  166.27  159.74
   9  -7  24    6.07  170.90
  -9   8 -24   13.03   97.08
  -9   8 -24    6.52  160.51
   9  -8  24   -6.41   87.99
   9  -8  24    6.60  184.18
  -9   9 -24   76.04  173.70
  -9   9 -24   -6.80  103.37
   9  -9  24    7.06  205.09
   9  -9  24   26.95   90.94
  -9  10 -24   -7.11  105.58
  -9  10 -24  -14.67  176.72
   9 -10  24 -317.01  215.97
   9 -10  24    7.08  109.27
  -8  10 -24 -511.08  201.91
   8 -10  24 -189.95  241.22
   8 -10  24  -94.66  113.28
  -7  10 -24 -184.97  165.41
  -7  10 -24   18.00   84.58
   7 -10  24  -22.41  200.61
   7 -10  24    6.38   91.44
  -6  10 -24  -21.59   80.18
  -6  10 -24    6.66  156.75
   6 -10  24  -53.81   82.03
   6 -10  24   14.75  200.56
  -5  10 -24   13.31  160.22
  -5  10 -24    5.09   76.19
   5 -10  24 -235.49  198.15
   5 -10  24   75.74   84.92
  -4  10 -24 -222.39   70.16
  -4  10 -24   -6.51  146.45
   4 -10  24  208.03  198.24
  -3  10 -24    4.63   69.29
  -3  10 -24 -110.67  142.77
   3 -10  24   15.47  192.42
 -10  -2 -24   -4.70  116.22
  -2  10 -24    4.70   71.55
 -10  -2 -24  -84.21   75.53
   2 -10  24  -40.39  199.39
 -10  -1 -24    4.77  115.81
 -10  -1 -24   53.88   76.55
  10   1  24 -212.31  128.33
  10   1  24   39.00   59.77
 -10   0 -24    4.85  121.79
 -10   0 -24  -95.24   74.66
  10   0  24    4.62   61.11
  10   0  24  -17.86  127.42
 -10   1 -24 -173.16  124.33
 -10   1 -24   -5.68   81.32
  10  -1  24    9.82   68.23
  10  -1  24   59.86  132.94
 -10   2 -24   -5.07  122.79
 -10   2 -24  -23.54   82.04
  10  -2  24  -80.90  133.97
  10  -2  24   51.47   67.91
 -10   3 -24  162.21  125.46
 -10   3 -24    6.08   85.80
  10  -3  24  -24.67  135.38
  10  -3  24   59.94   78.51
 -10   4 -24   -6.12   86.49
 -10   4 -24  216.34  141.77
  10  -4  24  -30.87  142.64
  10  -4  24  114.90   83.48
 -10   5 -24   -6.33   92.63
 -10   5 -24  208.91  139.99
  10  -5  24  104.52  152.32
  10  -5  24   18.13   88.98
 -10   6 -24   98.51   97.91
 -10   6 -24    5.93  146.20
  10  -6  24 -185.27  167.75
  10  -6  24  206.52   94.51
 -10   7 -24    6.27  157.77
  10  -7  24   -6.14  173.77
 -10   8 -24 -327.06  174.32
 -10   8 -24  -14.19  109.39
  10  -8  24 -188.08  204.04
  10  -8  24 -369.42  111.18
 -10   9 -24  -14.81  106.63
 -10   9 -24 -277.22  184.19
  10  -9  24 -475.04  108.47
  10  -9  24 -280.46  205.00
 -10  10 -24    7.96  107.76
 -10  10 -24   22.76  179.22
  10 -10  24   -7.67   99.82
  10 -10  24    7.89  211.74
 -10  11 -24   16.20  192.71
  10 -11  24   -8.05  101.34
  10 -11  24  -76.35  241.98
  -9  11 -24    7.46  110.17
  -9  11 -24  -70.19  184.89
   9 -11  24  133.01  228.58
   9 -11  24   74.89  103.65
  -8  11 -24    7.49  174.64
  -8  11 -24    6.89  100.60
   8 -11  24   14.16  100.59
   8 -11  24  146.54  223.36
  -7  11 -24  295.04  178.32
   7 -11  24  698.03  183.56
   7 -11  24 1219.69  327.96
  -6  11 -24    7.01  165.10
  -6  11 -24   11.78   86.66
   6 -11  24   75.61   91.22
   6 -11  24  214.74  220.21
  -5  11 -24   10.70   78.97
  -5  11 -24 -159.46  164.06
   5 -11  24   30.49   87.71
   5 -11  24    7.83  216.42
  -4  11 -24  120.78  156.72
  -4  11 -24   19.93   76.15
   4 -11  24 -110.51  207.14
  -3  11 -24  -26.97  151.75
  -3  11 -24   -4.84   71.37
   3 -11  24   65.55  210.35
  -2  11 -24  -88.57   77.14
   2 -11  24   17.02  224.20
 -11  -1 -24  -34.36  126.67
 -11  -1 -24  153.29   77.20
  11   1  24    4.47  129.88
  11   1  24  -18.42   64.39
 -11   0 -24   -4.99  126.02
 -11   0 -24 -132.88   81.77
  11   0  24   59.76  132.63
  11   0  24   29.57   66.10
 -11   1 -24  132.46  131.03
 -11   1 -24  143.77   90.31
  11  -1  24  141.84  137.33
  11  -1  24  -62.72   72.07
 -11   2 -24    5.22  125.50
 -11   2 -24   64.70   92.80
  11  -2  24   16.65   75.72
  11  -2  24  131.66  140.55
 -11   3 -24    6.59   93.14
 -11   3 -24  274.39  136.82
  11  -3  24    5.87   80.73
  11  -3  24   80.79  140.39
 -11   4 -24  338.67  138.85
 -11   4 -24  204.62  101.75
  11  -4  24    6.13   87.24
  11  -4  24  136.76  150.27
 -11   5 -24   75.32  140.60
 -11   5 -24    7.07   98.05
  11  -5  24   -6.44   84.91
  11  -5  24  280.90  165.71
 -11   6 -24    6.09  151.47
 -11   6 -24  -29.32  100.63
  11  -6  24    5.92  160.38
  11  -6  24    6.77   92.61
 -11   7 -24  572.21  237.34
  11  -7  24  726.87  266.45
 -11   8 -24  -34.19  177.10
 -11   8 -24    7.93  113.31
  11  -8  24    7.47  103.17
  11  -8  24 -122.56  198.16
 -11   9 -24   51.18  181.10
 -11   9 -24 -182.09  126.88
  11  -9  24 -116.42  201.25
  11  -9  24   -7.86  105.32
 -11  10 -24  125.60  193.46
  11 -10  24    8.03  217.81
  -9  12 -24  152.84  115.78
  -9  12 -24    8.26  205.93
   9 -12  24   27.42  262.65
  -8  12 -24   -7.87  194.78
  -8  12 -24   28.90  102.64
   8 -12  24   -7.41  100.69
   8 -12  24    8.93  240.43
  -7  12 -24    6.81   99.86
  -7  12 -24 -181.01  179.83
   7 -12  24    7.10  100.79
   7 -12  24  -87.15  225.99
  -6  12 -24 -404.93  174.96
  -6  12 -24    6.18   98.10
   6 -12  24  186.55  235.22
   6 -12  24  -13.33   92.31
  -5  12 -24  220.35  197.49
  -5  12 -24    5.63  105.25
   5 -12  24  584.88  257.88
   5 -12  24  152.33  101.14
  -4  12 -24   -5.36   78.79
  -4  12 -24  -62.49  162.80
   4 -12  24   76.36  219.17
   4 -12  24    6.34   89.63
  -3  12 -24 -209.37   75.63
  -3  12 -24 -139.70  155.26
   3 -12  24  217.42  226.02
  -2  12 -24   15.53   79.20
 -12  -1 -24   55.01  124.61
  12   1  24  -70.27  137.15
 -12   0 -24  290.22  134.15
  12   0  24  264.27  146.39
  12   0  24   10.46   74.98
 -12   1 -24    5.20  128.14
  12  -1  24  -19.74  143.35
  12  -1  24   44.27   71.02
 -12   2 -24   20.90   90.33
 -12   2 -24   10.69  135.77
  12  -2  24   50.81  141.69
  12  -2  24 -163.45   77.92
 -12   3 -24    5.52  133.73
 -12   3 -24    7.20   92.58
  12  -3  24   18.55   82.23
  12  -3  24 -278.60  149.21
 -12   4 -24 -260.83  142.48
 -12   4 -24   59.52  101.97
  12  -4  24  -16.40  155.09
  12  -4  24   39.24   91.63
 -12   5 -24    7.64  102.20
 -12   5 -24  314.90  163.01
  12  -5  24    6.91  102.76
  12  -5  24   40.35  179.74
 -12   6 -24    7.92  106.63
 -12   6 -24  247.60  153.20
  12  -6  24    7.27  103.27
  12  -6  24   -6.06  174.02
 -12   7 -24  222.29  115.81
 -12   7 -24   86.77  154.60
  12  -7  24   15.32  110.31
  12  -7  24    6.42  190.67
 -12   8 -24    7.10  191.30
 -12   8 -24   34.29  117.47
  12  -8  24   -8.06  105.78
  12  -8  24 -118.43  199.06
  -8  13 -24    7.59  102.25
  -8  13 -24    8.29  186.23
   8 -13  24   -7.72  105.77
   8 -13  24 -190.58  261.64
  -7  13 -24   21.42  109.69
  -7  13 -24  173.93  189.21
   7 -13  24  -52.05  105.77
   7 -13  24    9.28  265.81
  -6  13 -24 -123.17   99.75
  -6  13 -24    7.72  184.21
   6 -13  24  -90.88  245.41
   6 -13  24 -112.48  101.00
  -5  13 -24  -85.26   95.91
  -5  13 -24 -110.22  175.79
   5 -13  24  -17.92  243.85
   5 -13  24   -6.68   92.81
  -4  13 -24    5.66   84.49
  -4  13 -24  -28.60  164.96
   4 -13  24    9.01  234.79
   4 -13  24    6.58   89.57
  -3  13 -24  -21.90   83.40
  -3  13 -24 -216.51  169.85
   3 -13  24  -55.32  232.43
  -2  13 -24   54.36   85.43
 -13   2 -24    5.51  139.79
  13  -2  24   90.28  161.98
 -13   3 -24 -126.83  138.38
 -13   4 -24  179.87  146.04
  13  -4  24   28.84  167.67
 -13   5 -24   -6.27  151.82
  13  -5  24 -234.82  178.74
  13  -5  24    7.34  100.50
 -13   6 -24   86.74  154.88
  13  -6  24    6.33  184.68
  13  -6  24    7.73   97.78
 -13   7 -24   -7.06  164.65
  13  -7  24    6.74  197.58
  -7  14 -24   44.94  112.15
  -7  14 -24   99.25  193.79
   7 -14  24    9.97  275.30
  -6  14 -24  -39.70  186.74
  -6  14 -24   14.09   99.35
   6 -14  24   -9.66  262.60
   6 -14  24    7.41  102.85
  -5  14 -24   -6.41   91.53
  -5  14 -24  112.88  178.59
   5 -14  24    7.01   98.51
   5 -14  24   28.83  257.76
  -4  14 -24    6.12   97.62
  -4  14 -24   58.98  169.16
   4 -14  24  -68.70  104.45
   4 -14  24  -57.65  251.05
  -3  14 -24   -5.77   82.30
   3 -14  24  -13.83   97.01
   3 -14  24 -126.41  247.46
  -2  14 -24  107.89   91.56
  -6  15 -24    8.06  188.98
   6 -15  24  -20.58  281.28
  -5  15 -24  111.54  103.17
  -5  15 -24  100.22  182.86
   5 -15  24   -7.41   96.64
   5 -15  24   10.14  281.51
  -4  15 -24   -6.61  100.07
  -4  15 -24  151.44  179.99
   4 -15  24    7.11   96.62
   4 -15  24  111.53  264.97
  -3  15 -24    6.19   97.55
   3 -15  24   -7.15  102.43
  -1  -2 -25  140.74   68.95
  -2   1 -25  170.77   70.05
  -2   2 -25  235.73   65.46
  -2   2 -25 -221.39  140.52
  -2  -2 -25  -14.22   60.53
   2  -2  25 -277.37  156.44
  -3  -2 -25   48.84   51.19
  -2   3 -25 -435.71  140.32
  -3  -2 -25 -218.46  138.21
  -2   3 -25  -63.07   60.18
   2  -3  25 -308.68  162.75
   3   2  25  -46.32  155.96
  -3  -1 -25  698.64  195.75
   3   1  25  759.02  214.63
  -3   1 -25   55.73   65.41
   3  -1  25   -5.85  125.81
  -3   2 -25   75.56   60.21
  -2  -3 -25  -30.90   59.91
  -3   2 -25 -175.82  129.88
   3  -2  25 -101.13  159.92
  -3   3 -25  -86.28  135.40
  -3  -3 -25   16.85   53.22
  -3   3 -25 -103.91   58.32
   3  -3  25  145.80  157.74
  -3   4 -25   -3.93   58.15
  -3   4 -25   99.48  135.97
   3  -4  25  -81.24  156.00
  -2   4 -25  -64.54   64.25
  -2   4 -25 -178.06  130.17
  -4  -2 -25   98.85  125.38
   4   2  25  -26.41  143.86
   2  -4  25   67.19  165.10
  -4   0 -25   58.85   56.25
  -4   1 -25   43.50  129.05
  -4   1 -25  -44.96   57.19
   4  -1  25   16.19  144.04
  -4   2 -25 -176.80  129.74
  -4   2 -25   26.68   57.12
   4  -2  25  375.65  153.71
  -4   3 -25   27.16   56.75
  -4   3 -25  -45.39  133.25
   4  -3  25  -45.40  149.59
  -4   4 -25 -162.14  138.69
  -4   4 -25   -3.96   56.08
   4  -4  25    5.86  152.04
  -4   5 -25   47.01  136.49
  -4   5 -25    4.06   56.05
   4  -5  25   -6.08  154.68
  -3   5 -25   28.24   60.70
  -3   5 -25   -5.97  129.64
   3  -5  25    6.45  162.84
  -2   5 -25    4.13   64.75
  -2   5 -25  162.56  140.34
   2  -5  25 -283.25  171.93
  -5  -1 -25   -3.77   57.28
  -5   0 -25  929.67  198.84
   5   0  25  912.38  214.93
  -5   1 -25  -42.71   59.69
  -5   1 -25    5.31  120.13
   5  -1  25  129.20  141.92
  -5   2 -25  -98.97   61.33
  -5   2 -25 -183.27  127.45
   5  -2  25   21.27  150.59
  -5   3 -25  -22.00  129.41
  -5   3 -25   16.13   61.44
   5  -3  25  148.18  149.19
  -5   4 -25   -5.63  134.22
  -5   4 -25  -12.35   62.32
   5  -4  25    5.69  156.37
  -5   5 -25   -4.22   63.78
  -5   5 -25   28.99  132.61
   5  -5  25    5.93  163.84
  -5   6 -25   30.40   65.51
  -5   6 -25   -5.99  135.60
   5  -6  25  -21.18   73.80
   5  -6  25 -105.70  170.88
  -4   6 -25    4.16   65.14
  -4   6 -25   -6.04  133.85
   4  -6  25  266.54  161.88
  -3   6 -25  104.06  142.91
  -3   6 -25   -4.15   59.92
   3  -6  25   40.24  174.56
  -6  -2 -25   -3.99   64.37
  -2   6 -25   51.11  147.08
   2  -6  25  -28.59  175.92
  -6  -1 -25 1428.75  231.38
   6   1  25  827.29  233.00
  -6   0 -25 -163.59  124.09
  -6   0 -25  -16.69   63.54
   6   0  25  -42.35   61.89
   6   0  25 -105.83  131.96
  -6   1 -25  104.10  126.59
  -6   1 -25   12.54   68.97
   6  -1  25    4.45   69.07
   6  -1  25  277.60  143.90
  -6   2 -25   42.44  129.83
  -6   2 -25   -4.28   61.01
   6  -2  25    5.13  139.89
   6  -2  25   74.88   70.27
  -6   3 -25  113.98  133.60
  -6   3 -25   21.90   67.19
   6  -3  25 -155.38   72.82
   6  -3  25 -271.05  151.07
  -6   4 -25    4.48   72.46
  -6   4 -25  122.72  140.46
   6  -4  25   30.13   72.42
   6  -4  25  -27.64  151.02
  -6   5 -25    5.76  136.81
  -6   5 -25    4.60   73.94
   6  -5  25    5.78  153.28
   6  -5  25   10.38   72.75
  -6   6 -25    5.95  147.95
  -6   6 -25   -4.72   73.03
   6  -6  25  151.66  164.67
   6  -6  25 -252.07   76.23
  -6   7 -25 -154.71  148.68
   6  -7  25  -85.11  180.88
  -5   7 -25   18.70  144.60
   5  -7  25  -26.15  165.40
  -4   7 -25   -4.30   65.41
  -4   7 -25    6.22  143.12
   4  -7  25  107.44  176.67
  -3   7 -25  120.25   69.94
  -3   7 -25  276.80  144.25
   3  -7  25    7.00  182.31
  -2   7 -25    4.40   66.26
  -7  -2 -25   55.45   65.12
  -7  -2 -25  487.95  118.01
  -2   7 -25  104.81  146.97
   7   2  25   -3.79   58.84
   2  -7  25  141.18  183.13
  -7  -1 -25  130.28  123.12
  -7  -1 -25  -47.84   63.45
   7   1  25   36.73   55.41
   7   1  25  138.04  134.06
  -7   0 -25  -25.48  134.09
  -7   0 -25   27.28   64.77
   7   0  25   21.73   61.52
   7   0  25 -118.70  141.54
  -7   1 -25   22.73   66.66
  -7   1 -25   15.57  129.36
   7  -1  25 -152.11  140.89
   7  -1  25   22.95   60.84
  -7   2 -25  -84.70  132.95
  -7   2 -25   14.06   75.30
   7  -2  25    4.81   65.10
   7  -2  25    5.08  144.01
  -7   3 -25   43.46  127.17
  -7   3 -25   77.04   75.30
   7  -3  25    5.01   73.20
   7  -3  25  300.82  155.87
  -7   4 -25    4.95   73.70
  -7   4 -25 -184.72  133.21
   7  -4  25   -5.19   71.20
   7  -4  25    5.50  148.59
  -7   5 -25    5.79  143.13
  -7   5 -25    5.08   74.82
   7  -5  25 -134.73   75.55
  -7   6 -25 -114.38  156.24
  -7   6 -25  -73.23   81.37
   7  -6  25    6.06  176.31
   7  -6  25  117.63   81.28
  -7   7 -25  444.42  164.30
   7  -7  25    6.41  182.49
  -7   8 -25    5.60   86.22
  -7   8 -25    6.56  154.92
   7  -8  25   -6.07   85.91
   7  -8  25  104.47  188.12
  -6   8 -25   12.90  156.89
  -6   8 -25   36.44   75.02
   6  -8  25    5.73   82.99
   6  -8  25    6.93  177.59
  -5   8 -25    4.76   76.11
  -5   8 -25   19.50  158.56
   5  -8  25    6.90  184.77
   5  -8  25    5.67   76.79
  -4   8 -25    4.47   68.39
  -4   8 -25   -6.43  151.06
   4  -8  25    7.07  178.32
  -3   8 -25  109.90  142.69
  -3   8 -25   98.39   71.29
   3  -8  25    7.34  182.55
  -2   8 -25    4.56   64.89
  -8  -2 -25   74.02  128.19
  -2   8 -25    6.74  150.06
  -8  -2 -25 -105.15   68.59
   2  -8  25   38.78  186.17
   8   2  25   60.52   52.55
  -8  -1 -25   37.33   72.28
  -8  -1 -25   40.11  123.00
   8   1  25   37.14   63.75
   8   1  25  427.32  136.95
  -8   0 -25  -29.30   71.31
  -8   0 -25   20.43  125.64
   8   0  25 -223.32  137.70
   8   0  25  -13.35   59.44
  -8   1 -25   -5.21  134.01
  -8   1 -25   59.53   74.32
   8  -1  25    9.49   66.67
   8  -1  25  197.26  142.84
  -8   2 -25   82.15   79.45
  -8   2 -25   26.61  129.62
   8  -2  25  129.60  144.53
   8  -2  25 -105.13   69.49
  -8   3 -25   21.18   80.56
  -8   3 -25   43.71  131.56
   8  -3  25    5.26   72.78
   8  -3  25  212.31  148.08
  -8   4 -25   33.77  139.91
  -8   4 -25    5.45   73.59
   8  -4  25    5.40  150.38
   8  -4  25    5.49   80.96
  -8   5 -25    5.85  145.24
  -8   5 -25  337.25   88.99
   8  -5  25    5.79  166.98
   8  -5  25  -22.90   83.13
  -8   6 -25   -5.80   89.73
  -8   6 -25   36.59  152.07
   8  -6  25 -372.52  169.51
   8  -6  25  -53.60   85.85
  -8   7 -25 -140.70  155.87
   8  -7  25    6.47  184.54
  -8   8 -25   -6.21   91.00
  -8   8 -25 -322.13  158.63
   8  -8  25    6.46   94.37
   8  -8  25 -144.26  194.21
  -8   9 -25    6.47   95.62
  -8   9 -25 -113.45  169.17
   8  -9  25   45.03  204.76
   8  -9  25 -101.07   97.79
  -7   9 -25  -11.64   87.43
  -7   9 -25   -6.90  173.53
   7  -9  25 -207.52  199.35
   7  -9  25   25.37   89.99
  -6   9 -25    5.42   79.80
  -6   9 -25   47.31  167.08
   6  -9  25    5.98   86.67
   6  -9  25   58.88  196.88
  -5   9 -25  -54.67   70.85
  -5   9 -25   47.53  159.41
   5  -9  25   -5.89   86.00
   5  -9  25   66.32  197.33
  -4   9 -25   23.37   71.19
  -4   9 -25  186.40  159.83
   4  -9  25  381.43  208.02
  -3   9 -25   -6.68  143.20
  -3   9 -25   23.34   70.87
   3  -9  25    7.79  202.79
  -2   9 -25   33.25   72.09
  -9  -2 -25    4.97  126.29
  -9  -2 -25   60.44   74.84
   2  -9  25   73.17  196.95
  -9  -1 -25  102.69   89.15
  -9  -1 -25  307.90  135.55
   9   1  25  411.99  140.95
   9   1  25   63.99   69.01
  -9   0 -25  320.98  104.11
  -9   0 -25  210.28  146.80
   9   0  25  349.88  148.82
   9   0  25  128.17   85.73
  -9   1 -25   97.36   93.40
  -9   1 -25  172.47  139.26
   9  -1  25  164.56   80.94
   9  -1  25  317.56  153.49
  -9   2 -25   61.54   85.86
  -9   2 -25  192.49  136.27
   9  -2  25   35.78   72.83
   9  -2  25  -30.36  144.01
  -9   3 -25 -115.69   85.29
  -9   3 -25    5.50  136.36
   9  -3  25   52.56  146.38
   9  -3  25   -5.37   79.76
  -9   4 -25  202.75   89.22
  -9   4 -25   39.80  136.62
   9  -4  25   39.44   82.84
   9  -4  25  -49.32  153.36
  -9   5 -25  118.30  155.36
  -9   5 -25  -23.92   98.39
   9  -5  25    5.75  163.68
   9  -5  25    5.89   82.36
  -9   6 -25 -142.38  146.17
  -9   6 -25   -6.18   87.73
   9  -6  25 -265.85  167.69
   9  -6  25    6.15   84.58
  -9   7 -25   13.02  146.60
   9  -7  25  -26.17  180.26
  -9   8 -25    6.86  169.97
  -9   8 -25    6.64   97.79
   9  -8  25   -6.96  192.28
   9  -8  25  167.73   97.03
  -9   9 -25   -7.13  110.67
  -9   9 -25 -778.86  197.97
   9  -9  25   -7.01  109.24
  -9  10 -25 -317.48  197.18
  -9  10 -25  -74.49  113.16
   9 -10  25   57.17  236.07
   9 -10  25 -448.82  109.48
  -8  10 -25 -738.77  189.82
  -8  10 -25   -6.75  104.81
   8 -10  25   -7.06  100.00
   8 -10  25   -8.03  226.49
   7 -10  25 -471.89  116.50
  -6  10 -25    7.11  165.56
  -6  10 -25    5.66   87.44
   6 -10  25  134.67  213.58
   6 -10  25   -6.27   88.96
  -5  10 -25  141.15  167.68
  -5  10 -25   31.25   78.06
   5 -10  25   30.54   87.06
   5 -10  25 -195.99  212.95
  -4  10 -25  -84.65   73.73
  -4  10 -25   13.72  161.20
   4 -10  25   -7.92  200.22
  -3  10 -25 -138.35  158.28
  -3  10 -25  -83.01   72.12
   3 -10  25   82.32  208.51
  -2  10 -25  -49.65   77.18
   2 -10  25  -34.24  212.18
 -10  -1 -25  106.45  126.22
 -10  -1 -25    5.67   74.36
  10   1  25  139.90  138.86
  10   1  25   40.85   57.90
 -10   0 -25  236.94  130.22
 -10   0 -25   52.05   81.82
  10   0  25   38.48  137.91
  10   0  25  -14.56   62.80
 -10   1 -25   73.49  129.49
 -10   1 -25    6.00   84.94
  10  -1  25  -61.34   70.63
  10  -1  25 -208.38  143.29
 -10   2 -25   -5.38  131.89
 -10   2 -25 -254.70   94.37
  10  -2  25   71.75  149.42
  10  -2  25   59.81   74.27
 -10   3 -25  156.36   88.68
 -10   3 -25 -210.24  135.33
  10  -3  25    5.31  148.74
  10  -3  25   11.50   75.31
 -10   4 -25   -6.46   96.48
 -10   4 -25   45.90  142.07
  10  -4  25   27.64  154.38
  10  -4  25   -5.98   83.17
 -10   5 -25  107.74  147.85
 -10   5 -25   20.04  101.67
  10  -5  25    6.28   84.64
  10  -5  25    5.80  156.39
 -10   6 -25   -6.91  100.59
 -10   6 -25  100.71  153.49
  10  -6  25    6.58   88.09
  10  -6  25  156.83  169.87
 -10   7 -25 -524.65  189.46
 -10   7 -25   -7.17  117.37
  10  -7  25 -454.24  118.19
  10  -7  25 -338.87  218.55
 -10   8 -25    7.45  107.44
 -10   8 -25   42.20  163.16
  10  -8  25    7.09  201.69
  10  -8  25    7.21   94.11
 -10   9 -25  -23.31  111.89
 -10   9 -25    7.48  180.82
  10  -9  25 -143.33  109.69
  10  -9  25  -30.94  218.76
 -10  10 -25 -183.76  200.42
  10 -10  25   -8.01  102.94
  10 -10  25    8.29  226.18
  -9  11 -25  -39.02  111.63
  -9  11 -25  131.36  196.12
   9 -11  25  179.62  254.35
  -8  11 -25   -7.23  102.93
  -8  11 -25    7.88  185.43
   8 -11  25 -158.54  248.03
   8 -11  25  -73.87  105.81
  -7  11 -25 -395.69  190.40
  -7  11 -25  171.20   96.40
   7 -11  25    8.65  224.43
   7 -11  25  -20.98   97.54
  -6  11 -25  657.77  214.75
  -6  11 -25   53.45   98.52
   6 -11  25   45.96  101.01
   6 -11  25  126.62  245.32
  -5  11 -25  -84.26   86.46
  -5  11 -25 -420.82  173.74
   5 -11  25    8.35  214.92
   5 -11  25  -31.89   94.04
  -4  11 -25   -7.11  165.68
  -4  11 -25    5.23   77.05
   4 -11  25  -59.49  220.20
  -3  11 -25    5.10   77.78
  -3  11 -25  -78.86  153.87
   3 -11  25  122.01  224.04
  -2  11 -25   15.60   86.96
   2 -11  25 -324.18  226.32
 -11  -1 -25  -92.30   86.91
 -11  -1 -25  -41.21  129.19
  11   1  25  -19.25   67.18
  11   1  25  -43.25  139.48
 -11   0 -25   -6.34   84.61
 -11   0 -25 -209.49  128.02
  11   0  25   -5.14   66.94
  11   0  25  148.35  142.69
 -11   1 -25   78.90   99.69
 -11   1 -25   16.02  134.00
  11  -1  25  -61.06  153.13
  11  -1  25   16.47   74.69
 -11   2 -25 -136.84  134.63
 -11   2 -25    6.71   96.17
  11  -2  25  -81.73   80.40
  11  -2  25    5.25  144.21
 -11   3 -25  -67.72  139.61
 -11   3 -25    6.95   96.06
  11  -3  25   61.07   82.01
  11  -3  25  -21.75  149.44
 -11   4 -25    7.19  100.60
 -11   4 -25   58.58  141.38
  11  -4  25    6.43   83.62
  11  -4  25  186.72  158.46
 -11   5 -25  -37.21  105.25
 -11   5 -25 -286.43  157.75
  11  -5  25 -212.88  173.94
  11  -5  25   47.33  100.45
 -11   6 -25 -467.57  168.56
 -11   6 -25  223.62  114.81
  11  -6  25  368.39  198.69
  11  -6  25   85.17  107.07
 -11   7 -25    8.00  113.39
 -11   7 -25  155.65  174.76
  11  -7  25    7.44   97.74
  11  -7  25 -154.45  196.99
 -11   8 -25    7.21  188.39
 -11   8 -25   -8.33  119.43
  11  -8  25    7.15  202.23
 -11   9 -25 -107.85  187.63
  11  -9  25 -204.47  224.18
  -8  12 -25   75.03  195.18
  -8  12 -25   -7.58  105.57
   8 -12  25 -226.09  262.61
  -7  12 -25    6.90  105.54
  -7  12 -25  288.43  193.73
   7 -12  25    7.40  104.38
   7 -12  25    9.23  247.15
  -6  12 -25  235.96  191.45
  -6  12 -25    6.48   96.28
   6 -12  25   62.48   99.06
   6 -12  25   -9.07  249.66
  -5  12 -25    7.53  177.32
  -5  12 -25    5.92   90.38
   5 -12  25    6.63  100.01
   5 -12  25 -116.63  244.74
  -4  12 -25 -214.06   98.26
  -4  12 -25 -434.74  192.63
   4 -12  25 -802.40  259.62
   4 -12  25 -139.67  104.64
  -3  12 -25   81.65  181.02
  -3  12 -25   -5.38   95.91
   3 -12  25  591.25  267.61
  -2  12 -25    5.47   84.82
 -12  -1 -25   -5.33  130.45
  12   1  25   -4.96  145.56
 -12   0 -25  -16.26  139.66
  12   0  25   45.86  143.20
  12   0  25    5.43   70.21
 -12   1 -25   82.94  140.89
 -12   1 -25   28.24   95.93
  12  -1  25    5.77   77.21
  12  -1  25 -235.54  149.02
 -12   2 -25 -277.51  108.33
  12  -2  25 -274.81  174.33
  12  -2  25 -281.59   90.34
 -12   3 -25  105.77  142.60
 -12   3 -25  759.65  177.52
  12  -3  25  657.61  194.96
 -12   4 -25   69.71  112.48
 -12   4 -25  -48.47  158.80
  12  -4  25 -495.11  113.46
 -12   5 -25 -128.41  113.82
 -12   5 -25  257.90  157.16
  12  -5  25   57.70  101.24
  12  -5  25 -117.41  177.85
 -12   6 -25   99.82  113.88
 -12   6 -25 -337.08  170.50
  12  -6  25 -188.52  186.75
  12  -6  25    7.59  103.21
 -12   7 -25  161.20  178.49
 -12   7 -25  103.69  116.76
  12  -7  25   39.99  104.68
  12  -7  25  -61.87  196.06
  -7  13 -25 -277.26  116.76
  -7  13 -25   33.70  197.23
   7 -13  25    9.95  284.96
   7 -13  25   -7.75   90.49
  -6  13 -25    6.80  102.32
  -6  13 -25  -16.30  196.31
   6 -13  25  -38.69  258.91
   6 -13  25   14.65  107.66
  -5  13 -25    6.40   92.95
  -5  13 -25  139.45  181.15
   5 -13  25 -505.65  257.44
   5 -13  25 -125.54   99.97
  -4  13 -25  -17.85   85.93
  -4  13 -25 -144.42  178.06
   4 -13  25   -9.64  255.03
   4 -13  25  -55.29   95.57
  -3  13 -25    5.77   83.39
   3 -13  25    9.76  241.22
  -2  13 -25   28.71   86.24
 -13  -1 -25 -294.21  140.78
  13   1  25 -207.88  148.07
 -13   0 -25   -5.55  136.13
  13   0  25  -96.00  153.97
 -13   1 -25   73.88  141.28
  13  -1  25   82.11  159.60
 -13   2 -25 -128.45  143.56
  13  -2  25  152.15  164.92
 -13   3 -25    6.03  146.62
  13  -3  25  128.13  162.39
  13  -3  25    6.90   88.65
 -13   4 -25  189.96  158.11
  13  -4  25   87.34   94.99
  13  -4  25    6.05  171.34
 -13   5 -25  -99.29  158.51
  13  -5  25    6.37  181.42
  13  -5  25   38.37  103.22
 -13   6 -25  360.88  170.38
  13  -6  25 -367.53  191.70
  -6  14 -25   66.59  193.29
   6 -14  25 -176.36  290.01
  -5  14 -25 -279.49  190.79
  -5  14 -25   20.20   95.88
   5 -14  25   10.22  277.11
   5 -14  25   -7.33  106.44
  -4  14 -25   38.64  101.80
  -4  14 -25   15.69  179.93
   4 -14  25  286.12  273.90
   4 -14  25  100.84   98.92
  -3  14 -25   -6.08   87.48
   3 -14  25 -113.23  255.60
  -2  14 -25    6.00   93.61
  -4  15 -25  169.16  185.82
   4 -15  25   10.77  283.49
  -3  15 -25    6.52   94.60
   3 -15  25    7.54  103.64
  -2   0 -26  402.15  118.32
  -2   1 -26  -76.33   67.64
   2  -1  26 -334.29  175.81
  -2   2 -26   57.33   65.26
   2  -2  26  296.39  171.97
  -2   3 -26  -71.01   62.17
   2  -3  26    7.01  168.07
  -3  -1 -26  110.06   60.79
  -3   0 -26  671.76  187.12
   3   0  26  866.83  216.25
  -3   1 -26  118.14   66.94
  -3   1 -26    5.99  134.30
   3  -1  26  266.30  164.87
  -3   2 -26 -254.21  141.46
  -3   2 -26 -124.16   64.93
   3  -2  26  -83.71  162.86
  -3   3 -26   57.07   62.05
  -3   3 -26  159.36  139.12
   3  -3  26    6.58  164.55
  -3   4 -26   41.63   59.95
  -3   4 -26  105.91  141.49
   3  -4  26    6.70  165.66
  -2   4 -26   -4.27   58.28
   2  -4  26   78.84  173.72
  -4  -1 -26  -26.66   53.63
   4   1  26   -5.76  121.66
  -4   0 -26   97.05  134.74
  -4   0 -26  -42.97   57.74
   4   0  26 -236.64  158.04
  -4   1 -26   -3.97   62.28
  -4   1 -26    5.81  132.92
   4  -1  26 -305.57  162.52
  -4   2 -26   32.31   64.26
  -4   2 -26 -147.32  133.83
   4  -2  26  -71.98  160.33
  -4   3 -26  191.63  139.78
  -4   3 -26  -61.60   62.55
   4  -3  26 -283.20  163.52
  -4   4 -26  -24.42  143.30
  -4   4 -26  -33.51   59.31
   4  -4  26    6.35  165.49
  -4   5 -26    4.29   62.87
  -4   5 -26   -6.25  135.75
   4  -5  26    6.58  178.20
  -3   5 -26 -260.53  134.14
  -3   5 -26 -106.53   65.08
   3  -5  26   -6.91  166.47
  -5  -2 -26   -3.88   59.54
  -2   5 -26    4.38   61.07
   5   2  26    8.12   61.25
   2  -5  26   73.66  180.21
  -5  -1 -26   56.25   64.41
  -5  -1 -26   16.78  133.40
   5   1  26  -65.38   64.30
   5   1  26 -230.60  153.55
  -5   0 -26    5.69  132.59
  -5   0 -26  -41.21   63.03
   5   0  26   27.62   66.24
   5   0  26 -125.85  148.92
  -5   1 -26   -4.12   60.79
  -5   1 -26 -385.02  134.47
   5  -1  26  300.25  151.48
  -5   2 -26  -62.89   63.91
  -5   2 -26   93.34  146.14
   5  -2  26   28.54  149.24
  -5   3 -26   46.96   66.62
  -5   3 -26   88.94  140.83
   5  -3  26   11.79  159.90
  -5   4 -26    6.06  143.66
  -5   4 -26    4.35   65.73
   5  -4  26  348.04  171.14
  -5   5 -26  149.85  144.27
  -5   5 -26   13.37   68.31
   5  -5  26    6.36  170.64
  -5   6 -26    4.58   71.03
  -5   6 -26 -167.77  157.12
   5  -6  26 -398.64  186.80
  -4   6 -26    6.42  151.07
  -4   6 -26    4.39   67.45
   4  -6  26  137.20  185.70
  -3   6 -26  149.57  148.79
  -3   6 -26  100.93   71.95
   3  -6  26  -21.68  175.55
  -2   6 -26    4.51   65.67
  -6  -2 -26 -319.93  131.04
  -6  -2 -26  -12.32   55.38
   6   2  26  111.32  142.18
   6   2  26  -67.05   54.03
   2  -6  26    7.61  183.86
  -6  -1 -26    4.30   64.77
  -6  -1 -26   -5.40  131.76
   6   1  26   63.67   59.99
   6   1  26 -154.27  144.09
  -6   0 -26    5.47  131.17
  -6   0 -26   62.32   66.29
   6   0  26   31.70  142.32
   6   0  26    4.50   58.11
  -6   1 -26 -127.82  139.35
  -6   1 -26    4.45   69.15
   6  -1  26 -127.35   69.80
   6  -1  26  163.29  146.45
  -6   2 -26   -4.55   68.61
  -6   2 -26    5.66  136.10
   6  -2  26    4.95   70.74
   6  -2  26   28.08  146.77
  -6   3 -26    5.79  141.25
  -6   3 -26   32.46   74.32
   6  -3  26   76.86   76.80
   6  -3  26  447.91  161.70
  -6   4 -26   61.54   74.55
  -6   4 -26   -5.94  144.31
   6  -4  26   -5.29   76.86
   6  -4  26    6.04  162.88
  -6   5 -26  -38.78   80.33
  -6   5 -26 -158.98  159.86
   6  -5  26   27.28   79.48
   6  -5  26 -302.83  173.41
  -6   6 -26  -19.92   75.75
  -6   6 -26 -107.51  152.71
   6  -6  26   16.91   84.46
   6  -6  26   -6.62  185.76
  -6   7 -26   19.76  158.07
   6  -7  26   55.72  185.26
  -5   7 -26   20.05  151.07
   5  -7  26   84.42  178.26
  -4   7 -26  118.93  167.29
   4  -7  26  208.44  208.40
  -3   7 -26    6.68  153.29
   3  -7  26   45.20  191.18
  -2   7 -26    4.66   71.89
  -7  -2 -26   73.05   64.56
  -7  -2 -26 -205.31  127.81
   2  -7  26    7.89  189.21
  -7  -1 -26  192.39  136.37
  -7  -1 -26   60.47   72.63
   7   1  26 -105.90  148.70
   7   1  26   34.68   63.89
  -7   0 -26  -48.55   69.83
  -7   0 -26 -260.70  134.33
   7   0  26   -9.24   67.11
   7   0  26  116.83  147.30
  -7   1 -26  217.98   93.61
  -7   1 -26  403.26  140.90
   7  -1  26   72.98   83.27
   7  -1  26  430.21  157.64
  -7   2 -26   44.84   74.88
  -7   2 -26    5.64  143.81
   7  -2  26  179.07  153.20
   7  -2  26  -30.51   69.51
  -7   3 -26 -340.55  147.82
  -7   3 -26 -137.97   77.46
   7  -3  26   -5.28   75.67
   7  -3  26   -5.63  160.09
  -7   4 -26  896.46  183.23
  -7   4 -26  324.52  110.04
   7  -4  26  216.99  194.58
   7  -4  26  109.27  109.65
  -7   5 -26 -220.10   89.39
  -7   5 -26   -6.14  145.44
   7  -5  26  270.37  173.40
   7  -5  26   -5.66   76.93
  -7   6 -26   -5.52   81.59
  -7   6 -26   -6.37  154.73
   7  -6  26    5.85   82.30
   7  -6  26  -33.03  184.18
  -7   7 -26 -233.08  152.57
   7  -7  26  243.90  189.28
  -7   8 -26    5.88   89.56
  -7   8 -26   41.77  171.51
   7  -8  26  202.99   86.42
   7  -8  26    7.38  209.30
  -6   8 -26  178.89  156.59
  -6   8 -26    5.32   76.41
   6  -8  26   -7.45  190.48
   6  -8  26  -42.01   85.88
  -5   8 -26    6.93  162.61
  -5   8 -26  -35.04   79.65
   5  -8  26    7.43  199.47
   5  -8  26    5.95   74.86
  -4   8 -26    4.71   71.83
  -4   8 -26 -183.27  156.12
   4  -8  26    7.55  202.67
  -3   8 -26    6.88  151.14
  -3   8 -26  -47.23   70.93
   3  -8  26  118.39  207.12
  -8  -2 -26   38.94   72.81
  -2   8 -26  -62.80   73.00
   2  -8  26    8.23  197.67
  -8  -1 -26  392.09  162.35
  -8  -1 -26  114.41  100.50
   8   1  26  912.79  171.34
   8   1  26  153.82   94.93
  -8   0 -26  693.07  185.03
   8   0  26  573.45  192.68
  -8   1 -26  821.82  195.90
   8  -1  26  545.40  203.56
  -8   2 -26 -589.93  145.61
  -8   2 -26   43.67   87.04
   8  -2  26  -97.76  157.42
   8  -2  26  -10.61   75.47
  -8   3 -26    5.62   88.45
  -8   3 -26 -168.65  141.53
   8  -3  26   39.46  153.68
   8  -3  26    5.56   77.14
  -8   4 -26  393.04   92.86
  -8   4 -26 -203.93  150.14
   8  -4  26   -5.80   79.20
   8  -4  26    5.88  170.21
  -8   5 -26    5.94   84.47
  -8   5 -26    6.20  154.82
   8  -5  26  -61.57  174.38
   8  -5  26 -150.72   86.66
  -8   6 -26   79.51   91.99
  -8   6 -26   -6.46  161.30
   8  -6  26    6.64  184.99
   8  -6  26   -6.26   95.11
  -8   7 -26   -6.77  168.84
   8  -7  26   42.07  194.53
   8  -7  26    6.50   89.72
  -8   8 -26   35.55  180.01
  -8   8 -26  -65.33   93.63
   8  -8  26   -6.76   97.87
   8  -8  26   -7.45  211.60
  -8   9 -26 -190.11  111.43
   8  -9  26 -500.08  110.10
  -7   9 -26   18.34   94.31
  -7   9 -26 -788.43  197.99
   7  -9  26   -6.62   98.22
  -6   9 -26  195.10  167.14
  -6   9 -26    5.69   85.08
   6  -9  26   -6.26   88.15
   6  -9  26    7.90  213.95
  -5   9 -26   93.32  170.91
  -5   9 -26   99.21   81.38
   5  -9  26    7.87  206.50
   5  -9  26  -67.93   88.92
  -4   9 -26   70.25  168.25
  -4   9 -26    4.92   72.86
   4  -9  26    8.06  203.35
  -3   9 -26   -7.11  164.66
  -3   9 -26  182.31   75.48
   3  -9  26  -24.90  213.27
  -2   9 -26  -35.18   73.44
   2  -9  26   17.25  212.24
  -9  -1 -26 -113.20  140.24
  -9  -1 -26  103.34   80.95
   9   1  26  426.96  151.80
   9   1  26   99.25   69.73
  -9   0 -26    5.53   82.16
  -9   0 -26  547.73  146.99
   9   0  26    9.66   74.40
   9   0  26  179.64  154.01
  -9   1 -26   -5.57  139.52
  -9   1 -26  229.50   91.92
   9  -1  26    5.30  151.04
   9  -1  26  112.53   77.65
  -9   2 -26 -393.07  141.77
  -9   2 -26  118.78   84.69
   9  -2  26 -373.15  155.20
   9  -2  26    5.39   75.95
  -9   3 -26    5.85  141.98
  -9   3 -26    5.95   86.00
   9  -3  26    5.67   78.68
   9  -3  26  113.85  164.52
  -9   4 -26    6.05  139.84
  -9   4 -26   42.89   96.18
   9  -4  26 -207.62  176.02
   9  -4  26   11.89   82.58
  -9   5 -26    6.31   93.41
  -9   5 -26  125.56  152.32
   9  -5  26   -6.25   91.99
   9  -5  26    6.21  166.57
  -9   6 -26  -98.21  149.59
  -9   6 -26    6.51   93.11
   9  -6  26    6.53  181.72
   9  -6  26  -19.53   90.24
  -9   7 -26    6.74   99.90
  -9   7 -26 -461.01  178.59
   9  -7  26   -6.78   96.35
   9  -7  26 -346.51  210.76
  -9   8 -26    6.98  120.90
  -9   8 -26 -232.35  200.45
   9  -8  26   -7.02   97.54
  -9   9 -26 -498.81  194.60
  -9   9 -26    7.26  108.03
   9  -9  26    8.04  225.66
   9  -9  26    7.33   99.44
  -9  10 -26  -62.51  110.59
  -9  10 -26 -326.10  198.76
   9 -10  26  158.83  251.50
  -8  10 -26 -127.43  109.88
  -8  10 -26   31.60  193.46
   8 -10  26    7.35  103.24
   8 -10  26    8.69  232.90
  -7  10 -26   -6.61   95.32
  -7  10 -26   22.99  192.85
   7 -10  26 -145.65   95.48
   7 -10  26    8.58  232.37
  -6  10 -26  144.21  201.71
  -6  10 -26    5.94  108.43
   6 -10  26  681.59  273.16
   6 -10  26  333.97  120.18
  -5  10 -26   14.78  167.01
  -5  10 -26   27.38   83.37
   5 -10  26  121.74   96.24
   5 -10  26 -725.32  225.86
  -4  10 -26  -10.48   83.66
  -4  10 -26  203.86  171.68
   4 -10  26 -162.09  218.50
  -3  10 -26  -36.80  159.17
  -3  10 -26   46.38   76.27
   3 -10  26    8.75  222.75
  -2  10 -26  -47.17   78.52
 -10  -1 -26   23.93   81.11
 -10  -1 -26   21.71  136.81
  10   1  26  -75.92  151.41
  10   1  26  -47.65   66.29
 -10   0 -26   48.86   83.37
 -10   0 -26 -341.81  137.20
  10   0  26   99.20  152.24
  10   0  26  -15.14   69.03
 -10   1 -26   -5.61  132.96
 -10   1 -26 -190.39   90.29
  10  -1  26   -5.39  151.13
  10  -1  26   -5.41   65.91
 -10   2 -26  -57.62   91.69
 -10   2 -26   40.19  141.68
  10  -2  26 -456.29  159.22
  10  -2  26   28.73   76.76
 -10   3 -26  -79.37   97.24
 -10   3 -26    5.90  139.92
  10  -3  26    5.77  158.51
  10  -3  26   -6.00   74.02
 -10   4 -26   61.09  146.13
 -10   4 -26   47.77   97.22
  10  -4  26  108.27  170.26
  10  -4  26  -18.91   84.71
 -10   5 -26   -7.04  101.13
 -10   5 -26  178.01  159.89
  10  -5  26  144.79  176.39
  10  -5  26 -178.33   95.65
 -10   6 -26   87.28  119.18
 -10   6 -26  911.82  198.63
  10  -6  26    6.64  213.62
  10  -6  26  117.40  118.36
 -10   7 -26   15.06  113.88
 -10   7 -26  182.37  172.60
  10  -7  26  -35.84  206.15
  10  -7  26   14.43   99.68
 -10   8 -26  118.74  187.86
  10  -8  26   -7.62  224.23
 -10   9 -26  276.94  125.05
 -10   9 -26    7.88  208.20
  10  -9  26  -39.44   91.25
  10  -9  26    8.14  230.40
  -8  11 -26    8.34  206.74
  -8  11 -26  222.11  124.10
   8 -11  26    9.31  265.23
  -7  11 -26  -24.25  186.54
  -7  11 -26  -27.65  110.61
   7 -11  26 -128.18  257.02
   7 -11  26 -116.48  103.36
  -6  11 -26   12.46   89.14
  -6  11 -26   31.94  179.11
   6 -11  26   54.82   95.52
   6 -11  26   72.28  244.05
  -5  11 -26    5.90   94.40
   5 -11  26    6.68   94.08
   5 -11  26 -107.60  232.33
  -4  11 -26  978.47  267.27
   4 -11  26  895.87  316.76
  -3  11 -26    5.38   84.95
  -3  11 -26 -236.31  170.45
   3 -11  26 -305.83  246.20
  -2  11 -26    5.50   82.32
 -11  -1 -26    5.46  136.80
 -11  -1 -26  210.91   95.00
  11   1  26   85.75   71.65
  11   1  26   36.18  150.58
 -11   0 -26 -159.99   92.43
 -11   0 -26 -188.62  139.67
  11   0  26 -208.46  146.12
  11   0  26  -10.81   73.23
 -11   1 -26 -180.91  141.16
 -11   1 -26  -20.47   94.38
  11  -1  26   11.57   76.84
  11  -1  26  268.70  157.32
 -11   2 -26   70.83  103.26
 -11   2 -26 -109.98  141.07
  11  -2  26   30.38   81.13
  11  -2  26  197.95  161.04
 -11   3 -26    7.34   99.75
 -11   3 -26 -220.68  152.71
  11  -3  26   -5.85  171.74
  11  -3  26  109.18   93.25
 -11   4 -26   68.27  131.97
  11  -4  26  236.70  127.40
  11  -4  26  200.60  218.05
 -11   5 -26    7.68  109.33
 -11   5 -26 -509.30  155.51
  11  -5  26    7.10   98.16
  11  -5  26 -235.18  173.34
 -11   6 -26   15.89  107.73
 -11   6 -26 -732.28  177.14
  11  -6  26   -6.69  192.79
  11  -6  26  -89.33   99.97
 -11   7 -26   41.18  114.45
 -11   7 -26  -93.14  172.99
  11  -7  26  130.92  205.91
  11  -7  26   38.99  111.93
  11  -8  26   -7.75  214.48
  -7  12 -26   -8.54  201.45
   7 -12  26   -7.71   89.49
   7 -12  26   69.26  275.93
  -6  12 -26  116.35  198.57
  -6  12 -26    6.80   97.68
   6 -12  26  -57.94  277.57
   6 -12  26    7.24   97.04
  -5  12 -26 -214.19  185.16
  -5  12 -26    6.21   96.32
   5 -12  26  277.11  243.56
   5 -12  26  125.06   99.22
  -4  12 -26    5.92   90.92
  -4  12 -26  124.93  182.01
   4 -12  26   -9.67  257.95
   4 -12  26  -48.94  104.29
  -3  12 -26    5.68   81.11
   3 -12  26   68.53  242.19
 -12  -1 -26 -317.68  150.45
  12   1  26 -121.93   76.06
  12   0  26  -28.32   86.15
  12   0  26 -344.55  174.36
 -12   1 -26 -162.95  107.10
 -12   1 -26 -254.44  151.39
  12  -1  26 -309.19  173.70
  12  -1  26 -132.76   89.00
 -12   2 -26    7.68  105.92
 -12   2 -26 -142.25  151.10
  12  -2  26   -6.45   86.40
  12  -2  26 -289.66  165.22
 -12   3 -26   23.64  107.28
 -12   3 -26 -397.23  148.69
  12  -3  26  221.77  163.13
  12  -3  26 -136.86   99.86
 -12   4 -26   57.09  115.80
 -12   4 -26    6.34  153.76
  12  -4  26   -7.20   98.74
  12  -4  26    6.23  170.34
 -12   5 -26  -16.89  116.74
 -12   5 -26  -19.81  161.67
  12  -5  26 -167.17   98.32
  12  -5  26 -149.58  180.73
 -12   6 -26 -360.96  169.69
 -12   6 -26   43.78  118.85
  12  -6  26   -7.99  105.69
  12  -6  26    6.98  196.35
  -6  13 -26    8.53  201.64
   6 -13  26 -353.11  285.51
  -5  13 -26 -147.92  187.48
  -5  13 -26   13.44  108.55
   5 -13  26  -21.91  106.21
   5 -13  26   10.25  269.44
  -4  13 -26  202.06  178.55
  -4  13 -26   -6.26   90.49
   4 -13  26    7.28  104.27
   4 -13  26 -133.30  264.28
  -3  13 -26   18.25   91.61
   3 -13  26   51.71  254.21
 -13   0 -26 -265.37  152.49
  13   0  26  101.60  166.69
 -13   1 -26 -192.73  147.87
  13  -1  26  208.74  167.47
 -13   2 -26  129.76  153.27
  13  -2  26   23.87  175.57
 -13   3 -26    6.37  152.44
  13  -3  26 -137.06   93.01
  13  -3  26  -12.33  173.83
 -13   4 -26   13.15  166.33
  13  -4  26   76.28   99.40
  13  -4  26   -6.40  185.92
  -4  14 -26   66.76  193.64
   4 -14  26  228.32  289.22
  -3  14 -26   64.09  104.78
  -2  -1 -27  268.39   93.74
  -2   0 -27    8.34   62.04
  -2   1 -27  280.51   95.91
  -2  -2 -27  -43.60   57.47
  -2   2 -27  -26.01   62.06
  -2   3 -27  110.60   72.13
  -3  -2 -27   94.12   66.29
   2  -3  27   59.89  180.28
  -3  -1 -27   52.25   62.05
   3   1  27 -314.61  173.53
  -3   0 -27  471.24  193.58
  -3   0 -27  414.60  127.58
   3   0  27  688.52  221.49
  -3   1 -27  276.01  144.03
  -3   1 -27   12.52   59.55
   3  -1  27   34.08  180.90
  -3   2 -27  369.12  150.54
  -3   2 -27   42.41   69.59
   3  -2  27   -6.92  179.70
  -3   3 -27  -17.27   61.83
  -3   3 -27 -104.89  144.54
   3  -3  27  -21.17  177.88
  -3   4 -27  -35.28   64.70
  -3   4 -27    6.65  148.38
   3  -4  27    7.23  186.62
  -2   4 -27    4.52   72.43
  -4  -2 -27  -11.80   63.31
  -4  -2 -27  832.16  136.15
   4   2  27  247.65  171.14
   2  -4  27    7.65  187.80
  -4  -1 -27   -6.01  133.69
  -4  -1 -27  -12.12   59.66
   4   1  27  -49.61  163.62
  -4   0 -27 -146.35  145.77
  -4   0 -27  -28.87   61.88
   4   0  27  106.77  164.82
  -4   1 -27    8.42   65.09
  -4   1 -27   -6.17  142.76
   4  -1  27  159.80  172.43
  -4   2 -27   75.05  140.80
  -4   2 -27   -4.28   62.99
   4  -2  27 -332.64  176.15
  -4   3 -27 -158.79  140.48
  -4   3 -27 -113.02   62.10
   4  -3  27  456.64  177.10
  -4   4 -27   35.43   64.05
  -4   4 -27    6.47  148.39
   4  -4  27    6.81  181.46
  -4   5 -27    4.53   70.36
  -4   5 -27  138.87  159.37
   4  -5  27 -275.44  188.21
  -3   5 -27   33.90  154.01
  -3   5 -27 -234.60   69.15
   3  -5  27  141.65  184.17
  -5  -2 -27  174.06  134.52
  -2   5 -27   -4.64   67.86
  -5  -2 -27  -37.20   61.70
   2  -5  27   15.70  196.33
   5   2  27  -43.15   57.14
  -5  -1 -27 -218.10  141.21
  -5  -1 -27   59.84   63.09
   5   1  27   32.38   69.00
   5   1  27 -105.09  159.62
  -5   0 -27   17.51   65.60
  -5   0 -27 -239.71  149.09
   5   0  27  159.12  159.31
   5   0  27   58.53   67.27
  -5   1 -27  -92.13  141.51
  -5   1 -27  -83.11   65.63
   5  -1  27 -138.61  163.70
  -5   2 -27 -226.46   70.11
  -5   2 -27  -31.25  147.94
   5  -2  27 -185.65  170.14
  -5   3 -27  167.10   77.53
  -5   3 -27  171.90  155.39
   5  -3  27   38.24  169.94
  -5   4 -27  -91.07  157.90
  -5   4 -27   55.19   73.87
   5  -4  27  -39.58  175.38
  -5   5 -27   -4.70   74.66
  -5   5 -27 -153.43  160.38
   5  -5  27 -514.70  191.92
  -5   6 -27   14.49   75.57
  -5   6 -27    6.86  151.23
   5  -6  27    7.17  198.52
  -4   6 -27   46.34   69.92
  -4   6 -27 -257.76  167.18
   4  -6  27    7.43  200.35
  -3   6 -27 -291.20  152.72
  -3   6 -27   -4.65   65.59
   3  -6  27   -7.73  191.95
  -2   6 -27    4.77   72.80
  -6  -2 -27   43.86   62.30
   2  -6  27  -97.21  198.37
  -6  -1 -27   77.86   71.36
  -6  -1 -27  -29.14  136.86
   6   1  27  -99.15   63.63
   6   1  27  -39.05  159.38
  -6   0 -27   -4.74   70.44
  -6   0 -27   23.58  134.87
   6   0  27  -57.34  156.78
   6   0  27  -71.57   70.98
  -6   1 -27    5.97  138.68
  -6   1 -27  108.61   71.21
   6  -1  27   -5.90  162.02
   6  -1  27   60.51   67.81
  -6   2 -27   24.08   78.17
  -6   2 -27    6.07  141.06
   6  -2  27  162.39  160.74
   6  -2  27   10.48   75.66
  -6   3 -27   99.20  155.15
  -6   3 -27  -58.87   75.66
   6  -3  27 -140.59   79.09
   6  -3  27 -155.39  173.31
  -6   4 -27 -165.13  155.54
  -6   4 -27    5.00   74.89
   6  -4  27   -6.46  179.33
   6  -4  27   -5.57   82.93
  -6   5 -27    5.11   79.19
  -6   5 -27   19.63  158.01
   6  -5  27   20.43  184.95
   6  -5  27 -177.96   88.11
  -6   6 -27   31.47   78.60
  -6   6 -27   -6.78  158.25
   6  -6  27   -7.13  189.30
   6  -6  27   71.02   90.92
  -6   7 -27    7.06  157.69
   6  -7  27   97.56  208.08
   6  -7  27   -6.12   87.38
  -5   7 -27    7.07  157.88
   5  -7  27    7.53  189.34
  -4   7 -27  384.00  170.10
   4  -7  27    7.76  203.65
  -3   7 -27   35.58  153.49
   3  -7  27    8.05  219.63
   2  -7  27  453.39  217.12
  -7  -1 -27 -302.93  154.46
  -7  -1 -27 -129.16   80.98
   7   1  27   13.80   65.73
   7   1  27  398.71  161.90
  -7   0 -27  425.00  161.96
  -7   0 -27   89.85   98.64
   7   0  27  249.53   93.97
  -7   1 -27 -113.40   77.93
  -7   1 -27 -130.23  154.47
   7  -1  27  189.34  162.68
   7  -1  27  -15.46   71.34
  -7   2 -27    6.03  150.91
  -7   2 -27   -5.29   77.66
   7  -2  27 -136.53  167.66
   7  -2  27  -21.48   75.38
  -7   3 -27   12.34  141.21
  -7   3 -27  113.76   82.14
   7  -3  27 -196.95  171.12
   7  -3  27   27.83   79.21
  -7   4 -27  101.46  157.58
  -7   4 -27    5.54   86.42
   7  -4  27    6.40  172.46
   7  -4  27  137.90   87.89
  -7   5 -27  -90.68   87.57
  -7   5 -27  170.26  167.53
   7  -5  27  -41.54   86.74
   7  -5  27 -287.74  185.15
  -7   6 -27  -40.66  163.51
  -7   6 -27  -11.63   85.41
   7  -6  27  -85.85   85.29
   7  -6  27    7.02  189.03
  -7   7 -27 -239.48   95.38
  -7   7 -27    7.06  178.52
   7  -7  27  -91.01  210.82
   7  -7  27 -293.47   97.51
  -7   8 -27  -24.74  101.06
  -7   8 -27 -788.62  199.95
  -6   8 -27  360.83  182.53
  -6   8 -27    5.59   80.72
   6  -8  27    6.29   90.81
   6  -8  27    7.93  212.00
  -5   8 -27   36.90   79.99
  -5   8 -27    7.26  165.40
   5  -8  27   -6.25   87.63
   5  -8  27 -134.91  210.24
  -4   8 -27  -19.87   75.82
  -4   8 -27   14.41  167.06
   4  -8  27  228.30  218.19
  -3   8 -27   14.99   77.32
  -3   8 -27    7.33  169.09
   3  -8  27  109.49  216.96
  -2   8 -27 -143.23   78.46
   2  -8  27    8.74  210.03
  -8  -1 -27  259.94   84.43
  -8  -1 -27   97.27  148.56
   8   1  27  -37.53  149.42
   8   1  27   32.70   70.80
  -8   0 -27 -267.73  145.43
  -8   0 -27   16.26   75.56
   8   0  27 -188.31  163.83
   8   0  27  100.49   70.62
  -8   1 -27   -5.92  142.42
  -8   1 -27    5.62   85.68
   8  -1  27  274.83  164.40
   8  -1  27   42.68   76.11
  -8   2 -27  -54.41  151.23
  -8   2 -27    5.80   85.56
   8  -2  27    5.62   74.88
   8  -2  27   11.84  167.10
  -8   3 -27  190.82   93.75
  -8   3 -27  619.33  164.98
   8  -3  27   55.35  179.79
   8  -3  27    5.88   88.67
  -8   4 -27    5.90   89.67
  -8   4 -27   12.75  151.66
   8  -4  27   70.47  183.10
   8  -4  27   48.90   89.53
  -8   5 -27  163.59   98.11
  -8   5 -27  211.02  161.13
   8  -5  27   12.68   93.75
   8  -5  27    6.70  184.11
  -8   6 -27  144.09  172.73
  -8   6 -27 -193.01   96.97
   8  -6  27 -111.72   85.41
   8  -6  27   -7.04  194.73
  -8   7 -27   51.32   93.12
  -8   7 -27    7.14  180.27
   8  -7  27   27.27  106.71
  -8   8 -27 -480.02  197.40
   8  -8  27   -8.09  238.17
  -8   9 -27  -35.65   99.08
  -8   9 -27   47.52  192.59
   8  -9  27    7.36  102.68
   8  -9  27  163.58  241.65
  -7   9 -27   64.21   96.00
  -7   9 -27 -487.30  198.00
   7  -9  27  -59.74  231.26
   7  -9  27    6.92  101.54
  -6   9 -27 -664.68  209.14
  -6   9 -27   -5.98   98.19
   6  -9  27   -6.55  101.29
  -5   9 -27    7.53  177.64
  -5   9 -27   32.98   83.75
   5  -9  27   12.97   89.41
   5  -9  27   84.69  235.11
  -4   9 -27    7.46  167.98
  -4   9 -27    5.19   80.04
   4  -9  27   77.37  218.29
  -3   9 -27    5.21   77.83
  -3   9 -27    7.57  170.33
   3  -9  27 -239.19  232.13
  -9  -1 -27  -75.02   79.06
  -9  -1 -27 -160.80  145.78
   9   1  27   19.07   64.81
   9   1  27  403.90  154.57
  -9   0 -27  -29.35   86.16
  -9   0 -27 -145.92  145.90
   9   0  27  317.35  162.52
   9   0  27  182.93   79.46
  -9   1 -27   -5.94  150.68
  -9   1 -27 -164.62   90.77
   9  -1  27  146.11  159.83
   9  -1  27   59.41   75.27
  -9   2 -27   48.94   91.88
  -9   2 -27  103.12  153.45
   9  -2  27    5.81  162.66
   9  -2  27   22.82   82.91
  -9   3 -27   -6.22  145.70
  -9   3 -27    6.30   92.40
   9  -3  27 -265.62  177.38
   9  -3  27  -24.00   83.02
  -9   4 -27   96.28  159.46
  -9   4 -27   64.83  105.05
   9  -4  27   31.59   92.79
   9  -4  27  218.73  180.32
  -9   5 -27    6.66  160.93
  -9   5 -27 -186.71   98.50
   9  -5  27   -6.74  188.10
   9  -5  27    6.58   91.79
  -9   6 -27   55.62  183.09
  -9   6 -27 -501.22  113.67
   9  -6  27   -6.85  100.50
   9  -6  27    7.09  216.11
  -9   7 -27   -7.09  111.27
  -9   7 -27    7.27  166.76
   9  -7  27  -37.50  215.26
   9  -7  27  135.23  107.35
  -9   8 -27 -284.07  181.21
   9  -8  27  106.05  232.36
  -9   9 -27  178.43  206.16
   9  -9  27 -470.38  250.55
   9  -9  27    7.67  105.65
  -8  10 -27  -89.14  118.72
  -8  10 -27    8.34  199.77
   8 -10  27 -754.00  260.09
  -7  10 -27    6.69   93.87
  -7  10 -27    8.17  193.88
   7 -10  27 -386.51  256.10
   7 -10  27   43.42  104.40
  -6  10 -27    6.24   90.68
  -6  10 -27   56.70  192.37
   6 -10  27    9.03  240.94
   6 -10  27    6.85  102.23
  -5  10 -27 -126.58   95.17
  -5  10 -27 -736.11  208.54
   5 -10  27 -161.32  103.81
   5 -10  27 -431.30  265.24
  -4  10 -27   -5.52   87.58
  -4  10 -27 -277.60  190.72
   4 -10  27 -200.02  243.52
  -3  10 -27  -32.66   85.98
  -3  10 -27    7.83  177.60
   3 -10  27  139.83  240.23
 -10  -1 -27  -55.69   88.53
 -10  -1 -27  109.80  144.70
  10   1  27   25.07   65.66
  10   1  27    5.37  147.65
 -10   0 -27  205.50  153.04
 -10   0 -27   12.94   89.21
  10   0  27  -26.66   75.08
  10   0  27  -55.40  160.22
 -10   1 -27   33.61   99.31
 -10   1 -27  209.24  150.90
  10  -1  27   34.30   78.98
  10  -1  27  -34.32  164.60
 -10   2 -27   -6.11  152.80
 -10   2 -27   20.33   98.29
  10  -2  27    6.00   81.39
  10  -2  27 -135.93  164.84
 -10   3 -27   48.98  103.15
 -10   3 -27   62.75  153.18
  10  -3  27    6.33   79.58
  10  -3  27  220.64  174.88
 -10   4 -27  -43.24  107.77
 -10   4 -27 -239.82  167.46
  10  -4  27    6.65   94.97
  10  -4  27 -149.82  196.93
 -10   5 -27    7.43  112.19
 -10   5 -27   13.48  175.43
  10  -5  27   -6.81  209.04
  10  -5  27 -340.16  105.45
 -10   6 -27 -162.20  170.89
 -10   6 -27 -436.69  117.18
  10  -6  27    7.16  200.22
  10  -6  27 -159.41  102.05
 -10   7 -27 -473.53  181.86
 -10   7 -27    7.92  116.34
  10  -7  27   -7.56  105.22
  10  -7  27    7.57  214.91
 -10   8 -27   39.17  198.20
  10  -8  27    8.23  245.81
  -7  11 -27  146.65  204.33
   7 -11  27   29.49  264.76
   7 -11  27    7.60   80.45
  -6  11 -27   16.86  198.63
  -6  11 -27    6.54  101.06
   6 -11  27  178.85  109.27
   6 -11  27   19.28  260.14
  -5  11 -27  161.98  196.72
  -5  11 -27  -86.79   89.83
   5 -11  27  143.37  258.53
   5 -11  27  -14.01  100.49
  -4  11 -27  128.04  184.87
  -4  11 -27    5.81   85.35
   4 -11  27 -281.32  251.91
  -3  11 -27 -284.17   89.28
   3 -11  27 -501.22  254.87
 -11  -1 -27 -169.23  156.17
 -11  -1 -27   60.48  109.53
 -11   0 -27 1042.13  276.88
  11   0  27  505.88  224.92
  11   0  27 1903.10  293.16
 -11   1 -27   54.28  176.72
 -11   1 -27  -64.90  117.70
  11  -1  27 1006.55  197.41
  11  -1  27  469.69  112.87
 -11   2 -27   22.47  110.39
  11  -2  27 -300.58   98.13
 -11   3 -27 -311.15  163.86
 -11   3 -27 -147.29  114.79
  11  -3  27  -67.94  180.09
  11  -3  27   -6.76   97.87
 -11   4 -27   54.86  111.33
 -11   4 -27  105.20  165.86
  11  -4  27 -184.80  189.00
  11  -4  27    7.11  103.40
 -11   5 -27  -68.47  157.32
 -11   5 -27 -226.68  122.10
  11  -5  27    7.36   99.66
  11  -5  27    6.90  182.86
 -11   6 -27   -8.37  123.32
 -11   6 -27  107.62  161.79
  11  -6  27   -7.71  103.73
  11  -6  27  -58.12  202.04
 -11   7 -27   37.81  184.94
  11  -7  27   69.20  225.72
  -6  12 -27    8.70  207.80
   6 -12  27 -124.47  283.05
  -5  12 -27    8.41  201.45
  -5  12 -27    6.53   99.18
   5 -12  27   29.40  104.30
   5 -12  27   20.55  264.24
  -4  12 -27    6.24   91.96
  -4  12 -27  -33.21  188.88
   4 -12  27   95.58  102.95
   4 -12  27  195.52  269.54
   3 -12  27  592.05  290.69
 -12   0 -27  263.54  150.78
 -12   0 -27 -142.23  101.95
  12   0  27    5.76  161.23
  12   0  27  -53.17   78.71
 -12   1 -27 -147.97   99.78
 -12   1 -27  207.65  153.05
  12  -1  27 -148.18  165.18
  12  -1  27   57.15   85.74
 -12   2 -27 -444.21  152.85
 -12   2 -27   -8.01  109.87
  12  -2  27  219.85  169.78
  12  -2  27   -6.78   93.67
 -12   3 -27    8.31  124.48
 -12   3 -27  444.70  165.85
  12  -3  27  245.02  189.51
  12  -3  27   -7.17   99.09
 -12   4 -27   34.40  121.62
 -12   4 -27 -126.99  168.78
  12  -4  27   -7.59  102.51
  12  -4  27 -127.14  198.42
 -12   5 -27  -41.82  176.35
 -12   5 -27  -62.32  108.02
  12  -5  27  151.82  111.26
  12  -5  27   20.96  221.71
  -4  13 -27    8.61  191.05
   4 -13  27  207.61  276.11
  -3  13 -27 -237.65  100.62
 -13   0 -27    6.15  151.47
  13   0  27  175.45  176.15
 -13   1 -27 -263.89  160.24
  13  -1  27    6.22  181.97
 -13   2 -27   51.58  166.35
  13  -2  27   35.63   99.86
  13  -2  27 -403.66  186.21
 -13   3 -27  139.67  158.69
  13  -3  27    7.57   96.46
  13  -3  27  106.02  182.53
  -2  -1 -28  -34.38   68.37
  -2   0 -28  333.99  107.82
  -2   1 -28    8.97   66.26
  -2   2 -28  292.91   95.00
  -2  -2 -28  254.89   90.39
  -3  -2 -28   74.57   62.24
  -2   3 -28    4.67   72.02
  -3  -1 -28  -50.99   63.38
   3   1  28  193.38  183.38
  -3   0 -28    4.33   63.40
   3   0  28    7.22  179.40
  -3   1 -28   -4.42   67.87
  -3   1 -28   -6.86  148.86
   3  -1  28    7.31  181.13
  -3   2 -28 -166.25  160.98
  -3   2 -28 -134.75   68.33
   3  -2  28  103.93  185.78
  -3   3 -28   59.46   65.18
  -3   3 -28   14.01  166.32
   3  -3  28   15.14  187.31
  -3   4 -28  -49.75  161.54
  -3   4 -28  116.54   70.31
   3  -4  28  -38.70  194.43
  -2   4 -28  -28.73   68.86
  -4  -2 -28   29.15   59.64
  -4  -2 -28  101.77  153.12
  -4  -1 -28  122.19  146.04
  -4  -1 -28  -42.79   64.83
   4   1  28  114.22  180.01
  -4   0 -28  -30.56   64.01
  -4   0 -28   13.00  153.91
   4   0  28   20.40  173.84
  -4   1 -28   26.26  153.58
  -4   1 -28   22.29   67.40
   4  -1  28 -116.76  174.34
  -4   2 -28    4.52   67.59
  -4   2 -28    6.67  157.66
   4  -2  28 -217.21  187.57
  -4   3 -28 -105.78   70.22
  -4   3 -28 -291.06  167.64
   4  -3  28   21.52  185.57
  -4   4 -28    4.68   67.33
  -4   4 -28    6.89  155.00
   4  -4  28   66.49  193.72
  -4   5 -28 -344.89  164.68
  -4   5 -28  -86.19   70.48
   4  -5  28    7.64  203.70
  -3   5 -28   -7.24  156.16
  -3   5 -28   -4.78   73.50
   3  -5  28    7.97  201.01
  -5  -1 -28  112.52  150.62
  -5  -1 -28   31.75   69.29
   5   1  28  -94.15  176.31
   5   1  28  -44.08   72.49
  -5   0 -28  216.93  154.69
  -5   0 -28    9.28   67.55
   5   0  28  -36.12   77.02
   5   0  28 -435.16  181.88
  -5   1 -28   -6.47  152.73
  -5   1 -28    4.63   70.38
   5  -1  28 -288.09  181.02
  -5   2 -28  173.85  115.22
  -5   2 -28  578.45  192.68
   5  -2  28  691.26  215.04
  -5   3 -28 -214.19  161.81
  -5   3 -28   -4.77   70.53
   5  -3  28 -123.23  183.12
  -5   4 -28    4.86   70.34
  -5   4 -28   20.50  158.37
   5  -4  28   -7.08  186.33
  -5   5 -28   84.41   83.40
  -5   5 -28  266.09  173.02
   5  -5  28   37.13  198.00
  -5   6 -28   40.76   72.98
  -5   6 -28   36.00  170.39
   5  -6  28 -247.92  203.22
  -4   6 -28    7.22  167.75
  -4   6 -28   -4.90   74.18
   4  -6  28   79.45  202.68
  -3   6 -28    4.92   74.51
  -3   6 -28   22.19  173.86
   3  -6  28 -107.57  208.17
  -6  -1 -28    6.29  152.90
  -6  -1 -28  146.18   73.53
   6   1  28  -43.04   69.64
   6   1  28  -54.32  168.59
  -6   0 -28   -6.37  156.55
  -6   0 -28  102.73   80.67
   6   0  28 -190.68  172.45
   6   0  28  -10.11   71.64
  -6   1 -28   20.04   73.29
  -6   1 -28    6.44  156.38
   6  -1  28 -246.64  173.32
   6  -1  28   69.36   75.52
  -6   2 -28   26.17  154.86
  -6   2 -28   40.80   79.27
   6  -2  28   71.92   78.20
   6  -2  28  -32.54  177.52
  -6   3 -28   88.20   85.86
  -6   3 -28  180.26  157.64
   6  -3  28  131.21   89.45
   6  -3  28  242.26  186.92
  -6   4 -28   -5.28   82.17
  -6   4 -28  266.49  156.54
   6  -4  28 -146.77   82.82
   6  -4  28   55.85  193.50
  -6   5 -28   28.10  166.05
  -6   5 -28  -59.33   86.06
   6  -5  28   24.15   86.68
   6  -5  28 -298.38  196.29
  -6   6 -28   -7.28  175.00
  -6   6 -28    5.53   85.88
   6  -6  28    6.22   89.60
   6  -6  28 -137.03  204.23
  -6   7 -28 -174.04  171.00
  -6   7 -28    5.69   83.68
   6  -7  28    6.43   90.43
   6  -7  28   -8.00  218.47
  -5   7 -28   -5.36   78.15
  -5   7 -28   -7.43  174.87
   5  -7  28    6.37   92.12
   5  -7  28   32.46  208.57
  -4   7 -28 -141.04  170.71
   4  -7  28   91.21  220.89
  -3   7 -28    7.59  165.50
   3  -7  28   60.21  220.76
  -7  -1 -28   73.20  151.55
  -7  -1 -28  201.16   82.34
   7   1  28  -43.91   74.43
   7   1  28  235.81  164.61
  -7   0 -28  -47.81   78.30
  -7   0 -28 -235.45  156.99
   7   0  28 -200.70  173.15
   7   0  28   -5.19   70.38
  -7   1 -28   54.75   81.64
  -7   1 -28   -6.30  153.17
   7  -1  28  114.43   79.84
   7  -1  28    6.27  167.34
  -7   2 -28  106.63   84.77
  -7   2 -28 -385.50  156.08
   7  -2  28 -272.47  173.03
   7  -2  28   90.60   82.13
  -7   3 -28  120.41   89.82
  -7   3 -28   39.40  160.22
   7  -3  28    6.73  177.65
   7  -3  28    5.86   80.30
  -7   4 -28   -5.85   84.51
  -7   4 -28  -33.69  155.08
   7  -4  28    6.05   85.16
   7  -4  28   -6.99  190.94
  -7   5 -28   29.90   91.94
  -7   5 -28  111.13  163.16
   7  -5  28   -7.30  192.51
   7  -5  28   31.18   89.89
  -7   6 -28   -6.13   90.20
  -7   6 -28   -7.19  179.10
   7  -6  28 -145.46  198.70
   7  -6  28   -6.44   96.17
  -7   7 -28 -239.64  194.13
  -7   7 -28   -6.30  101.26
   7  -7  28 -360.36  100.21
   7  -7  28  -64.49  245.95
  -7   8 -28  -70.70  183.74
   7  -8  28  189.84  238.82
  -6   8 -28   -7.89  208.86
  -6   8 -28   -5.89   90.46
   6  -8  28    8.53  258.49
  -5   8 -28 -677.10  188.11
  -5   8 -28    5.55   85.17
   5  -8  28   72.38   93.66
   5  -8  28   -8.56  237.58
  -4   8 -28    5.25   78.94
  -4   8 -28   99.26  173.49
   4  -8  28   69.63  214.69
  -3   8 -28    7.81  171.68
  -3   8 -28   63.41   81.54
   3  -8  28 -269.40  223.26
  -8  -1 -28    6.09  145.25
  -8  -1 -28   28.25   78.68
   8   1  28  204.65  168.35
   8   1  28   64.46   68.95
  -8   0 -28 -161.61   87.14
  -8   0 -28    6.18  150.06
   8   0  28  332.52  169.59
   8   0  28  -53.21   74.41
  -8   1 -28   25.17  152.90
  -8   1 -28  -83.70   88.85
   8  -1  28   56.55   83.69
   8  -1  28    6.10  169.42
  -8   2 -28   32.10  159.90
  -8   2 -28    6.16   91.47
   8  -2  28    5.95   85.24
   8  -2  28   -6.32  177.43
  -8   3 -28  302.29  163.47
  -8   3 -28   -6.10   88.63
   8  -3  28   49.64   87.10
   8  -3  28 -176.87  180.66
  -8   4 -28    6.24   92.39
  -8   4 -28  135.13  162.45
   8  -4  28  181.64  201.15
   8  -4  28 -115.91   90.72
  -8   5 -28  -69.86  167.68
  -8   5 -28  -25.59   99.04
   8  -5  28   13.33   93.12
   8  -5  28    7.30  198.83
  -8   6 -28  210.10  110.74
  -8   6 -28  573.56  196.90
   8  -6  28   -7.67  237.22
   8  -6  28    6.90  109.30
  -8   7 -28    6.76   97.27
  -8   7 -28    7.60  191.26
   8  -7  28   -7.15   99.86
   8  -7  28    8.09  223.14
  -8   8 -28   -7.95  192.41
   8  -8  28  -51.42  243.38
  -8   9 -28  150.54  210.10
  -8   9 -28   44.96  110.09
   8  -9  28    7.71   98.52
   8  -9  28    9.34  249.72
  -7   9 -28 -236.21   99.31
  -7   9 -28  -57.86  204.24
   7  -9  28    9.17  255.00
   7  -9  28   28.99  101.26
  -6   9 -28   -6.29   94.20
  -6   9 -28  131.25  198.86
   6  -9  28  185.39  100.19
   6  -9  28    9.05  245.27
  -5   9 -28 -695.00  212.70
  -5   9 -28 -219.95  102.85
   5  -9  28    6.82  108.32
   5  -9  28 -569.49  272.94
  -4   9 -28    5.48   98.43
  -3   9 -28   38.53   85.18
  -3   9 -28   -8.05  189.18
   3  -9  28    9.42  229.12
  -9  -1 -28    6.12  148.10
  -9  -1 -28  -41.74   80.66
   9   1  28  -30.21   65.72
  -9   0 -28 -311.60   95.36
  -9   0 -28   43.51  156.46
   9   0  28   69.90   75.48
   9   0  28  266.80  171.94
  -9   1 -28   -6.32  152.87
  -9   1 -28   12.95   92.75
   9  -1  28  214.42  173.86
   9  -1  28   17.13   76.66
  -9   2 -28   38.73  159.74
  -9   2 -28   38.96   91.72
   9  -2  28  101.44  175.93
   9  -2  28   18.12   85.72
  -9   3 -28   33.39   97.49
  -9   3 -28   13.23  161.80
   9  -3  28  -44.69   92.19
   9  -3  28  105.16  180.35
  -9   4 -28 -425.18  119.60
  -9   4 -28 -586.19  181.33
   9  -4  28 -406.59  113.90
  -9   5 -28  105.64  126.11
  -9   5 -28 -735.19  199.73
   9  -5  28 -173.40  112.29
  -9   6 -28   36.83  177.08
  -9   6 -28   57.94  108.30
   9  -6  28    7.20  103.88
   9  -6  28    7.70  217.07
  -9   7 -28   77.11  201.00
  -9   7 -28   74.63  112.72
   9  -7  28   -7.47  104.86
   9  -7  28  480.65  238.70
  -9   8 -28 -202.09  211.70
   9  -8  28  207.64  253.97
  -7  10 -28  130.67  207.11
  -7  10 -28   -7.03   87.71
   7 -10  28 -684.03  271.34
  -6  10 -28  372.75  206.11
  -6  10 -28   19.68  101.27
   6 -10  28   -9.63  250.29
   6 -10  28 -114.85  110.95
  -5  10 -28    6.06   88.83
  -5  10 -28   -8.26  196.16
   5 -10  28   21.19  108.43
   5 -10  28   -9.68  249.19
  -4  10 -28  -87.40   88.27
  -4  10 -28  180.41  178.84
   4 -10  28 -195.11  248.48
  -3  10 -28  -57.56   85.07
   3 -10  28    9.89  244.02
 -10  -1 -28  732.81  235.64
 -10   0 -28  664.31  155.33
  10   0  28  119.83  220.59
 -10   1 -28  922.77  291.14
  10  -1  28 1652.39  356.70
 -10   2 -28 -359.09  116.05
  10  -2  28  152.20   95.69
 -10   3 -28    7.40  109.87
 -10   3 -28 -327.23  168.72
  10  -3  28   -6.68   95.60
  10  -3  28 -198.82  197.21
 -10   4 -28   13.75  169.99
 -10   4 -28  274.27  120.08
  10  -4  28    6.89  193.55
  10  -4  28   41.98  100.68
 -10   5 -28  -35.70  171.62
 -10   5 -28   61.03  106.34
  10  -5  28  147.54  206.98
  10  -5  28    7.30  101.74
 -10   6 -28    7.46  180.28
 -10   6 -28  125.75  115.35
  10  -6  28  -62.06  227.10
  10  -6  28   45.56  115.06
 -10   7 -28 -517.56  202.51
  10  -7  28   -8.21  226.56
  -6  11 -28    8.83  209.72
   6 -11  28   10.35  280.13
  -5  11 -28  -94.46  207.52
  -5  11 -28  -58.74   95.92
   5 -11  28   10.29  265.01
   5 -11  28   22.10  104.76
  -4  11 -28   25.56  189.58
  -4  11 -28    6.12   95.17
   4 -11  28   10.34  269.14
  -3  11 -28   18.04   89.64
   3 -11  28  250.54  264.91
 -11   0 -28   -6.30  155.43
 -11   0 -28    7.31   98.13
  11   0  28  128.19  171.14
  11   0  28   23.94   84.49
 -11   1 -28   25.68  165.99
 -11   1 -28  183.09  104.88
  11  -1  28   19.02   89.87
  11  -1  28  176.29  188.49
 -11   2 -28   47.54  118.66
  11  -2  28  422.43  188.72
  11  -2  28   60.64   96.12
 -11   3 -28    6.75  170.03
 -11   3 -28   80.22  113.03
  11  -3  28  201.96  183.51
  11  -3  28 -270.58  101.40
 -11   4 -28   41.82  175.62
 -11   4 -28   16.56  115.79
  11  -4  28   -7.39   99.74
  11  -4  28    7.00  192.41
 -11   5 -28 -311.76  184.87
 -11   5 -28   -8.54  110.71
  11  -5  28  223.95  209.33
  11  -5  28    7.75  110.76
  -4  12 -28    6.58   72.49
  -4  12 -28    8.84  199.04
   4 -12  28   98.75  281.58
  -3  12 -28 -265.99   98.32
 -12   0 -28  102.34  100.59
 -12   0 -28   44.58  155.00
  12   0  28  -43.35  175.03
  12   0  28  -18.62   85.20
 -12   1 -28 -142.74  159.35
 -12   1 -28   16.42  108.34
  12  -1  28  140.41   87.80
  12  -1  28 -223.28  175.06
 -12   2 -28    8.46  115.28
 -12   2 -28   13.30  160.57
  12  -2  28    6.58  182.50
  12  -2  28    7.11   91.27
 -12   3 -28    6.85  176.36
 -12   3 -28   17.55  120.18
  12  -3  28 -102.02  188.36
  12  -3  28    7.56  102.64
 -12   4 -28    7.10  172.16
  12  -4  28   -7.26  202.78
 -13   0 -28   -6.48  160.82
  13   0  28  -76.35  179.00
 -13   1 -28   39.72  166.67
  13  -1  28  412.64  183.69
  13  -1  28 -196.21   91.28
 -13   2 -28   95.08  170.64
  13  -2  28  -33.75  194.99
  13  -2  28   22.43   91.23
  -2  -1 -29  122.28   71.51
  -2   0 -29   23.21   70.63
  -2  -2 -29    8.79   68.89
  -3  -1 -29   62.82   70.46
  -3   0 -29   18.32   70.60
   3   0  29  107.94  192.33
  -3   1 -29  -41.97   69.43
   3  -1  29  -85.97  193.16
  -3   2 -29    4.74   73.11
   3  -2  29  158.49  206.67
  -3   3 -29    4.84   72.47
   3  -3  29  210.17  198.34
  -3   4 -29  545.86  171.33
  -3   4 -29   -4.94   75.11
   3  -4  29 -289.98  205.53
  -4  -1 -29  -76.84   72.45
  -4  -1 -29   48.12  165.15
   4   1  29   -7.22  197.32
  -4   0 -29 -124.55   71.07
  -4   0 -29   -6.95  170.72
   4   0  29 -292.08  190.60
  -4   1 -29   51.83   73.21
  -4   1 -29  147.33  177.03
   4  -1  29 -608.49  203.74
  -4   2 -29  277.55   86.89
  -4   2 -29   -7.10  171.53
   4  -2  29   90.78  202.20
  -4   3 -29   77.80   76.58
  -4   3 -29    7.20  160.21
   4  -3  29 -108.48  194.83
  -4   4 -29   14.65  165.75
  -4   4 -29   -4.95   71.05
   4  -4  29    7.91  192.54
  -4   5 -29   14.96  163.45
  -4   5 -29    5.04   76.95
   4  -5  29   32.70  203.43
  -3   5 -29   60.76   72.96
  -3   5 -29    7.72  161.69
   3  -5  29    8.52  198.85
  -5  -1 -29   53.25  156.92
  -5  -1 -29   52.81   66.07
   5   1  29  265.93  192.09
   5   1  29   31.06   77.12
  -5   0 -29    6.76  152.05
  -5   0 -29  -29.46   72.02
   5   0  29 -319.55  186.12
   5   0  29   54.52   76.69
  -5   1 -29  116.57  158.37
  -5   1 -29   49.00   72.16
   5  -1  29 -506.33  200.68
  -5   2 -29   64.66   76.29
  -5   2 -29    7.00  172.85
   5  -2  29 -244.93  189.58
  -5   3 -29   71.23  175.19
  -5   3 -29  121.08   82.95
   5  -3  29  326.05  204.14
  -5   4 -29 -276.17  169.48
  -5   4 -29    5.13   76.10
   5  -4  29  183.80  194.41
  -5   5 -29    5.24   78.66
  -5   5 -29   14.88  176.17
   5  -5  29    7.94  205.01
  -5   6 -29  351.85  178.66
  -5   6 -29    5.38   79.54
   5  -6  29   -8.28  219.35
  -4   6 -29    5.18   80.51
  -4   6 -29 -229.87  171.02
   4  -6  29 -154.01  205.77
  -3   6 -29   31.26   82.09
  -3   6 -29    7.88  178.45
   3  -6  29   -8.82  213.90
  -6  -1 -29  -51.71   78.71
  -6  -1 -29   13.20  156.78
   6   1  29  -60.73   75.92
   6   1  29  337.30  183.32
  -6   0 -29  119.28   72.67
  -6   0 -29    6.79  162.45
   6   0  29 -458.69  183.92
   6   0  29  -32.08   75.62
  -6   1 -29 -132.57   81.80
  -6   1 -29  -82.91  172.57
   6  -1  29   54.64  186.41
   6  -1  29  -62.02   80.50
  -6   2 -29   26.98   85.42
  -6   2 -29    7.04  168.95
   6  -2  29  140.17   87.41
   6  -2  29    7.03  195.42
  -6   3 -29    5.48   88.32
  -6   3 -29  294.46  173.72
   6  -3  29   21.78  190.83
   6  -3  29  -48.13   88.64
  -6   4 -29 -323.29  180.34
  -6   4 -29   16.73   84.86
   6  -4  29  120.40  194.14
   6  -4  29    6.18   86.47
  -6   5 -29    5.69   89.44
  -6   5 -29  173.38  178.11
   6  -5  29    7.84  211.44
   6  -5  29   19.07   88.15
  -6   6 -29   64.12   94.26
  -6   6 -29    7.77  180.48
   6  -6  29   -6.55   93.96
   6  -6  29   -8.20  218.97
  -6   7 -29 1510.56  340.46
   6  -7  29 1422.84  370.57
  -5   7 -29    5.65   83.55
  -5   7 -29   54.94  185.30
   5  -7  29 -330.03  234.44
   5  -7  29  -13.42   93.92
  -4   7 -29 -101.57   82.90
  -4   7 -29   -7.88  168.62
   4  -7  29   35.70  233.18
  -3   7 -29   -5.39   78.18
   3  -7  29   -9.15  222.75
  -7  -1 -29  -19.72  156.13
  -7  -1 -29  168.86   86.94
   7   1  29  -61.99   76.60
   7   1  29  -82.91  179.03
  -7   0 -29  -53.28  153.98
  -7   0 -29  -33.85   91.00
   7   0  29  115.36   76.75
   7   0  29   26.29  189.48
  -7   1 -29   46.47   90.62
  -7   1 -29    6.76  156.76
   7  -1  29  -51.87   83.91
   7  -1  29  -93.85  180.03
  -7   2 -29 -202.13   92.58
  -7   2 -29   -6.87  162.62
   7  -2  29   35.89   77.38
   7  -2  29   83.18  186.10
  -7   3 -29  -30.32   87.57
  -7   3 -29  301.99  170.99
   7  -3  29 -100.41  195.52
   7  -3  29   61.73   89.02
  -7   4 -29 -215.99  174.02
  -7   4 -29   80.38   87.40
   7  -4  29   70.06   88.89
   7  -4  29   -7.46  204.20
  -7   5 -29   -7.42  179.32
  -7   5 -29   12.62   94.78
   7  -5  29   31.10  220.84
   7  -5  29 -144.34   99.60
  -7   6 -29  799.93  233.70
   7  -6  29  552.30  285.41
  -7   7 -29    8.02  186.07
  -7   7 -29 -278.76  106.37
   7  -7  29  -43.42  249.51
   7  -7  29   62.91  103.97
  -7   8 -29   -8.40  206.77
   7  -8  29    9.18  263.88
  -6   8 -29    8.26  196.73
   6  -8  29 -172.99  249.38
   5  -8  29 -212.37  274.16
  -4   8 -29    5.55   84.40
  -4   8 -29 -504.07  207.57
   4  -8  29 -299.67  272.62
  -3   8 -29  128.73   88.15
   3  -8  29   85.97  230.30
  -8  -1 -29  214.02  157.32
  -8  -1 -29  120.21   97.33
  -8   0 -29   67.49   94.34
  -8   0 -29 -455.38  166.29
   8   0  29 -128.81  180.89
   8   0  29   33.84   81.20
  -8   1 -29 -148.07  163.16
  -8   1 -29 -107.97   91.30
   8  -1  29    6.66  188.57
   8  -1  29   -5.99   86.35
  -8   2 -29 -235.17  101.21
  -8   2 -29   75.48  165.30
   8  -2  29  268.74  194.15
   8  -2  29  182.42   94.36
  -8   3 -29   28.08  172.24
  -8   3 -29    6.46   97.97
   8  -3  29  164.33  199.38
   8  -3  29  183.26   98.67
  -8   4 -29 -461.61  198.99
  -8   4 -29   -6.60  108.89
   8  -4  29 -262.71  107.53
   8  -4  29 -617.16  233.56
  -8   5 -29   -6.76  107.63
  -8   5 -29 -646.57  197.86
   8  -5  29    6.96  108.01
  -8   6 -29  269.88  196.62
  -8   6 -29   -6.92  111.63
   8  -6  29    7.19  100.11
   8  -6  29   -8.14  219.34
  -8   7 -29  168.80  207.37
  -8   7 -29  305.88  110.31
   8  -7  29    7.49  109.19
   8  -7  29 -211.24  251.99
  -8   8 -29   33.67  212.04
   8  -8  29   65.24  252.48
  -7   9 -29 -371.61  222.16
   7  -9  29    9.75  265.74
  -6   9 -29    6.62   93.02
  -6   9 -29 -798.70  208.37
   6  -9  29    9.74  265.99
   6  -9  29   28.84  105.66
  -5   9 -29    8.43  190.66
  -5   9 -29   -6.10   92.23
   5  -9  29   64.64  104.52
   5  -9  29  -38.98  254.15
  -4   9 -29 -126.26  189.41
  -4   9 -29    5.78   87.90
   4  -9  29   -9.85  244.89
  -3   9 -29 -110.76   96.11
   3  -9  29  -10.00  262.73
  -9   0 -29  324.40  180.83
  -9   0 -29 1856.08  265.22
   9   0  29  135.62  254.85
  -9   1 -29 1474.59  342.64
   9  -1  29 1722.97  431.45
   9  -1  29  344.44  314.40
  -9   2 -29   13.76  219.32
   9  -2  29  269.84  133.59
  -9   3 -29 -457.89  189.43
  -9   3 -29  -49.50  114.39
   9  -3  29 -831.26  228.79
   9  -3  29 -370.88  109.17
  -9   4 -29   79.78  181.29
  -9   4 -29    7.26  104.82
   9  -4  29 -216.09  203.87
   9  -4  29  119.55  103.04
  -9   5 -29  277.67  183.32
  -9   5 -29   52.08  121.63
   9  -5  29   38.97  215.01
   9  -5  29   14.60  106.90
  -9   6 -29    7.64  115.16
  -9   6 -29   -7.78  193.46
   9  -6  29    7.57  103.96
   9  -6  29    8.19  223.97
  -9   7 -29  -89.59  198.56
   9  -7  29  123.91  252.50
  -6  10 -29  152.35  221.11
  -5  10 -29    6.39   95.32
  -5  10 -29   78.89  202.03
   5 -10  29    7.43  108.98
   5 -10  29  123.90  271.92
  -4  10 -29  -78.56  191.80
  -4  10 -29  -12.31   94.70
   4 -10  29   10.40  272.90
  -3  10 -29   -6.09   87.71
   3 -10  29   10.51  261.29
 -10   0 -29  -99.89  164.51
 -10   0 -29   -7.25   99.98
  10   0  29  318.60  185.50
  10   0  29   41.75   83.37
 -10   1 -29  -36.76  106.09
 -10   1 -29  162.60  164.46
  10  -1  29   12.63   84.61
  10  -1  29   20.18  190.32
 -10   2 -29    7.60  110.78
 -10   2 -29 -131.40  164.37
  10  -2  29    6.96  196.65
  10  -2  29    6.70   91.58
 -10   3 -29   -7.09  170.75
 -10   3 -29   -7.83  118.94
  10  -3  29  180.14  203.44
  10  -3  29 -155.05   97.97
 -10   4 -29  190.27  175.55
 -10   4 -29    7.84  109.73
  10  -4  29   -7.36   98.22
  10  -4  29  217.41  215.69
 -10   5 -29   16.11  112.09
 -10   5 -29   15.18  178.04
  10  -5  29   -7.66  106.05
  10  -5  29   62.73  215.34
 -10   6 -29   31.58  190.86
  10  -6  29 -189.37  241.69
  -4  11 -29   -9.07  202.36
   4 -11  29 -275.57  293.15
  -3  11 -29    6.36   96.70
 -11   0 -29  -92.79  114.68
 -11   0 -29 -462.76  169.60
  11   0  29   56.15   85.34
  11   0  29  210.98  195.26
 -11   1 -29  327.85  167.90
 -11   1 -29   56.55  123.07
  11  -1  29   80.15   94.51
  11  -1  29   68.10  196.81
 -11   2 -29    8.21  116.12
 -11   2 -29  418.68  182.16
  11  -2  29  213.15  106.29
  11  -2  29  210.94  213.68
 -11   3 -29  136.08  174.55
 -11   3 -29 -262.95  129.81
  11  -3  29  225.80  203.82
  11  -3  29    7.41  101.20
 -11   4 -29  207.18  180.40
 -11   4 -29    8.75  124.19
  11  -4  29   30.27  211.59
 -12   0 -29    8.29  103.73
 -12   0 -29   27.11  162.60
  12   0  29   39.18   84.44
  12   0  29  262.23  194.62
 -12   1 -29 -131.29  168.70
 -12   1 -29 -137.43  118.22
  12  -1  29 -140.87   95.41
  12  -1  29 -464.61  197.26
 -12   2 -29    7.07  171.14
 -12   2 -29    8.94  125.50
  12  -2  29  178.89  210.81
  12  -2  29    7.50   99.70
 -13   1 -29   -7.02  177.98
  13  -1  29    7.04  195.23
  -3  -1 -30   14.18   72.87
  -3   0 -30  -82.22   78.76
  -3   1 -30  -34.50   68.86
  -3   2 -30   25.10   87.04
   3  -2  30  668.12  220.54
  -3   3 -30  -30.71   77.97
   3  -3  30 -500.69  215.68
  -3   4 -30    5.23   74.44
   3  -4  30   70.59  208.44
  -4  -1 -30 -100.13   75.57
   4   1  30  169.62  200.29
  -4   0 -30   63.36   75.38
  -4   0 -30  422.75  183.52
   4   0  30 -140.98  205.37
  -4   1 -30   24.77   78.13
  -4   1 -30 -509.80  189.27
   4  -1  30  111.37  218.51
  -4   2 -30    7.59  172.55
  -4   2 -30 -125.92   82.84
   4  -2  30 -219.09  215.09
  -4   3 -30   23.06  165.77
  -4   3 -30   25.70   82.23
   4  -3  30  116.36  213.20
  -4   4 -30  171.87  174.51
  -4   4 -30   10.43   78.59
   4  -4  30    8.54  207.37
  -4   5 -30   -5.33   79.01
  -4   5 -30   -7.97  179.54
   4  -5  30  -35.29  216.82
  -3   5 -30   -5.36   80.12
   3  -5  30    9.08  223.14
  -5  -1 -30   55.77   78.77
  -5  -1 -30   -7.07  162.13
   5   1  30  213.46  205.45
   5   1  30  -21.84   77.17
  -5   0 -30  -43.04  167.39
  -5   0 -30  114.23   81.39
   5   0  30  104.40  197.97
   5   0  30   51.70   86.76
  -5   1 -30   -5.18   76.97
  -5   1 -30  138.69  176.96
   5  -1  30   53.35  199.78
  -5   2 -30   84.07   83.71
  -5   2 -30   22.23  175.95
   5  -2  30 -234.29  202.13
  -5   3 -30    5.34   84.67
  -5   3 -30    7.54  167.80
   5  -3  30  -24.09  196.11
  -5   4 -30   46.14  173.10
  -5   4 -30 -135.68   84.49
   5  -4  30    8.30  217.75
  -5   5 -30   -5.54   81.35
  -5   5 -30   -7.87  172.49
   5  -5  30   -8.60  229.59
  -5   6 -30 -289.84   94.25
  -5   6 -30  121.26  200.70
   5  -6  30    6.86   97.29
   5  -6  30    8.96  248.52
  -4   6 -30   38.36   81.02
  -4   6 -30 -465.59  191.49
   4  -6  30 -137.27  242.77
  -3   6 -30   -5.52   82.06
   3  -6  30    9.38  222.84
  -6  -1 -30    5.47   81.13
  -6  -1 -30  280.22  172.67
  -6   0 -30    7.13  179.88
  -6   0 -30   49.39   79.97
   6   0  30  -90.33   80.82
   6   0  30 -353.00  209.65
  -6   1 -30  -61.70   84.11
  -6   1 -30   36.25  165.20
   6  -1  30  -47.60   87.20
   6  -1  30  199.88  198.60
  -6   2 -30    5.70   87.23
  -6   2 -30    7.39  174.06
   6  -2  30   45.26  195.49
   6  -2  30    6.16   83.44
  -6   3 -30 -139.01   90.47
  -6   3 -30   30.15  169.73
   6  -3  30  218.33  207.82
   6  -3  30    6.34   86.32
  -6   4 -30 -500.91  184.76
  -6   4 -30   11.78   91.00
   6  -4  30   -6.52   89.08
   6  -4  30  282.80  212.10
  -6   5 -30 -173.85  190.76
  -6   5 -30    6.01  105.77
   6  -5  30 -113.83  103.39
   6  -5  30   -8.40  241.99
  -6   6 -30    6.15  104.59
  -6   6 -30  -16.28  189.35
   6  -6  30    8.78  231.27
   6  -6  30    6.89   92.35
  -6   7 -30  170.67   97.76
  -6   7 -30   16.84  188.42
   6  -7  30    7.11  103.07
   6  -7  30  167.52  254.32
  -5   7 -30  -83.53   86.81
  -5   7 -30    8.34  189.06
   5  -7  30    7.07   97.56
   5  -7  30  140.71  251.99
  -4   7 -30  458.06  156.69
   4  -7  30 1173.72  323.71
   3  -7  30 -926.71  274.86
  -7  -1 -30   53.75   90.67
  -7   0 -30   11.96   85.11
  -7   0 -30   86.09  171.51
   7   0  30   28.11  195.83
   7   0  30    5.80   77.16
  -7   1 -30 -141.48   92.63
  -7   1 -30   50.90  170.55
   7  -1  30   57.99  198.58
   7  -1  30  -97.21   89.06
  -7   2 -30 -436.15  182.80
  -7   2 -30   18.87   91.70
   7  -2  30  113.34   91.90
   7  -2  30   52.41  208.86
  -7   3 -30 -429.40  119.79
   7  -3  30 -234.29  110.26
  -7   4 -30  812.29  251.05
   7  -4  30 1738.93  321.19
   7  -4  30  281.16  176.57
  -7   5 -30   23.89  184.27
  -7   5 -30    6.66   96.10
   7  -5  30   -6.89   96.61
   7  -5  30 -260.43  231.23
  -7   6 -30    6.81  106.62
  -7   6 -30 -140.57  191.76
   7  -6  30 -106.66  102.15
   7  -6  30   87.94  248.50
  -7   7 -30   -6.99  108.78
  -7   7 -30 -283.75  208.02
   7  -7  30 -361.08  258.85
   7  -7  30   66.11  102.96
  -7   8 -30  270.01  210.40
   7  -8  30  118.32  274.66
  -6   8 -30  166.04  207.01
   6  -8  30   -9.81  267.90
  -5   8 -30    8.63  206.15
   5  -8  30  384.49  286.02
  -4   8 -30   60.64  201.73
   4  -8  30   10.00  260.04
   3  -8  30 -274.43  256.66
   8   0  30 5095.26  999.59
  -8   1 -30   67.36  217.84
   8  -1  30 1057.40  214.37
  -8   2 -30 -240.43  117.57
   8  -2  30 -451.53  117.03
  -8   3 -30    7.45  184.49
  -8   3 -30  -54.67  111.23
   8  -3  30 -448.81  114.99
   8  -3  30 -351.02  225.50
  -8   4 -30 -313.57  194.02
  -8   4 -30    6.98  100.97
   8  -4  30   40.53  214.85
   8  -4  30  -14.19  107.85
  -8   5 -30    7.89  179.48
  -8   5 -30   -7.13  103.46
   8  -5  30   -7.32  105.56
   8  -5  30 -236.97  233.05
  -8   6 -30   -7.30  106.47
  -8   6 -30  384.51  203.43
   8  -6  30    7.55  107.41
   8  -6  30   79.94  242.73
  -8   7 -30 -102.56  196.59
   8  -7  30   18.72  261.80
  -5   9 -30 -232.02  208.53
  -5   9 -30  -64.41   99.47
   5  -9  30   20.81  275.78
  -4   9 -30   -8.97  207.54
  -4   9 -30   -6.23   92.01
   4  -9  30   21.06  274.54
  -3   9 -30   12.36   94.33
  -9   0 -30  140.57  105.15
  -9   0 -30 -190.11  169.02
   9   0  30  168.67  197.06
   9   0  30  -41.97   80.19
  -9   1 -30    7.08  100.35
  -9   1 -30  487.02  183.92
   9  -1  30 -174.62  216.71
   9  -1  30  121.49   97.49
  -9   2 -30 -145.89  104.97
  -9   2 -30  109.50  179.03
   9  -2  30    7.53  207.10
   9  -2  30    6.80   95.68
  -9   3 -30  366.13  181.50
  -9   3 -30   -7.49  114.06
   9  -3  30 -250.04  219.92
   9  -3  30   21.37  101.56
  -9   4 -30    7.67  109.00
  -9   4 -30 -169.18  189.26
   9  -4  30  -44.48  103.71
   9  -4  30  121.82  225.55
  -9   5 -30    7.85  115.14
  -9   5 -30  143.21  195.86
   9  -5  30  -30.75  102.95
   9  -5  30    8.49  242.61
  -9   6 -30    8.28  207.90
   9  -6  30 -347.32  247.84
  -4  10 -30    9.30  210.21
 -10   0 -30  -74.85  107.59
 -10   0 -30 -368.36  178.27
  10   0  30  -37.84   86.41
  10   0  30   -7.07  213.02
 -10   1 -30 -187.09  125.35
 -10   1 -30  -72.10  182.58
  10  -1  30   -6.68   87.16
  10  -1  30  402.24  213.30
 -10   2 -30   95.66  180.22
 -10   2 -30   -8.06  118.63
  10  -2  30 -287.64  226.48
  10  -2  30   42.46   94.93
 -10   3 -30    8.06  121.60
 -10   3 -30   45.24  194.27
  10  -3  30   -7.43  102.80
  10  -3  30   54.89  219.53
 -10   4 -30    8.29  116.09
 -10   4 -30    7.77  187.73
  10  -4  30    7.75  107.17
  10  -4  30    8.16  228.66
 -11   0 -30   98.19  116.65
 -11   0 -30 -399.01  179.11
  11   0  30   78.87   87.91
 -11   1 -30   85.54  128.17
 -11   1 -30  152.33  180.15
  11  -1  30  -95.91  207.44
  11  -1  30    7.05   96.47
 -11   2 -30 -173.75  129.42
 -11   2 -30    7.41  180.87
  11  -2  30   99.14  215.84
  11  -2  30   22.50  107.31
 -11   3 -30  273.89  188.59
  11  -3  30 -347.79  227.66
 -12   0 -30   34.99  112.40
 -12   1 -30    7.34  181.63
 -12   1 -30   -9.08   97.47
  12  -1  30 -284.72  221.06
  -3  -1 -31  169.31   84.31
  -3   0 -31   30.59   73.31
  -3   1 -31   93.73   88.28
  -3   2 -31 -100.89   80.05
  -3   3 -31   -5.42   80.85
  -3   4 -31  121.96   87.92
  -4  -1 -31    5.03   75.90
  -4   0 -31   46.24   76.38
   4   0  31  200.45  204.85
  -4   1 -31  -78.53   83.43
   4  -1  31 -127.70  215.38
  -4   2 -31    5.32   75.66
  -4   2 -31    8.09  186.63
   4  -2  31  -95.59  216.43
  -4   3 -31  303.66  189.32
  -4   3 -31   10.83   89.13
   4  -3  31  418.49  235.49
  -4   4 -31   88.32   84.33
  -4   4 -31 -166.87  191.51
   4  -4  31   27.47  238.83
  -4   5 -31    5.65  102.04
  -4   5 -31 -740.07  214.60
   4  -5  31 -255.23  257.19
  -3   5 -31   -5.69   89.71
  -5  -1 -31    5.35   83.93
  -5   0 -31   54.76   82.68
  -5   0 -31  145.31  171.19
   5   0  31  -48.41   87.17
   5   0  31  225.43  212.49
  -5   1 -31   38.26   87.82
  -5   1 -31   85.31  182.23
   5  -1  31  205.66  224.39
   5  -1  31  188.93  100.38
  -5   2 -31 -110.18  185.72
  -5   2 -31  -16.66   82.97
   5  -2  31 -669.50  224.88
  -5   3 -31 -319.95  190.86
  -5   3 -31   90.17   83.91
   5  -3  31  103.28  229.20
  -5   4 -31 -253.68  206.84
  -5   4 -31 -126.14  100.29
   5  -4  31 -586.77  253.60
  -5   5 -31 -887.44  216.09
  -5   5 -31    5.86   91.67
  -5   6 -31    8.57  193.69
  -5   6 -31    6.00   89.70
   5  -6  31   28.98  107.96
   5  -6  31 -536.74  256.12
  -4   6 -31 -339.79  212.48
  -4   6 -31   -5.80   94.41
   4  -6  31   -9.80  258.10
  -3   6 -31  445.94  145.73
  -6   0 -31 -115.88   96.53
  -6   0 -31 -678.22  196.64
   6   0  31   69.43  208.49
   6   0  31   23.81   87.47
  -6   1 -31    5.92   97.91
   6  -1  31 -150.55   84.78
  -6   2 -31   66.24  101.56
   6  -2  31 -922.82  247.56
   6  -2  31 -168.88   99.05
  -6   3 -31  975.88  329.84
   6  -3  31 2022.08  377.96
  -6   4 -31 -422.80  109.89
  -6   4 -31 -580.63  213.91
   6  -4  31 -130.54  102.62
   6  -4  31 -637.31  251.23
  -6   5 -31  478.23  201.34
  -6   5 -31    6.34  102.23
   6  -5  31    9.07  239.43
   6  -5  31   84.69  100.58
  -6   6 -31 -337.03  205.21
  -6   6 -31    6.49  105.92
   6  -6  31    9.48  258.99
   6  -6  31    7.26  102.48
  -6   7 -31   -8.94  209.98
   6  -7  31    9.94  265.45
  -5   7 -31  318.25  210.35
  -5   7 -31    6.31   94.84
   5  -7  31   10.02  253.30
   5  -7  31    7.47  104.45
  -4   7 -31   83.90  100.95
  -4   7 -31    8.96  195.88
   4  -7  31   10.21  267.86
  -7   0 -31 -126.57  101.67
   7   0  31  -91.89   96.37
  -7   1 -31 -383.74  101.81
   7  -1  31   32.05  101.84
  -7   2 -31  106.36   98.55
  -7   2 -31   23.81  183.16
   7  -2  31    6.64   87.96
   7  -2  31 -177.65  223.65
  -7   3 -31   24.34  196.43
  -7   3 -31  -33.85  106.64
   7  -3  31   20.58   99.08
   7  -3  31 -484.34  231.91
  -7   4 -31    6.89   99.53
  -7   4 -31   -8.31  188.01
   7  -4  31    7.05   98.90
   7  -4  31  164.70  235.87
  -7   5 -31    7.02  101.59
  -7   5 -31  -85.49  186.49
   7  -5  31  334.74  252.20
   7  -5  31    7.25  104.76
  -7   6 -31  387.76  205.03
  -7   6 -31    7.18  106.09
   7  -6  31    9.47  258.55
   7  -6  31   -7.48  108.79
  -5   8 -31   -9.15  204.66
   5  -8  31 -244.08  284.26
  -4   8 -31   36.93  202.79
   4  -8  31   10.68  266.00
  -8   0 -31   -6.90   95.93
  -8   0 -31  135.74  175.99
   8   0  31  143.89  211.54
   8   0  31  -12.61   84.80
  -8   1 -31    7.67  176.19
  -8   1 -31   57.07   99.90
   8  -1  31  -93.64   93.02
   8  -1  31  243.00  217.05
  -8   2 -31  140.55  182.66
  -8   2 -31 -120.10  102.52
   8  -2  31  178.41  223.32
   8  -2  31    7.01   95.64
  -8   3 -31  -28.89  101.94
  -8   3 -31   79.70  190.87
   8  -3  31   93.93  101.58
   8  -3  31 -241.01  231.85
  -8   4 -31   89.96  192.56
  -8   4 -31 -132.68  108.63
   8  -4  31    7.46  101.77
   8  -4  31  -26.23  230.41
  -8   5 -31   16.88  202.41
  -8   5 -31   -7.52  120.96
   8  -5  31  -63.90  247.30
   8  -5  31    7.70  109.60
  -9   0 -31  -14.96  186.77
  -9   0 -31  -74.49  104.08
   9   0  31   50.67   88.48
   9   0  31 -620.00  219.54
  -9   1 -31 -202.45  114.56
  -9   1 -31  457.18  194.85
   9  -1  31  170.10  214.97
   9  -1  31   20.40   99.33
  -9   2 -31 -216.25  109.07
  -9   2 -31   -7.77  186.64
   9  -2  31  128.19  222.93
   9  -2  31    7.18  103.85
  -9   3 -31 -269.37  114.54
  -9   3 -31   55.69  192.99
   9  -3  31 -207.78  223.61
   9  -3  31    7.52   99.52
  -9   4 -31   -8.18  191.41
   9  -4  31  -39.07  114.15
   9  -4  31 -216.09  241.01
 -10   0 -31  -47.58  109.31
 -10   0 -31  119.99  185.30
 -10   1 -31  198.23  124.98
 -10   1 -31  -76.34  184.62
  10  -1  31  326.73  218.40
  10  -1  31   56.40  100.37
 -10   2 -31 -171.46  185.61
 -10   2 -31    8.53  124.18
  10  -2  31   -7.47   99.68
  10  -2  31   -8.05  226.96
 -10   3 -31    7.98  197.60
  10  -3  31    7.83   94.44
  10  -3  31   -8.34  237.13
 -11   1 -31 -393.04  193.39
 -11   1 -31  -62.04  125.99
  11  -1  31 -525.33  227.51
  11  -1  31  163.47  104.87
  -3  -1 -32  -62.90   81.57
  -3   0 -32   75.28   82.18
  -3   1 -32   32.99   81.62
  -3   2 -32    5.61   87.80
  -4   0 -32  -43.33   85.16
  -4   1 -32    5.52   81.93
   4  -1  32 -662.83  249.96
  -4   2 -32   33.74   89.42
   4  -2  32 -898.65  266.82
  -4   3 -32   -5.73   93.99
   4  -3  32  655.21  259.54
  -4   4 -32    5.84   88.31
   4  -4  32    9.76  239.72
  -4   5 -32   -5.98   83.47
   4  -5  32 -856.93  256.78
  -5   0 -32 -271.27   91.24
  -5   0 -32  154.88  204.22
   5   0  32   76.32   97.70
  -5   1 -32 -827.12  222.25
  -5   1 -32  -70.55   92.17
   5  -1  32 -158.57  255.14
   5  -1  32  106.10   98.24
  -5   2 -32   -5.86   87.44
  -5   2 -32 -696.55  220.77
   5  -2  32 -469.81  269.01
   5  -2  32    6.85  107.84
  -5   3 -32  307.04  199.62
  -5   3 -32   41.68   96.71
   5  -3  32  371.59  245.90
  -5   4 -32    6.06   93.18
  -5   4 -32   52.18  195.24
   5  -4  32 -287.49  245.62
  -5   5 -32  409.17  201.22
  -5   5 -32   -6.19   92.72
   5  -5  32  163.65  111.66
   5  -5  32   -9.93  251.20
  -5   6 -32   -6.48   95.34
  -5   6 -32    9.13  209.07
   5  -6  32 -155.15  272.32
   5  -6  32   -7.65  107.99
  -4   6 -32   49.27   97.05
   4  -6  32   31.35  264.76
  -6   0 -32  -18.86   98.98
  -6   0 -32 -704.09  195.03
   6   0  32   68.93   95.25
   6   0  32  217.14  229.05
  -6   1 -32    6.25   89.73
  -6   1 -32  105.86  197.70
   6  -1  32   77.20  233.46
   6  -1  32 -330.34   88.78
  -6   2 -32    8.29  191.26
  -6   2 -32   25.43   98.31
   6  -2  32    8.84  229.06
   6  -2  32   -6.85   96.86
  -6   3 -32  103.34  103.71
  -6   3 -32 -541.15  207.18
   6  -3  32   91.68  102.18
   6  -3  32  -36.49  243.55
  -6   4 -32 -334.72  104.74
  -6   4 -32 -285.14  208.42
   6  -4  32 -140.07  239.29
   6  -4  32    7.24  101.63
  -6   5 -32    6.69  112.63
  -6   5 -32  -44.32  203.07
   6  -5  32    7.45  100.83
   6  -5  32   68.75  256.28
  -6   6 -32  246.44  221.58
   6  -6  32 -348.34  274.99
  -5   7 -32    9.42  216.74
  -4   7 -32    6.36   91.78
   4  -7  32  108.82  277.99
  -7   0 -32 -133.63  106.98
  -7   0 -32    8.00  189.41
   7   0  32   73.70  224.54
   7   0  32  -38.73   90.79
  -7   1 -32 -114.17  196.30
  -7   1 -32  -20.60   93.48
   7  -1  32  -60.79   93.66
   7  -1  32  498.90  227.38
  -7   2 -32  415.93  200.97
  -7   2 -32    7.02  100.00
   7  -2  32    7.00   95.82
   7  -2  32  164.29  235.89
  -7   3 -32   -7.15  103.55
  -7   3 -32  297.61  201.21
   7  -3  32   21.68  101.88
   7  -3  32   17.92  240.97
  -7   4 -32 -414.47  110.50
  -7   4 -32    8.71  207.71
   7  -4  32   74.30  249.26
   7  -4  32   29.72  104.34
  -7   5 -32   17.91  202.77
   7  -5  32    9.69  248.83
  -8   0 -32    7.30  112.97
  -8   0 -32   72.89  199.49
   8   0  32   86.51   93.02
  -8   1 -32 -211.13  112.98
  -8   1 -32   57.65  195.12
   8  -1  32  159.00  238.48
   8  -1  32   -7.06   96.77
  -8   2 -32    7.47  107.57
  -8   2 -32  368.51  208.35
   8  -2  32 -155.73  233.48
   8  -2  32    7.38  104.50
  -8   3 -32 -175.48  113.83
  -8   3 -32 -393.93  207.52
   8  -3  32    7.61  109.13
   8  -3  32   17.95  241.86
  -8   4 -32  184.49  206.48
   8  -4  32   62.88  116.22
   8  -4  32    9.33  255.62
  -9   0 -32   94.61  111.43
  -9   1 -32 -103.19  113.86
  -9   1 -32 -259.27  204.61
   9  -1  32   35.87   99.46
   9  -1  32 -109.56  229.51
  -9   2 -32    8.17  120.73
  -9   2 -32 -338.68  209.32
   9  -2  32 -157.15  240.52
   9  -2  32 -242.60  111.41
  -9   3 -32 -211.36  208.59
   9  -3  32    7.92   85.86
   9  -3  32   45.31  244.43
 -10   1 -32   69.90  133.59
 -10   1 -32 -333.95  200.83
  10  -1  32  -42.30  243.63
  10  -1  32  -29.76  105.44
 -10   2 -32  182.87  212.86
  -4   0 -33   -5.70   90.02
  -4   1 -33  186.29  102.15
  -4   2 -33  -29.70   95.76
  -4   3 -33    6.06   93.61
   4  -3  33  475.98  257.96
  -4   4 -33  -30.96  102.39
   4  -4  33   20.84  244.55
  -4   5 -33   -6.34  100.48
   4  -5  33   10.76  263.71
  -5   0 -33   12.15   88.26
  -5   0 -33  182.09  201.75
   5   0  33  404.22  230.84
   5   0  33   20.02   92.26
  -5   1 -33    6.20   93.47
  -5   1 -33  158.63  203.04
   5  -1  33   -9.43  241.54
   5  -1  33   13.94   97.32
  -5   2 -33    8.95  198.53
  -5   2 -33    6.31   90.96
   5  -2  33  368.02  256.54
   5  -2  33  -57.76  106.38
  -5   3 -33    9.10  211.74
  -5   3 -33    6.29   95.88
   5  -3  33  -22.32  101.69
   5  -3  33 -139.14  263.66
  -5   4 -33  -12.83   99.89
  -5   4 -33  278.26  213.59
   5  -4  33   -7.65  118.87
   5  -4  33   30.79  266.63
  -5   5 -33  132.83  220.89
   5  -5  33   10.62  271.97
   5  -5  33    7.86  115.72
   4  -6  33   44.62  273.74
  -6   0 -33   79.35   96.91
  -6   0 -33 -313.73  200.86
   6   0  33 -224.07  100.52
   6   0  33 -233.66  238.40
  -6   1 -33 -129.45  196.23
  -6   1 -33    6.58   95.50
   6  -1  33  311.89  243.37
   6  -1  33  124.03   95.52
  -6   2 -33   20.11  107.44
  -6   2 -33  210.84  201.61
   6  -2  33    7.21  102.04
   6  -2  33  245.89  255.35
  -6   3 -33   -6.81  107.84
  -6   3 -33   -8.99  207.85
   6  -3  33   -7.43  103.82
   6  -3  33  371.14  260.31
  -6   4 -33  -91.86  214.73
  -6   4 -33    6.94  107.02
   6  -4  33   60.64  266.22
   6  -4  33  -61.17  100.75
  -7   0 -33   -7.04  102.61
  -7   1 -33   28.96  105.19
  -7   1 -33    8.65  204.73
   7  -1  33  126.52  249.29
   7  -1  33   42.66   95.21
  -7   2 -33   -7.40  117.21
  -7   2 -33 -511.76  217.56
   7  -2  33   36.85  108.59
   7  -2  33 -420.48  243.18
  -7   3 -33 -216.36  213.87
  -7   3 -33    7.54  109.49
   7  -3  33  241.81  260.20
   7  -3  33    7.61  103.36
  -7   4 -33  387.78  232.51
   7  -4  33  -40.17  266.85
  -8   1 -33 -199.08  129.21
  -8   1 -33 -481.93  210.57
   8  -1  33   52.02  109.76
   8  -1  33    9.00  245.98
  -8   2 -33    7.88  116.36
  -8   2 -33   -8.95  209.51
   8  -2  33 -139.98  109.29
   8  -2  33  270.31  265.52
  -8   3 -33  293.30  216.44
   8  -3  33 -318.85  264.14
  -9   1 -33   50.32  123.82
  -9   1 -33   95.62  200.18
   9  -1  33    7.57  109.17
   9  -1  33 -326.75  254.45
  -4   0 -34   41.98   93.02
  -4   1 -34    6.14   90.52
  -4   2 -34   81.57   94.74
  -4   3 -34   51.30   98.95
  -5   0 -34   25.53   98.30
  -5   1 -34  -84.90   96.88
   5  -1  34  -43.95  102.08
   5  -1  34   20.06  261.77
  -5   2 -34    6.66   93.56
   5  -2  34  -37.99  106.31
   5  -2  34  433.29  261.70
  -5   3 -34    9.70  208.82
  -5   3 -34   67.80  109.36
   5  -3  34  244.49  265.78
   5  -3  34   15.68  112.30
  -5   4 -34 -277.04  221.36
   5  -4  34  142.75  287.30
  -6   1 -34 -180.16  110.01
  -6   1 -34 -312.28  222.13
   6  -1  34  108.72  110.67
   6  -1  34 -592.85  259.22
  -6   2 -34    9.35  208.75
  -6   2 -34   42.40  102.85
   6  -2  34 -152.95  261.43
   6  -2  34  -53.14  106.74
  -6   3 -34    9.54  225.99
   6  -3  34   10.52  273.74
   6  -3  34    7.84  111.56
  -7   1 -34   27.36  225.60
  -7   1 -34 -160.07  113.10
   7  -1  34   -9.76  254.11
   7  -1  34   -7.49  104.02
  -7   2 -34   -7.80   92.64
  -7   2 -34   18.62  215.13
   7  -2  34   38.87  109.22
   7  -2  34 -292.90  269.06
  -8   1 -34  293.37  227.62
   8  -1  34   58.27  262.96
  -4   0 -35  169.92  103.11
  -4   1 -35   45.32   96.57
  -5   1 -35   89.40  109.70
   5  -1  35  128.12  270.08
   5  -1  35   46.10  115.33
  -5   2 -35   91.29  101.80
   5  -2  35  363.01  276.12
   5  -2  35    8.00  113.53
  -6   1 -35 -107.57  224.31
  -6   1 -35 -194.78  119.15
   6  -1  35  -15.23  108.14
   6  -1  35   42.28  275.96
  -7   1 -35 -125.47  223.66
   7  -1  35   72.92  266.68
   0   0   0    0.00    0.00
;
_shelx_hkl_checksum              7813
_shelx_fab_checksum              35503
_shelx_fab_file
;
    0    2    0   -146.25      0.00
    1    2    0    282.42      0.00
    1    3    0     10.70      0.00
    2    3    0    142.77      0.00
    0    4    0     13.17      0.00
    1    4    0     58.89      0.00
    2    4    0     36.97      0.00
    3    4    0      2.34      0.00
    1    5    0    -48.47      0.00
    2    5    0     26.48      0.00
    3    5    0      9.36      0.00
    0    6    0     36.86      0.00
    1    6    0    -61.39      0.00
    2    6    0     62.78      0.00
    3    6    0      2.74      0.00
    4    6    0      2.02      0.00
    1    7    0      4.91      0.00
    2    7    0    -16.12      0.00
    3    7    0     47.28      0.00
    4    7    0     18.94      0.00
    0    8    0     -6.81      0.00
    1    8    0    -11.38      0.00
    2    8    0     -8.85      0.00
    3    8    0     -4.25      0.00
    4    8    0      2.47      0.00
    5    8    0    -31.24      0.00
    1    9    0      6.28      0.00
    2    9    0     13.30      0.00
    3    9    0     -3.23      0.00
    4    9    0     13.50      0.00
    5    9    0     31.11      0.00
    0   10    0     24.19      0.00
    1   10    0      6.25      0.00
    2   10    0     -2.77      0.00
    3   10    0     -4.98      0.00
    4   10    0    -12.99      0.00
    5   10    0      6.76      0.00
    6   10    0      5.87      0.00
    1   11    0     -2.27      0.00
    2   11    0      1.35      0.00
    3   11    0     -0.89      0.00
    4   11    0    -15.61      0.00
    5   11    0     -7.44      0.00
    6   11    0      6.29      0.00
    0   12    0    -19.27      0.00
    1   12    0      1.08      0.00
    2   12    0     -0.45      0.00
    3   12    0     15.90      0.00
    4   12    0     14.25      0.00
    5   12    0      7.58      0.00
    6   12    0     -1.89      0.00
    1   13    0      0.78      0.00
    2   13    0      8.53      0.00
    3   13    0     29.03      0.00
    4   13    0      4.63      0.00
    5   13    0    -14.52      0.00
    0   14    0     17.93      0.00
    1   14    0    -17.04      0.00
    2   14    0     21.15      0.00
    3   14    0    -18.66      0.00
    4   14    0    -10.69      0.00
    5   14    0     -3.06      0.00
    6   14    0     -0.45      0.00
    7   14    0      8.92      0.00
    1   15    0    -13.97      0.00
    2   15    0    -22.80      0.00
    3   15    0      0.65      0.00
    4   15    0     13.04      0.00
    5   15    0      7.17      0.00
    6   15    0    -14.50      0.00
    7   15    0     20.63      0.00
    0   16    0     13.09      0.00
    1   16    0    -15.37      0.00
    2   16    0      2.57      0.00
    3   16    0      9.63      0.00
    4   16    0      2.65      0.00
    5   16    0     14.58      0.00
    6   16    0     -4.76      0.00
    7   16    0     13.93      0.00
    1   17    0     32.75      0.00
    2   17    0     -3.13      0.00
    3   17    0     15.21      0.00
    4   17    0      2.44      0.00
    5   17    0     -2.91      0.00
    6   17    0     15.73      0.00
    7   17    0     -7.13      0.00
    0   18    0      4.94      0.00
    1   18    0     -7.73      0.00
    2   18    0    -21.81      0.00
    3   18    0      0.06      0.00
    4   18    0     16.32      0.00
    5   18    0     11.37      0.00
    6   18    0     26.62      0.00
    7   18    0     45.70      0.00
    1   19    0    144.71      0.00
    2   19    0    -20.17      0.00
    3   19    0    -26.51      0.00
    4   19    0     -9.48      0.00
    5   19    0     -3.05      0.00
    6   19    0     27.12      0.00
    7   19    0    -10.46      0.00
    0   20    0     13.34      0.00
    1   20    0    -40.01      0.00
    2   20    0      0.02      0.00
    3   20    0      1.27      0.00
    4   20    0     -4.08      0.00
    5   20    0     -1.08      0.00
    6   20    0    -10.62      0.00
    1    2    1     68.21      0.00
    0    3    1    -66.81      0.00
    1    3    1    150.73      0.00
    2    3    1     16.57      0.00
    1    4    1     17.03      0.00
    2    4    1     31.03      0.00
    3    4    1     22.67      0.00
    0    5    1      9.43      0.00
    1    5    1     -4.12      0.00
    2    5    1     36.39      0.00
    3    5    1    -15.47      0.00
    1    6    1     16.77      0.00
    2    6    1    -53.63      0.00
    3    6    1     -1.54      0.00
    4    6    1     30.19      0.00
    0    7    1    -44.25      0.00
    1    7    1    -17.88      0.00
    2    7    1     13.21      0.00
    3    7    1     15.64      0.00
    4    7    1      5.50      0.00
    5    7    1    -19.34      0.00
    1    8    1    -11.03      0.00
    2    8    1     -0.41      0.00
    3    8    1    -10.83      0.00
    4    8    1     -3.33      0.00
    5    8    1     -1.20      0.00
    0    9    1      5.16      0.00
    1    9    1      7.29      0.00
    2    9    1     -1.77      0.00
    3    9    1      1.89      0.00
    4    9    1     16.25      0.00
    5    9    1     -0.24      0.00
    6    9    1      6.82      0.00
    1   10    1      5.10      0.00
    2   10    1      3.82      0.00
    3   10    1     -5.36      0.00
    4   10    1      4.95      0.00
    5   10    1     -6.21      0.00
    6   10    1      1.19      0.00
    0   11    1      3.86      0.00
    1   11    1    -10.39      0.00
    2   11    1     -5.33      0.00
    3   11    1     -1.36      0.00
    4   11    1      0.27      0.00
    5   11    1    -14.07      0.00
    6   11    1     -6.86      0.00
    1   12    1      0.76      0.00
    2   12    1     -8.24      0.00
    3   12    1      7.28      0.00
    4   12    1    -14.36      0.00
    5   12    1     17.56      0.00
    6   12    1     12.52      0.00
    0   13    1    -10.93      0.00
    1   13    1      4.96      0.00
    2   13    1      6.29      0.00
    3   13    1    -16.96      0.00
    4   13    1      3.67      0.00
    5   13    1     -2.14      0.00
    6   13    1    -29.42      0.00
    7   13    1      1.96      0.00
    1   14    1     14.02      0.00
    2   14    1     24.24      0.00
    3   14    1     -4.62      0.00
    4   14    1     19.30      0.00
    5   14    1    -12.38      0.00
    6   14    1      8.96      0.00
    7   14    1     25.07      0.00
    0   15    1     24.49      0.00
    1   15    1    -36.23      0.00
    2   15    1    -13.44      0.00
    3   15    1    -14.06      0.00
    4   15    1      0.70      0.00
    5   15    1    -12.79      0.00
    6   15    1      9.20      0.00
    7   15    1    -25.12      0.00
    1   16    1     -4.96      0.00
    2   16    1     -5.60      0.00
    3   16    1      1.47      0.00
    4   16    1     22.69      0.00
    5   16    1     -5.17      0.00
    6   16    1     12.06      0.00
    7   16    1     13.59      0.00
    0   17    1     40.92      0.00
    1   17    1     22.53      0.00
    2   17    1    -18.73      0.00
    3   17    1      7.11      0.00
    4   17    1      2.98      0.00
    5   17    1    -29.09      0.00
    6   17    1     -4.19      0.00
    7   17    1    -31.36      0.00
    1   18    1    -29.05      0.00
    2   18    1    -22.17      0.00
    3   18    1     12.94      0.00
    4   18    1      9.02      0.00
    5   18    1    -11.44      0.00
    6   18    1    -29.92      0.00
    7   18    1    -18.23      0.00
    1   19    1    122.30      0.00
    2   19    1    -12.19      0.00
    3   19    1     -8.58      0.00
    4   19    1      0.68      0.00
    5   19    1    -17.24      0.00
    6   19    1      8.31      0.00
    7   19    1     40.07      0.00
    1   20    1    -13.12      0.00
    2   20    1    -12.67      0.00
    3   20    1     -5.68      0.00
    4   20    1      0.59      0.00
    5   20    1      2.21      0.00
    6   20    1      0.22      0.00
    1    1    2   -581.15      0.00
    0    2    2     24.70      0.00
    1    2    2   -110.14      0.00
    2    2    2     51.39      0.00
    1    3    2     13.95      0.00
    2    3    2    -56.51      0.00
    3    3    2    -71.14      0.00
    0    4    2     11.10      0.00
    1    4    2     42.78      0.00
    2    4    2    -34.59      0.00
    3    4    2    -27.21      0.00
    1    5    2      2.23      0.00
    2    5    2    -21.80      0.00
    3    5    2    -11.06      0.00
    0    6    2    -28.20      0.00
    1    6    2     -8.93      0.00
    2    6    2     34.46      0.00
    3    6    2    -12.05      0.00
    4    6    2      2.35      0.00
    1    7    2    -28.70      0.00
    2    7    2      6.73      0.00
    3    7    2     -1.71      0.00
    4    7    2      6.74      0.00
    5    7    2    -16.63      0.00
    0    8    2    -14.74      0.00
    1    8    2     -3.01      0.00
    2    8    2    -18.13      0.00
    3    8    2      5.69      0.00
    4    8    2      4.83      0.00
    5    8    2     -3.15      0.00
    1    9    2      4.05      0.00
    2    9    2     -1.55      0.00
    3    9    2     -0.91      0.00
    4    9    2      2.45      0.00
    5    9    2      1.22      0.00
    6    9    2     -0.51      0.00
    0   10    2     -6.71      0.00
    1   10    2     13.01      0.00
    2   10    2      0.35      0.00
    3   10    2      0.03      0.00
    4   10    2     -2.63      0.00
    5   10    2      7.74      0.00
    6   10    2     -9.11      0.00
    1   11    2      9.35      0.00
    2   11    2      6.62      0.00
    3   11    2     -2.67      0.00
    4   11    2     11.70      0.00
    5   11    2      4.59      0.00
    6   11    2     11.02      0.00
    7   11    2     -6.16      0.00
    0   12    2     13.96      0.00
    1   12    2     -7.14      0.00
    2   12    2     -5.94      0.00
    3   12    2     -8.53      0.00
    4   12    2      7.89      0.00
    5   12    2     21.37      0.00
    6   12    2     -9.81      0.00
    7   12    2     -6.68      0.00
    1   13    2     -8.82      0.00
    2   13    2     -4.54      0.00
    3   13    2     -4.67      0.00
    4   13    2      8.03      0.00
    5   13    2     -2.08      0.00
    6   13    2    -11.36      0.00
    0   14    2    -48.48      0.00
    1   14    2     30.18      0.00
    2   14    2     24.89      0.00
    3   14    2      6.23      0.00
    4   14    2     -6.46      0.00
    5   14    2     -3.85      0.00
    6   14    2      5.98      0.00
    7   14    2    -10.55      0.00
    1   15    2      0.23      0.00
    2   15    2      5.05      0.00
    3   15    2    -11.18      0.00
    4   15    2    -14.02      0.00
    5   15    2     13.24      0.00
    6   15    2     -4.22      0.00
    7   15    2      6.67      0.00
    0   16    2     -5.48      0.00
    1   16    2    -10.83      0.00
    2   16    2      6.03      0.00
    3   16    2      5.79      0.00
    4   16    2     -5.09      0.00
    5   16    2      3.32      0.00
    6   16    2    -11.11      0.00
    7   16    2     17.49      0.00
    1   17    2     -3.60      0.00
    2   17    2     -6.74      0.00
    3   17    2      0.22      0.00
    4   17    2      5.71      0.00
    5   17    2     -4.92      0.00
    6   17    2     -2.95      0.00
    7   17    2     31.02      0.00
    0   18    2    -23.88      0.00
    1   18    2    -12.95      0.00
    2   18    2    -14.85      0.00
    3   18    2      2.02      0.00
    4   18    2     22.48      0.00
    5   18    2     -5.39      0.00
    6   18    2     39.73      0.00
    7   18    2     -0.56      0.00
    1   19    2     35.37      0.00
    2   19    2    -10.36      0.00
    3   19    2     -0.64      0.00
    4   19    2      6.77      0.00
    5   19    2     -9.95      0.00
    6   19    2    -15.67      0.00
    7   19    2    -16.92      0.00
    0   20    2    -34.67      0.00
    1   20    2     -4.58      0.00
    2   20    2    -12.76      0.00
    3   20    2     -1.29      0.00
    4   20    2     -6.98      0.00
    5   20    2     -4.28      0.00
    6   20    2      3.74      0.00
    0    1    3    148.51      0.00
    1    2    3   -103.21      0.00
    0    3    3    129.47      0.00
    1    3    3    -94.74      0.00
    2    3    3     -8.45      0.00
    1    4    3    -41.98      0.00
    2    4    3    -35.66      0.00
    3    4    3    -25.09      0.00
    0    5    3     20.62      0.00
    1    5    3      7.74      0.00
    2    5    3    -78.30      0.00
    3    5    3    -13.94      0.00
    1    6    3      7.13      0.00
    2    6    3     14.10      0.00
    3    6    3      8.62      0.00
    4    6    3     -5.00      0.00
    5    6    3     -0.12      0.00
    0    7    3     17.16      0.00
    1    7    3     13.55      0.00
    2    7    3      1.46      0.00
    3    7    3     -9.12      0.00
    4    7    3    -15.98      0.00
    5    7    3    -17.51      0.00
    1    8    3    -12.62      0.00
    2    8    3      9.98      0.00
    3    8    3     -4.34      0.00
    4    8    3     -0.44      0.00
    5    8    3     -3.98      0.00
    6    8    3     10.72      0.00
    0    9    3     28.88      0.00
    1    9    3     -7.98      0.00
    2    9    3      1.42      0.00
    3    9    3      1.87      0.00
    4    9    3      1.10      0.00
    5    9    3      7.40      0.00
    6    9    3      3.84      0.00
    1   10    3      3.08      0.00
    2   10    3     -1.10      0.00
    3   10    3      2.57      0.00
    4   10    3     -7.94      0.00
    5   10    3      1.77      0.00
    6   10    3      4.44      0.00
    7   10    3     -7.15      0.00
    0   11    3    -10.19      0.00
    1   11    3     -9.86      0.00
    2   11    3     -8.00      0.00
    3   11    3      5.09      0.00
    4   11    3    -23.20      0.00
    5   11    3    -20.73      0.00
    6   11    3      8.55      0.00
    7   11    3     -7.18      0.00
    1   12    3      5.26      0.00
    2   12    3     -2.78      0.00
    3   12    3      0.28      0.00
    4   12    3     10.59      0.00
    5   12    3     -4.88      0.00
    6   12    3     -3.84      0.00
    7   12    3    -21.85      0.00
    0   13    3      4.30      0.00
    1   13    3     -9.95      0.00
    2   13    3    -21.11      0.00
    3   13    3    -25.38      0.00
    4   13    3      5.23      0.00
    5   13    3     -0.24      0.00
    6   13    3     -3.56      0.00
    1   14    3    -12.83      0.00
    2   14    3      9.40      0.00
    3   14    3     -4.92      0.00
    4   14    3    -10.74      0.00
    5   14    3    -15.49      0.00
    6   14    3     -2.67      0.00
    7   14    3    -19.63      0.00
    0   15    3     -8.05      0.00
    1   15    3      6.97      0.00
    2   15    3    -17.45      0.00
    3   15    3      3.42      0.00
    4   15    3     -7.89      0.00
    5   15    3      4.64      0.00
    6   15    3     10.28      0.00
    7   15    3     18.43      0.00
    8   15    3      3.77      0.00
    1   16    3     -3.23      0.00
    2   16    3     -1.77      0.00
    3   16    3      5.56      0.00
    4   16    3      6.31      0.00
    5   16    3     -9.74      0.00
    6   16    3     14.41      0.00
    7   16    3     -2.28      0.00
    8   16    3    -56.70      0.00
    0   17    3     -8.82      0.00
    1   17    3     -0.10      0.00
    2   17    3      9.86      0.00
    3   17    3     -1.10      0.00
    4   17    3     19.02      0.00
    5   17    3    -15.48      0.00
    6   17    3     -1.12      0.00
    7   17    3    -27.24      0.00
    8   17    3      3.69      0.00
    1   18    3    -17.17      0.00
    2   18    3     -1.26      0.00
    3   18    3    -19.98      0.00
    4   18    3     11.07      0.00
    5   18    3     -2.76      0.00
    6   18    3     42.14      0.00
    7   18    3     -8.91      0.00
    8   18    3     -3.26      0.00
    0   19    3     20.80      0.00
    1   19    3      6.21      0.00
    2   19    3     -5.82      0.00
    3   19    3    -10.14      0.00
    4   19    3     -5.34      0.00
    5   19    3     21.74      0.00
    6   19    3      0.72      0.00
    7   19    3     -0.53      0.00
    1   20    3      3.65      0.00
    2   20    3    -11.40      0.00
    3   20    3      9.44      0.00
    4   20    3     24.96      0.00
    5   20    3     -0.52      0.00
    6   20    3     -8.09      0.00
    0    0    4    -14.41      0.00
    1    1    4     60.91      0.00
    0    2    4     64.68      0.00
    1    2    4    -11.44      0.00
    2    2    4     -4.67      0.00
    1    3    4     43.67      0.00
    2    3    4     16.10      0.00
    3    3    4    -48.36      0.00
    0    4    4    -80.27      0.00
    1    4    4    -21.81      0.00
    2    4    4     20.20      0.00
    3    4    4     22.31      0.00
    4    4    4     12.92      0.00
    1    5    4    -62.50      0.00
    2    5    4    -25.59      0.00
    3    5    4      9.32      0.00
    4    5    4    -11.67      0.00
    5    5    4     10.77      0.00
    0    6    4     21.88      0.00
    1    6    4     29.24      0.00
    2    6    4    -22.14      0.00
    3    6    4     18.62      0.00
    4    6    4      1.51      0.00
    5    6    4     -5.20      0.00
    1    7    4      4.26      0.00
    2    7    4     10.69      0.00
    3    7    4     -9.45      0.00
    4    7    4      1.18      0.00
    5    7    4     -7.00      0.00
    6    7    4     10.93      0.00
    0    8    4      4.46      0.00
    1    8    4     23.48      0.00
    2    8    4     -0.14      0.00
    3    8    4      4.54      0.00
    4    8    4      3.40      0.00
    5    8    4     -2.95      0.00
    6    8    4     -9.71      0.00
    1    9    4     10.39      0.00
    2    9    4    -16.30      0.00
    3    9    4      6.95      0.00
    4    9    4     -8.59      0.00
    5    9    4     -5.56      0.00
    6    9    4     10.60      0.00
    0   10    4     -9.30      0.00
    1   10    4      3.80      0.00
    2   10    4      1.10      0.00
    3   10    4     -2.69      0.00
    4   10    4      0.20      0.00
    5   10    4     -1.91      0.00
    6   10    4     -1.94      0.00
    7   10    4      1.24      0.00
    1   11    4     -5.42      0.00
    2   11    4      6.10      0.00
    3   11    4      2.63      0.00
    4   11    4      7.59      0.00
    5   11    4      4.11      0.00
    6   11    4    -24.98      0.00
    7   11    4      0.90      0.00
    0   12    4    -17.94      0.00
    1   12    4      0.35      0.00
    2   12    4      1.09      0.00
    3   12    4      1.57      0.00
    4   12    4     -1.66      0.00
    5   12    4     -3.08      0.00
    6   12    4     23.35      0.00
    7   12    4    -23.77      0.00
    1   13    4      6.10      0.00
    2   13    4     23.95      0.00
    3   13    4    -10.53      0.00
    4   13    4     -2.70      0.00
    5   13    4     -6.02      0.00
    6   13    4     18.21      0.00
    0   14    4     10.83      0.00
    1   14    4      0.07      0.00
    2   14    4     -8.26      0.00
    3   14    4      4.59      0.00
    4   14    4     42.57      0.00
    5   14    4     17.12      0.00
    6   14    4    -11.11      0.00
    7   14    4     33.49      0.00
    8   14    4     -4.32      0.00
    1   15    4      8.38      0.00
    2   15    4      4.45      0.00
    3   15    4     -3.76      0.00
    4   15    4     -3.11      0.00
    5   15    4     12.57      0.00
    6   15    4      2.72      0.00
    7   15    4      2.65      0.00
    8   15    4     18.61      0.00
    0   16    4     -7.95      0.00
    1   16    4      5.90      0.00
    2   16    4      9.34      0.00
    3   16    4     10.56      0.00
    4   16    4     -8.81      0.00
    5   16    4     14.27      0.00
    6   16    4      4.24      0.00
    7   16    4      9.42      0.00
    8   16    4    -44.00      0.00
    1   17    4     -8.70      0.00
    2   17    4     -3.09      0.00
    3   17    4     -1.40      0.00
    4   17    4     -4.60      0.00
    5   17    4    -36.06      0.00
    6   17    4     -7.12      0.00
    7   17    4      0.93      0.00
    0   18    4     -5.15      0.00
    1   18    4      5.67      0.00
    2   18    4      3.81      0.00
    3   18    4      6.97      0.00
    4   18    4      9.50      0.00
    5   18    4    -25.06      0.00
    6   18    4     -7.17      0.00
    7   18    4     26.68      0.00
    1   19    4     -9.06      0.00
    2   19    4    -11.56      0.00
    3   19    4      2.79      0.00
    4   19    4      6.48      0.00
    5   19    4    -29.05      0.00
    6   19    4     13.22      0.00
    7   19    4     35.60      0.00
    0   20    4    -14.88      0.00
    1   20    4      1.57      0.00
    2   20    4     -1.90      0.00
    3   20    4     -5.45      0.00
    4   20    4     12.15      0.00
    5   20    4     -5.17      0.00
    6   20    4     -1.69      0.00
    0    1    5    -50.86      0.00
    1    2    5     80.56      0.00
    0    3    5     52.22      0.00
    1    3    5    -58.30      0.00
    2    3    5     63.00      0.00
    1    4    5     10.43      0.00
    2    4    5      8.07      0.00
    3    4    5    -52.35      0.00
    0    5    5    -16.03      0.00
    1    5    5      3.92      0.00
    2    5    5     33.66      0.00
    3    5    5    -10.19      0.00
    4    5    5     16.32      0.00
    1    6    5     21.36      0.00
    2    6    5     11.50      0.00
    3    6    5      0.66      0.00
    4    6    5      5.28      0.00
    5    6    5     25.10      0.00
    0    7    5     27.87      0.00
    1    7    5     20.13      0.00
    2    7    5      4.15      0.00
    3    7    5     14.52      0.00
    4    7    5    -15.56      0.00
    5    7    5      2.97      0.00
    6    7    5     -8.25      0.00
    1    8    5     16.80      0.00
    2    8    5      6.92      0.00
    3    8    5     -5.77      0.00
    4    8    5    -16.87      0.00
    5    8    5     -0.63      0.00
    6    8    5      3.62      0.00
    7    8    5      3.05      0.00
    0    9    5     -5.54      0.00
    1    9    5    -24.36      0.00
    2    9    5     15.51      0.00
    3    9    5    -20.38      0.00
    4    9    5     -6.87      0.00
    5    9    5     -2.70      0.00
    6    9    5     -9.36      0.00
    7    9    5     -1.76      0.00
    1   10    5     -5.67      0.00
    2   10    5     -2.28      0.00
    3   10    5      3.16      0.00
    4   10    5      3.67      0.00
    5   10    5     16.41      0.00
    6   10    5      7.11      0.00
    7   10    5     -5.85      0.00
    0   11    5    -11.75      0.00
    1   11    5     -1.24      0.00
    2   11    5     14.60      0.00
    3   11    5      7.24      0.00
    4   11    5     -6.05      0.00
    5   11    5     -5.21      0.00
    6   11    5      2.73      0.00
    7   11    5     -7.24      0.00
    1   12    5     13.36      0.00
    2   12    5     -3.39      0.00
    3   12    5    -10.09      0.00
    4   12    5      7.37      0.00
    5   12    5     -2.86      0.00
    6   12    5     10.54      0.00
    7   12    5    -21.10      0.00
    8   12    5    -50.07      0.00
    0   13    5      6.28      0.00
    1   13    5     -1.15      0.00
    2   13    5      1.60      0.00
    3   13    5     25.30      0.00
    4   13    5     -0.91      0.00
    5   13    5     -6.42      0.00
    6   13    5     12.35      0.00
    1   14    5      9.61      0.00
    2   14    5     -8.83      0.00
    3   14    5      1.57      0.00
    4   14    5     11.62      0.00
    5   14    5     -0.17      0.00
    6   14    5     -5.86      0.00
    7   14    5     -0.16      0.00
    0   15    5      4.89      0.00
    1   15    5     14.86      0.00
    2   15    5      3.86      0.00
    3   15    5     -1.66      0.00
    4   15    5     12.93      0.00
    5   15    5    -24.28      0.00
    6   15    5      8.88      0.00
    7   15    5     29.75      0.00
    1   16    5      5.78      0.00
    2   16    5      0.39      0.00
    3   16    5     -0.46      0.00
    4   16    5     -6.31      0.00
    5   16    5    -20.17      0.00
    6   16    5     -7.74      0.00
    7   16    5     -0.46      0.00
    0   17    5     12.82      0.00
    1   17    5      2.07      0.00
    2   17    5     15.00      0.00
    3   17    5     -9.99      0.00
    4   17    5     -9.25      0.00
    5   17    5    -18.11      0.00
    6   17    5      6.65      0.00
    1   18    5     -6.01      0.00
    2   18    5     -8.54      0.00
    3   18    5      9.63      0.00
    4   18    5     -7.54      0.00
    5   18    5      3.07      0.00
    6   18    5     -9.86      0.00
    0   19    5     11.52      0.00
    1   19    5     -7.89      0.00
    2   19    5      6.80      0.00
    3   19    5    -14.32      0.00
    4   19    5     -9.88      0.00
    5   19    5     -1.60      0.00
    6   19    5     -9.27      0.00
    1   20    5      4.01      0.00
    2   20    5     13.47      0.00
    3   20    5      5.30      0.00
    4   20    5     22.23      0.00
    5   20    5     16.00      0.00
    0    0    6    -95.07      0.00
    1    1    6     17.69      0.00
    0    2    6    -55.94      0.00
    1    2    6    -38.29      0.00
    2    2    6    -15.42      0.00
    1    3    6     63.46      0.00
    2    3    6    -37.66      0.00
    3    3    6     55.10      0.00
    0    4    6     71.37      0.00
    1    4    6    -41.92      0.00
    2    4    6     -4.08      0.00
    3    4    6     36.01      0.00
    4    4    6     47.68      0.00
    1    5    6     -8.94      0.00
    2    5    6    -10.88      0.00
    3    5    6     -7.47      0.00
    4    5    6     -2.99      0.00
    5    5    6     32.40      0.00
    0    6    6     38.05      0.00
    1    6    6      8.83      0.00
    2    6    6      0.57      0.00
    3    6    6     18.34      0.00
    4    6    6     -0.87      0.00
    5    6    6      3.04      0.00
    6    6    6     10.82      0.00
    1    7    6      3.46      0.00
    2    7    6     14.34      0.00
    3    7    6      4.28      0.00
    4    7    6     -8.45      0.00
    5    7    6    -11.11      0.00
    6    7    6      8.06      0.00
    7    7    6     -2.85      0.00
    0    8    6      3.03      0.00
    1    8    6      2.26      0.00
    2    8    6     -6.15      0.00
    3    8    6     -4.46      0.00
    4    8    6     -3.52      0.00
    5    8    6    -11.89      0.00
    6    8    6     -9.12      0.00
    7    8    6     -0.88      0.00
    1    9    6     -4.48      0.00
    2    9    6    -10.05      0.00
    3    9    6      3.88      0.00
    4    9    6     -5.97      0.00
    5    9    6     -5.78      0.00
    6    9    6     11.40      0.00
    7    9    6     -3.64      0.00
    0   10    6    -14.72      0.00
    1   10    6    -10.21      0.00
    2   10    6      3.93      0.00
    3   10    6     10.59      0.00
    4   10    6     -8.39      0.00
    5   10    6     -5.74      0.00
    6   10    6      5.83      0.00
    7   10    6     -0.23      0.00
    8   10    6      7.12      0.00
    1   11    6     -9.56      0.00
    2   11    6      7.56      0.00
    3   11    6     16.68      0.00
    4   11    6     -6.61      0.00
    5   11    6      6.38      0.00
    6   11    6     -7.76      0.00
    7   11    6      2.05      0.00
    8   11    6      2.16      0.00
    0   12    6      9.58      0.00
    1   12    6    -12.47      0.00
    2   12    6     -6.01      0.00
    3   12    6    -10.04      0.00
    4   12    6      4.38      0.00
    5   12    6      8.10      0.00
    6   12    6     10.73      0.00
    7   12    6      3.11      0.00
    1   13    6      7.50      0.00
    2   13    6     13.36      0.00
    3   13    6    -10.22      0.00
    4   13    6    -25.18      0.00
    5   13    6    -11.46      0.00
    6   13    6     -7.00      0.00
    7   13    6    -73.16      0.00
    0   14    6      6.06      0.00
    1   14    6     -4.64      0.00
    2   14    6      2.85      0.00
    3   14    6    -34.18      0.00
    4   14    6     -4.69      0.00
    5   14    6    -10.24      0.00
    6   14    6      9.69      0.00
    1   15    6      3.60      0.00
    2   15    6     13.05      0.00
    3   15    6     -5.37      0.00
    4   15    6    -23.96      0.00
    5   15    6    -21.28      0.00
    6   15    6      9.23      0.00
    0   16    6    -21.79      0.00
    1   16    6     -5.41      0.00
    2   16    6     16.69      0.00
    3   16    6      7.97      0.00
    4   16    6      6.10      0.00
    5   16    6    -19.76      0.00
    6   16    6      7.13      0.00
    1   17    6      6.28      0.00
    2   17    6     -6.54      0.00
    3   17    6      2.14      0.00
    4   17    6      9.18      0.00
    5   17    6     18.96      0.00
    6   17    6     -6.10      0.00
    0   18    6      1.17      0.00
    1   18    6      4.52      0.00
    2   18    6     -4.45      0.00
    3   18    6     14.57      0.00
    4   18    6     -2.81      0.00
    5   18    6     57.53      0.00
    6   18    6     12.85      0.00
    1   19    6     13.99      0.00
    2   19    6     -0.99      0.00
    3   19    6      2.27      0.00
    4   19    6     -1.21      0.00
    5   19    6      4.65      0.00
    6   19    6    -14.33      0.00
    0   20    6     12.83      0.00
    1   20    6     -6.42      0.00
    2   20    6      7.35      0.00
    3   20    6     11.53      0.00
    4   20    6     20.32      0.00
    0    1    7    -26.59      0.00
    1    2    7    -20.75      0.00
    0    3    7     10.20      0.00
    1    3    7    -45.45      0.00
    2    3    7    -66.41      0.00
    1    4    7     22.93      0.00
    2    4    7      8.21      0.00
    3    4    7     -3.57      0.00
    0    5    7    -83.07      0.00
    1    5    7     15.96      0.00
    2    5    7      7.42      0.00
    3    5    7    -10.93      0.00
    4    5    7      6.66      0.00
    1    6    7      9.10      0.00
    2    6    7      1.53      0.00
    3    6    7     -4.99      0.00
    4    6    7     -8.97      0.00
    5    6    7      6.43      0.00
    0    7    7     19.00      0.00
    1    7    7      7.81      0.00
    2    7    7     -7.80      0.00
    3    7    7      6.02      0.00
    4    7    7    -10.34      0.00
    5    7    7     -0.51      0.00
    6    7    7     -9.71      0.00
    1    8    7     -4.15      0.00
    2    8    7     -2.51      0.00
    3    8    7    -12.52      0.00
    4    8    7     -2.97      0.00
    5    8    7     20.42      0.00
    6    8    7      7.29      0.00
    7    8    7      0.57      0.00
    0    9    7    -18.33      0.00
    1    9    7     -8.07      0.00
    2    9    7      1.12      0.00
    3    9    7      4.16      0.00
    4    9    7      3.57      0.00
    5    9    7      5.49      0.00
    6    9    7      0.37      0.00
    7    9    7     -9.69      0.00
    8    9    7    -12.20      0.00
    1   10    7     -7.17      0.00
    2   10    7      6.03      0.00
    3   10    7      4.79      0.00
    4   10    7      0.70      0.00
    5   10    7      3.37      0.00
    6   10    7      5.35      0.00
    7   10    7      2.84      0.00
    8   10    7      6.18      0.00
    0   11    7      5.96      0.00
    1   11    7      1.89      0.00
    2   11    7      1.78      0.00
    3   11    7     -3.95      0.00
    4   11    7     11.24      0.00
    5   11    7      3.51      0.00
    6   11    7    -11.10      0.00
    7   11    7     -1.26      0.00
    8   11    7    -10.38      0.00
    1   12    7     -5.91      0.00
    2   12    7      1.51      0.00
    3   12    7      2.86      0.00
    4   12    7      8.50      0.00
    5   12    7      4.39      0.00
    6   12    7     -2.62      0.00
    8   12    7     18.62      0.00
    0   13    7     17.06      0.00
    1   13    7      1.02      0.00
    2   13    7      9.08      0.00
    3   13    7      3.74      0.00
    4   13    7     15.62      0.00
    5   13    7    -11.86      0.00
    6   13    7     20.84      0.00
    7   13    7     36.96      0.00
    1   14    7      6.70      0.00
    2   14    7    -40.09      0.00
    3   14    7      4.51      0.00
    4   14    7      4.00      0.00
    5   14    7     15.37      0.00
    6   14    7      1.06      0.00
    7   14    7     26.83      0.00
    0   15    7     -7.19      0.00
    1   15    7     -8.49      0.00
    2   15    7    -13.97      0.00
    3   15    7      3.66      0.00
    4   15    7      0.67      0.00
    5   15    7      1.38      0.00
    6   15    7    -17.47      0.00
    7   15    7     22.05      0.00
    1   16    7      3.86      0.00
    2   16    7      5.48      0.00
    3   16    7     -3.83      0.00
    4   16    7     28.53      0.00
    5   16    7    -14.63      0.00
    6   16    7      7.40      0.00
    7   16    7     22.68      0.00
    0   17    7     11.90      0.00
    1   17    7     -9.41      0.00
    2   17    7      8.44      0.00
    3   17    7     -3.06      0.00
    4   17    7     19.88      0.00
    5   17    7    -20.94      0.00
    6   17    7     24.11      0.00
    7   17    7      1.34      0.00
    1   18    7    -16.57      0.00
    2   18    7     -3.67      0.00
    3   18    7     14.16      0.00
    4   18    7    -17.10      0.00
    5   18    7     22.66      0.00
    6   18    7     13.33      0.00
    0   19    7    -25.35      0.00
    1   19    7     -4.17      0.00
    2   19    7      7.67      0.00
    3   19    7     16.50      0.00
    4   19    7     17.04      0.00
    5   19    7     22.03      0.00
    6   19    7      2.79      0.00
    1   20    7     -0.92      0.00
    2   20    7      5.27      0.00
    3   20    7     -2.94      0.00
    0    0    8    -51.01      0.00
    1    1    8    -13.76      0.00
    0    2    8     41.36      0.00
    1    2    8     56.50      0.00
    2    2    8     12.22      0.00
    1    3    8    -31.21      0.00
    2    3    8    -34.09      0.00
    3    3    8    -91.30      0.00
    0    4    8   -128.40      0.00
    1    4    8      7.44      0.00
    2    4    8     -9.39      0.00
    3    4    8      3.88      0.00
    4    4    8    -17.96      0.00
    1    5    8    -23.93      0.00
    2    5    8     19.73      0.00
    3    5    8     12.72      0.00
    4    5    8      0.99      0.00
    5    5    8     -7.11      0.00
    0    6    8     -1.00      0.00
    1    6    8     -2.08      0.00
    2    6    8     15.65      0.00
    3    6    8    -13.37      0.00
    4    6    8    -14.37      0.00
    5    6    8     -5.88      0.00
    6    6    8    -18.79      0.00
    1    7    8     -7.65      0.00
    2    7    8     -6.39      0.00
    3    7    8    -11.55      0.00
    4    7    8      1.23      0.00
    5    7    8      2.97      0.00
    6    7    8      7.62      0.00
    7    7    8     -8.51      0.00
    0    8    8     -1.16      0.00
    1    8    8    -11.33      0.00
    2    8    8      3.25      0.00
    3    8    8     -3.12      0.00
    4    8    8      3.97      0.00
    5    8    8      4.59      0.00
    6    8    8      6.26      0.00
    7    8    8     -3.69      0.00
    8    8    8      4.08      0.00
    1    9    8      1.70      0.00
    2    9    8    -11.23      0.00
    3    9    8      2.25      0.00
    4    9    8     -2.60      0.00
    5    9    8     12.18      0.00
    6    9    8     -3.34      0.00
    7    9    8     -2.51      0.00
    8    9    8     -4.48      0.00
    0   10    8    -13.41      0.00
    1   10    8     10.97      0.00
    2   10    8     -0.45      0.00
    3   10    8     -2.65      0.00
    4   10    8    -14.40      0.00
    5   10    8     -0.60      0.00
    6   10    8     -2.40      0.00
    7   10    8      6.07      0.00
    8   10    8     12.24      0.00
    1   11    8     -1.31      0.00
    2   11    8      6.80      0.00
    3   11    8     -5.17      0.00
    4   11    8     -4.76      0.00
    5   11    8      2.88      0.00
    6   11    8      7.41      0.00
    7   11    8      3.99      0.00
    8   11    8    -15.11      0.00
    0   12    8     -6.24      0.00
    1   12    8      3.02      0.00
    2   12    8     -2.91      0.00
    3   12    8     -6.23      0.00
    4   12    8    -13.65      0.00
    5   12    8     -3.44      0.00
    6   12    8      9.67      0.00
    7   12    8      2.27      0.00
    8   12    8     19.86      0.00
    1   13    8    -11.97      0.00
    2   13    8      0.93      0.00
    3   13    8      2.98      0.00
    4   13    8     24.80      0.00
    5   13    8    -31.60      0.00
    6   13    8     -6.10      0.00
    7   13    8    -20.80      0.00
    0   14    8    -36.06      0.00
    1   14    8      7.59      0.00
    2   14    8     12.47      0.00
    3   14    8      3.80      0.00
    4   14    8     -5.12      0.00
    5   14    8      1.77      0.00
    6   14    8     17.17      0.00
    7   14    8     -2.14      0.00
    1   15    8     -8.53      0.00
    2   15    8     -6.85      0.00
    3   15    8     -5.52      0.00
    4   15    8     42.28      0.00
    5   15    8     15.43      0.00
    6   15    8      6.73      0.00
    7   15    8    -16.82      0.00
    0   16    8      9.68      0.00
    1   16    8     19.78      0.00
    2   16    8    -13.94      0.00
    3   16    8    -17.72      0.00
    4   16    8      4.64      0.00
    5   16    8      9.17      0.00
    6   16    8    -10.84      0.00
    7   16    8     -2.53      0.00
    1   17    8     -7.75      0.00
    2   17    8      2.13      0.00
    3   17    8      3.40      0.00
    4   17    8     -1.54      0.00
    5   17    8      7.47      0.00
    6   17    8    -25.38      0.00
    7   17    8   -158.49      0.00
    0   18    8      0.14      0.00
    1   18    8     -1.03      0.00
    2   18    8     28.11      0.00
    3   18    8      2.58      0.00
    4   18    8   -110.98      0.00
    5   18    8      3.76      0.00
    6   18    8     33.79      0.00
    7   18    8     10.11      0.00
    1   19    8     -3.74      0.00
    2   19    8    -18.59      0.00
    3   19    8      6.02      0.00
    4   19    8    -10.36      0.00
    5   19    8    -12.63      0.00
    6   19    8    -41.69      0.00
    0   20    8    -11.65      0.00
    1   20    8     -0.33      0.00
    2   20    8    -21.35      0.00
    0    1    9    -10.23      0.00
    1    2    9     -1.29      0.00
    0    3    9      6.95      0.00
    1    3    9     -7.96      0.00
    2    3    9      5.97      0.00
    1    4    9     30.30      0.00
    2    4    9     23.36      0.00
    3    4    9     11.93      0.00
    0    5    9    -41.73      0.00
    1    5    9     -0.61      0.00
    2    5    9     -0.46      0.00
    3    5    9     10.57      0.00
    4    5    9     -3.68      0.00
    1    6    9     14.35      0.00
    2    6    9      1.17      0.00
    3    6    9    -12.95      0.00
    4    6    9     -4.68      0.00
    5    6    9     -7.76      0.00
    0    7    9     16.76      0.00
    1    7    9    -16.21      0.00
    2    7    9      2.93      0.00
    3    7    9     -1.82      0.00
    4    7    9     -9.20      0.00
    5    7    9      3.90      0.00
    6    7    9      2.45      0.00
    1    8    9     -4.57      0.00
    2    8    9     -7.32      0.00
    3    8    9      2.05      0.00
    4    8    9     -0.35      0.00
    5    8    9     13.69      0.00
    6    8    9      6.91      0.00
    7    8    9      1.52      0.00
    0    9    9     -0.27      0.00
    1    9    9      5.77      0.00
    2    9    9     -2.20      0.00
    3    9    9     15.70      0.00
    4    9    9      4.51      0.00
    5    9    9      2.47      0.00
    6    9    9    -14.34      0.00
    7    9    9    -15.28      0.00
    8    9    9      3.46      0.00
    1   10    9     -0.42      0.00
    2   10    9      4.70      0.00
    3   10    9      0.16      0.00
    4   10    9     -5.06      0.00
    5   10    9    -16.01      0.00
    6   10    9     11.15      0.00
    7   10    9    -10.97      0.00
    8   10    9     -1.06      0.00
    0   11    9     13.78      0.00
    1   11    9      5.55      0.00
    2   11    9      8.64      0.00
    3   11    9      1.95      0.00
    4   11    9      2.79      0.00
    5   11    9      2.19      0.00
    6   11    9      8.25      0.00
    7   11    9      0.27      0.00
    8   11    9    -12.64      0.00
    1   12    9     -0.07      0.00
    2   12    9      9.21      0.00
    3   12    9    -15.01      0.00
    4   12    9     13.72      0.00
    5   12    9     -8.09      0.00
    6   12    9     -8.37      0.00
    7   12    9      8.64      0.00
    9   12    9    -61.44      0.00
    0   13    9    -15.08      0.00
    1   13    9     -4.16      0.00
    2   13    9    -16.21      0.00
    3   13    9     15.17      0.00
    4   13    9    -29.95      0.00
    5   13    9      8.54      0.00
    6   13    9    -16.60      0.00
    7   13    9      7.77      0.00
    1   14    9      5.51      0.00
    2   14    9     16.73      0.00
    3   14    9      8.47      0.00
    4   14    9    -11.56      0.00
    5   14    9      7.86      0.00
    6   14    9      5.80      0.00
    7   14    9     15.46      0.00
    0   15    9    -18.92      0.00
    1   15    9     -5.91      0.00
    2   15    9     -6.46      0.00
    3   15    9      6.16      0.00
    4   15    9     -3.85      0.00
    5   15    9     -5.17      0.00
    6   15    9    -25.87      0.00
    7   15    9     -3.12      0.00
    1   16    9    -16.56      0.00
    2   16    9     11.77      0.00
    3   16    9     -3.37      0.00
    4   16    9     12.44      0.00
    5   16    9      2.64      0.00
    6   16    9      3.33      0.00
    7   16    9    -13.09      0.00
    0   17    9     -3.69      0.00
    1   17    9      8.05      0.00
    2   17    9     -1.26      0.00
    3   17    9     -4.63      0.00
    4   17    9     19.66      0.00
    5   17    9     -4.80      0.00
    6   17    9     48.12      0.00
    7   17    9     15.90      0.00
    1   18    9     -3.64      0.00
    2   18    9     -1.20      0.00
    3   18    9    -92.08      0.00
    4   18    9     -5.61      0.00
    5   18    9     27.66      0.00
    6   18    9      9.66      0.00
    7   18    9    -22.73      0.00
    0   19    9     -1.10      0.00
    1   19    9    -16.48      0.00
    2   19    9     -3.83      0.00
    3   19    9     -5.37      0.00
    4   19    9      6.97      0.00
    5   19    9     -4.64      0.00
    1   20    9      9.51      0.00
    2   20    9     -1.66      0.00
    0    0   10     64.11      0.00
    1    1   10    -38.04      0.00
    1    2   10      1.00      0.00
    2    2   10    -24.87      0.00
    1    3   10     -4.42      0.00
    2    3   10    -10.44      0.00
    3    3   10     -5.02      0.00
    0    4   10     14.52      0.00
    1    4   10      3.33      0.00
    2    4   10     43.73      0.00
    3    4   10      5.70      0.00
    4    4   10      9.40      0.00
    1    5   10     11.25      0.00
    2    5   10      9.68      0.00
    3    5   10     12.52      0.00
    4    5   10      7.09      0.00
    5    5   10      5.05      0.00
    0    6   10     14.30      0.00
    1    6   10    -12.98      0.00
    2    6   10     -2.42      0.00
    3    6   10    -16.33      0.00
    4    6   10     -1.51      0.00
    5    6   10     -2.11      0.00
    6    6   10    -10.48      0.00
    1    7   10     -8.34      0.00
    2    7   10     -5.87      0.00
    3    7   10     -5.04      0.00
    4    7   10      3.21      0.00
    5    7   10     11.36      0.00
    6    7   10     -3.51      0.00
    7    7   10      9.73      0.00
    0    8   10     -3.34      0.00
    1    8   10     -5.28      0.00
    2    8   10     -5.76      0.00
    3    8   10     10.73      0.00
    4    8   10     -0.85      0.00
    5    8   10      1.43      0.00
    6    8   10      6.89      0.00
    7    8   10    -12.58      0.00
    8    8   10     -2.81      0.00
    1    9   10     -1.75      0.00
    2    9   10      9.60      0.00
    3    9   10      4.03      0.00
    4    9   10     12.54      0.00
    5    9   10      3.83      0.00
    6    9   10     -0.53      0.00
    7    9   10     -3.31      0.00
    8    9   10     -5.71      0.00
    9    9   10      5.00      0.00
    0   10   10     10.86      0.00
    1   10   10      4.44      0.00
    2   10   10      2.91      0.00
    3   10   10      9.22      0.00
    4   10   10      1.57      0.00
    5   10   10     -9.11      0.00
    6   10   10     -0.22      0.00
    7   10   10      6.39      0.00
    8   10   10    -10.49      0.00
    1   11   10      4.10      0.00
    2   11   10     -6.17      0.00
    3   11   10     -0.27      0.00
    4   11   10      3.53      0.00
    5   11   10     -3.10      0.00
    6   11   10     -8.24      0.00
    7   11   10     -8.25      0.00
    9   11   10    -49.86      0.00
    0   12   10     14.34      0.00
    1   12   10     13.99      0.00
    2   12   10     -3.81      0.00
    3   12   10    -12.68      0.00
    4   12   10     10.29      0.00
    5   12   10    -17.89      0.00
    6   12   10     -8.91      0.00
    7   12   10     16.75      0.00
    8   12   10      4.47      0.00
    9   12   10     -5.10      0.00
    1   13   10     20.23      0.00
    2   13   10     -6.64      0.00
    3   13   10     -3.61      0.00
    4   13   10      2.74      0.00
    5   13   10     28.33      0.00
    6   13   10     -6.74      0.00
    7   13   10      0.72      0.00
    8   13   10     -8.51      0.00
    9   13   10     22.64      0.00
    0   14   10      5.81      0.00
    1   14   10     -1.76      0.00
    2   14   10      2.27      0.00
    3   14   10    -16.34      0.00
    4   14   10     11.43      0.00
    5   14   10     -8.40      0.00
    6   14   10     -1.80      0.00
    7   14   10      1.35      0.00
    8   14   10      5.06      0.00
    1   15   10     -3.34      0.00
    2   15   10     -4.16      0.00
    3   15   10     21.88      0.00
    4   15   10      3.83      0.00
    5   15   10     -6.84      0.00
    6   15   10     -0.45      0.00
    7   15   10      7.07      0.00
    8   15   10    -10.64      0.00
    0   16   10     46.26      0.00
    1   16   10     26.14      0.00
    2   16   10     -7.73      0.00
    3   16   10     -1.67      0.00
    4   16   10     -6.90      0.00
    5   16   10    -10.24      0.00
    6   16   10      1.82      0.00
    7   16   10     17.56      0.00
    1   17   10     -1.50      0.00
    2   17   10    -13.10      0.00
    3   17   10     29.32      0.00
    4   17   10      5.31      0.00
    5   17   10     20.64      0.00
    6   17   10    -42.80      0.00
    7   17   10     -9.76      0.00
    0   18   10    -21.47      0.00
    1   18   10     -2.99      0.00
    2   18   10     72.14      0.00
    3   18   10     -9.39      0.00
    4   18   10     -9.59      0.00
    5   18   10     36.75      0.00
    6   18   10     -4.01      0.00
    7   18   10     25.40      0.00
    1   19   10     -1.97      0.00
    2   19   10      4.61      0.00
    3   19   10     15.66      0.00
    4   19   10      0.97      0.00
    5   19   10     14.44      0.00
    1   20   10      3.74      0.00
    0    1   11      8.26      0.00
    1    2   11     46.70      0.00
    0    3   11    -24.84      0.00
    1    3   11     12.12      0.00
    2    3   11     -0.32      0.00
    1    4   11     -4.32      0.00
    2    4   11     -6.04      0.00
    3    4   11      1.94      0.00
    0    5   11      1.16      0.00
    1    5   11     -5.51      0.00
    2    5   11     37.16      0.00
    3    5   11     17.28      0.00
    4    5   11    -17.93      0.00
    1    6   11     10.89      0.00
    2    6   11     -6.44      0.00
    3    6   11      0.20      0.00
    4    6   11    -12.04      0.00
    5    6   11     -9.10      0.00
    0    7   11     -7.52      0.00
    1    7   11     -3.05      0.00
    2    7   11     -7.80      0.00
    3    7   11     -7.15      0.00
    4    7   11      9.24      0.00
    5    7   11     -6.87      0.00
    6    7   11      0.91      0.00
    1    8   11     -1.93      0.00
    2    8   11     -0.89      0.00
    3    8   11      3.57      0.00
    4    8   11     13.73      0.00
    5    8   11      9.83      0.00
    6    8   11     -2.63      0.00
    7    8   11      5.92      0.00
    0    9   11      6.00      0.00
    1    9   11      1.28      0.00
    2    9   11      4.72      0.00
    3    9   11      0.82      0.00
    4    9   11      1.84      0.00
    5    9   11     -1.22      0.00
    6    9   11     -0.58      0.00
    7    9   11      2.27      0.00
    8    9   11     12.21      0.00
    1   10   11      9.30      0.00
    2   10   11    -24.43      0.00
    3   10   11    -12.85      0.00
    4   10   11     -7.94      0.00
    5   10   11     -3.05      0.00
    6   10   11     -7.88      0.00
    7   10   11     -5.93      0.00
    8   10   11     -7.01      0.00
    9   10   11      4.66      0.00
    0   11   11     10.28      0.00
    1   11   11     -0.83      0.00
    2   11   11      7.83      0.00
    3   11   11      8.87      0.00
    4   11   11      8.12      0.00
    5   11   11     -3.39      0.00
    6   11   11     -0.27      0.00
    7   11   11      3.81      0.00
    9   11   11     -3.63      0.00
   10   11   11     -4.90      0.00
    1   12   11      5.30      0.00
    2   12   11     -9.14      0.00
    3   12   11     -0.86      0.00
    4   12   11      0.54      0.00
    5   12   11     -3.50      0.00
    6   12   11     -7.12      0.00
    7   12   11     10.78      0.00
    8   12   11     15.54      0.00
    9   12   11     10.58      0.00
   10   12   11      6.26      0.00
    0   13   11     -3.94      0.00
    1   13   11      9.43      0.00
    2   13   11    -14.63      0.00
    3   13   11    -45.24      0.00
    4   13   11      5.86      0.00
    5   13   11     10.52      0.00
    6   13   11      3.98      0.00
    7   13   11    -11.04      0.00
    8   13   11     -1.29      0.00
    9   13   11     16.77      0.00
   10   13   11    -11.67      0.00
    1   14   11     15.54      0.00
    2   14   11    -19.21      0.00
    3   14   11     17.96      0.00
    4   14   11     19.15      0.00
    5   14   11     15.51      0.00
    6   14   11     -0.34      0.00
    7   14   11    -12.45      0.00
    8   14   11    -30.37      0.00
    0   15   11    -10.16      0.00
    1   15   11     -3.74      0.00
    2   15   11      4.51      0.00
    3   15   11     -3.25      0.00
    4   15   11    -13.66      0.00
    5   15   11      1.15      0.00
    6   15   11     -5.52      0.00
    7   15   11     10.21      0.00
    8   15   11     -2.80      0.00
    1   16   11     -5.85      0.00
    2   16   11      7.06      0.00
    3   16   11     -5.99      0.00
    4   16   11     -8.63      0.00
    5   16   11    -20.47      0.00
    6   16   11     -9.63      0.00
    7   16   11    -22.67      0.00
    8   16   11   -122.46      0.00
    0   17   11     21.73      0.00
    1   17   11      7.70      0.00
    2   17   11     23.91      0.00
    3   17   11     -8.22      0.00
    4   17   11    -12.32      0.00
    5   17   11     -3.46      0.00
    6   17   11      2.88      0.00
    7   17   11    -15.77      0.00
    8   17   11     28.96      0.00
    1   18   11    -13.46      0.00
    2   18   11     -7.76      0.00
    3   18   11     -9.93      0.00
    4   18   11     28.67      0.00
    5   18   11    -63.09      0.00
    6   18   11     14.95      0.00
    7   18   11     32.01      0.00
    0   19   11      7.68      0.00
    1   19   11     -0.20      0.00
    2   19   11     19.73      0.00
    3   19   11      4.42      0.00
    4   19   11     24.94      0.00
    5   19   11    -15.08      0.00
    0    0   12     31.94      0.00
    1    1   12     -8.72      0.00
    0    2   12      0.09      0.00
    1    2   12     -8.66      0.00
    2    2   12     11.25      0.00
    1    3   12     -1.95      0.00
    2    3   12      7.56      0.00
    3    3   12    -14.49      0.00
    0    4   12      6.68      0.00
    1    4   12     -3.81      0.00
    2    4   12    -12.40      0.00
    4    4   12     12.27      0.00
    1    5   12    -17.20      0.00
    2    5   12      6.24      0.00
    3    5   12      9.85      0.00
    4    5   12     -7.91      0.00
    5    5   12      5.26      0.00
    0    6   12     -7.04      0.00
    1    6   12      6.41      0.00
    2    6   12     -3.07      0.00
    3    6   12     -8.91      0.00
    4    6   12      0.69      0.00
    5    6   12      0.78      0.00
    6    6   12     -8.02      0.00
    1    7   12     -1.46      0.00
    2    7   12      0.45      0.00
    3    7   12     -2.47      0.00
    4    7   12      6.82      0.00
    5    7   12     -4.78      0.00
    6    7   12     -0.42      0.00
    7    7   12     16.03      0.00
    0    8   12      0.62      0.00
    1    8   12     -2.49      0.00
    2    8   12     -1.22      0.00
    3    8   12      8.56      0.00
    4    8   12      8.24      0.00
    5    8   12      4.01      0.00
    6    8   12     -3.79      0.00
    7    8   12     -0.30      0.00
    8    8   12     -9.39      0.00
    1    9   12      6.13      0.00
    2    9   12      5.49      0.00
    3    9   12      4.55      0.00
    4    9   12     10.65      0.00
    5    9   12     -1.57      0.00
    6    9   12     -6.63      0.00
    7    9   12    -11.68      0.00
    8    9   12    -12.02      0.00
    9    9   12      3.16      0.00
    0   10   12      0.64      0.00
    1   10   12      9.29      0.00
    2   10   12     -8.40      0.00
    3   10   12    -22.30      0.00
    4   10   12     -3.24      0.00
    5   10   12     -1.67      0.00
    6   10   12      6.57      0.00
    7   10   12     -8.39      0.00
    8   10   12      8.52      0.00
    9   10   12      8.62      0.00
   10   10   12     22.83      0.00
    1   11   12     -0.95      0.00
    2   11   12    -12.56      0.00
    3   11   12     -3.32      0.00
    4   11   12     -7.36      0.00
    5   11   12     13.00      0.00
    6   11   12      3.39      0.00
    7   11   12     22.72      0.00
    8   11   12     36.46      0.00
    9   11   12     -8.64      0.00
   10   11   12     -0.67      0.00
    0   12   12     -7.39      0.00
    1   12   12      4.35      0.00
    2   12   12      5.83      0.00
    3   12   12     -3.81      0.00
    4   12   12      7.39      0.00
    5   12   12    -29.65      0.00
    7   12   12      3.11      0.00
    8   12   12    -11.88      0.00
    9   12   12    -11.00      0.00
   10   12   12     14.39      0.00
    1   13   12    -23.29      0.00
    2   13   12      6.97      0.00
    3   13   12     -0.80      0.00
    4   13   12      6.99      0.00
    5   13   12      8.33      0.00
    6   13   12      2.75      0.00
    7   13   12    -19.22      0.00
    8   13   12      2.06      0.00
    9   13   12     -4.53      0.00
   10   13   12     20.66      0.00
    0   14   12     -9.46      0.00
    1   14   12      0.25      0.00
    2   14   12     -4.25      0.00
    3   14   12     22.83      0.00
    4   14   12      0.35      0.00
    5   14   12    -11.91      0.00
    6   14   12    -19.10      0.00
    7   14   12     17.78      0.00
    8   14   12     21.53      0.00
    1   15   12      9.25      0.00
    2   15   12     -6.11      0.00
    3   15   12      7.43      0.00
    4   15   12    -43.31      0.00
    5   15   12     -6.43      0.00
    6   15   12     -4.35      0.00
    7   15   12     -5.30      0.00
    8   15   12     16.62      0.00
    0   16   12     19.99      0.00
    1   16   12      3.43      0.00
    2   16   12    -14.04      0.00
    3   16   12    -10.20      0.00
    4   16   12    -41.47      0.00
    5   16   12     13.49      0.00
    6   16   12     -9.06      0.00
    7   16   12     55.16      0.00
    8   16   12    -12.63      0.00
    1   17   12      0.84      0.00
    2   17   12      8.91      0.00
    3   17   12    -31.32      0.00
    4   17   12    -18.91      0.00
    5   17   12     90.33      0.00
    6   17   12     -8.20      0.00
    7   17   12    -16.80      0.00
    8   17   12     27.95      0.00
    0   18   12     25.48      0.00
    1   18   12     -9.18      0.00
    2   18   12     -5.38      0.00
    3   18   12      0.94      0.00
    4   18   12    -15.26      0.00
    5   18   12      2.45      0.00
    6   18   12     -1.30      0.00
    7   18   12     22.58      0.00
    8   18   12      9.83      0.00
    1   19   12     -7.01      0.00
    2   19   12      0.51      0.00
    3   19   12     -2.36      0.00
    4   19   12    -16.56      0.00
    0    1   13    -18.19      0.00
    1    2   13     -9.88      0.00
    0    3   13    -10.40      0.00
    1    3   13     -1.85      0.00
    2    3   13     -9.83      0.00
    1    4   13      3.57      0.00
    2    4   13     16.17      0.00
    3    4   13      3.27      0.00
    0    5   13     19.44      0.00
    1    5   13     -1.01      0.00
    2    5   13      6.62      0.00
    3    5   13      8.60      0.00
    4    5   13      1.54      0.00
    1    6   13    -10.38      0.00
    2    6   13     -1.59      0.00
    3    6   13      4.12      0.00
    4    6   13     -9.65      0.00
    5    6   13     -2.17      0.00
    0    7   13     -1.76      0.00
    1    7   13     -2.72      0.00
    2    7   13      3.16      0.00
    3    7   13     -1.56      0.00
    4    7   13     -0.19      0.00
    5    7   13     -2.83      0.00
    6    7   13      2.45      0.00
    1    8   13      1.11      0.00
    2    8   13     -1.58      0.00
    3    8   13      2.91      0.00
    4    8   13      2.70      0.00
    5    8   13     -2.79      0.00
    6    8   13      4.54      0.00
    7    8   13     -4.08      0.00
    0    9   13    -11.61      0.00
    1    9   13     -0.04      0.00
    2    9   13     -9.51      0.00
    3    9   13      7.27      0.00
    4    9   13     -1.59      0.00
    5    9   13      2.16      0.00
    6    9   13    -13.38      0.00
    7    9   13     11.10      0.00
    8    9   13     -5.62      0.00
    1   10   13     -6.95      0.00
    2   10   13      3.90      0.00
    3   10   13      9.44      0.00
    4   10   13     -5.11      0.00
    5   10   13      3.81      0.00
    6   10   13     -4.41      0.00
    7   10   13     -6.80      0.00
    8   10   13    -16.57      0.00
    9   10   13     -7.88      0.00
    0   11   13     -8.71      0.00
    1   11   13      6.59      0.00
    2   11   13     -3.80      0.00
    3   11   13      1.51      0.00
    4   11   13    -10.96      0.00
    5   11   13      2.36      0.00
    6   11   13     -3.52      0.00
    7   11   13      9.33      0.00
    8   11   13      2.23      0.00
    9   11   13    -32.60      0.00
   10   11   13      0.22      0.00
    1   12   13     -4.29      0.00
    2   12   13      3.09      0.00
    3   12   13    -13.65      0.00
    4   12   13     38.82      0.00
    5   12   13    -20.39      0.00
    6   12   13     13.74      0.00
    7   12   13     12.66      0.00
    8   12   13    -11.10      0.00
    9   12   13      3.51      0.00
   10   12   13      8.06      0.00
    0   13   13     -6.77      0.00
    1   13   13      2.08      0.00
    2   13   13     20.49      0.00
    3   13   13     -7.83      0.00
    4   13   13     -7.08      0.00
    5   13   13     18.82      0.00
    6   13   13      1.30      0.00
    7   13   13      8.92      0.00
    8   13   13     20.16      0.00
    9   13   13     -7.67      0.00
   10   13   13    -27.29      0.00
    1   14   13      7.54      0.00
    2   14   13      5.74      0.00
    3   14   13      9.71      0.00
    4   14   13     21.59      0.00
    5   14   13     26.12      0.00
    6   14   13    -37.77      0.00
    7   14   13     -9.15      0.00
    8   14   13    -31.55      0.00
    0   15   13     17.08      0.00
    1   15   13    -13.67      0.00
    2   15   13     -2.52      0.00
    3   15   13     62.33      0.00
    4   15   13      9.09      0.00
    5   15   13    -22.48      0.00
    6   15   13     31.75      0.00
    7   15   13     12.61      0.00
    8   15   13    -19.60      0.00
    1   16   13     -0.49      0.00
    2   16   13     -8.46      0.00
    3   16   13    -10.10      0.00
    4   16   13      6.91      0.00
    5   16   13      4.17      0.00
    6   16   13     17.29      0.00
    7   16   13     65.70      0.00
    8   16   13    -42.06      0.00
    0   17   13    -22.84      0.00
    1   17   13      7.55      0.00
    2   17   13    -31.64      0.00
    3   17   13    -16.66      0.00
    4   17   13    112.02      0.00
    5   17   13      8.83      0.00
    6   17   13    -21.94      0.00
    7   17   13     -4.60      0.00
    8   17   13    -15.85      0.00
    1   18   13    -10.14      0.00
    2   18   13     25.73      0.00
    3   18   13     -3.85      0.00
    4   18   13     27.35      0.00
    5   18   13    -27.62      0.00
    6   18   13     10.32      0.00
    7   18   13     -9.80      0.00
    8   18   13     -5.64      0.00
    0   19   13      7.35      0.00
    1   19   13     24.38      0.00
    2   19   13     -6.39      0.00
    3   19   13    -21.69      0.00
    0    0   14    -27.34      0.00
    1    1   14      5.66      0.00
    0    2   14    -10.62      0.00
    1    2   14     -3.27      0.00
    2    2   14    -17.74      0.00
    1    3   14    -15.51      0.00
    2    3   14     -2.86      0.00
    3    3   14     -3.67      0.00
    0    4   14      4.01      0.00
    1    4   14      6.57      0.00
    2    4   14     -3.49      0.00
    3    4   14     -4.57      0.00
    4    4   14     -2.20      0.00
    1    5   14      2.21      0.00
    2    5   14     -1.20      0.00
    3    5   14     -2.33      0.00
    4    5   14      0.01      0.00
    5    5   14     -1.30      0.00
    0    6   14     -6.62      0.00
    1    6   14      7.82      0.00
    2    6   14     -2.15      0.00
    3    6   14      1.57      0.00
    4    6   14     -6.34      0.00
    5    6   14      2.51      0.00
    6    6   14      1.91      0.00
    1    7   14      1.59      0.00
    2    7   14     -8.53      0.00
    3    7   14     -2.91      0.00
    4    7   14     -2.09      0.00
    5    7   14     -8.39      0.00
    6    7   14     -5.72      0.00
    7    7   14      1.50      0.00
    0    8   14     -9.47      0.00
    1    8   14      1.60      0.00
    2    8   14     -1.30      0.00
    3    8   14     -5.97      0.00
    4    8   14     12.03      0.00
    5    8   14     -8.33      0.00
    6    8   14     -1.21      0.00
    7    8   14     17.11      0.00
    1    9   14      5.98      0.00
    2    9   14      5.78      0.00
    3    9   14     -5.85      0.00
    4    9   14      2.90      0.00
    5    9   14     -4.89      0.00
    6    9   14      4.63      0.00
    7    9   14     -8.23      0.00
    8    9   14      1.66      0.00
    9    9   14      6.89      0.00
    0   10   14    -23.61      0.00
    1   10   14      5.42      0.00
    2   10   14      6.58      0.00
    3   10   14    -12.95      0.00
    4   10   14     -2.54      0.00
    5   10   14      3.04      0.00
    6   10   14     -4.21      0.00
    7   10   14      2.31      0.00
    8   10   14     -8.48      0.00
    9   10   14      7.99      0.00
   10   10   14     -7.51      0.00
    1   11   14      1.55      0.00
    2   11   14      5.17      0.00
    3   11   14    -11.76      0.00
    4   11   14     23.72      0.00
    5   11   14      3.48      0.00
    6   11   14     -1.38      0.00
    7   11   14     -2.43      0.00
    8   11   14      4.14      0.00
    9   11   14    -10.67      0.00
   10   11   14     -2.85      0.00
    0   12   14      5.13      0.00
    1   12   14      0.01      0.00
    2   12   14     -5.00      0.00
    3   12   14     20.33      0.00
    4   12   14    -11.91      0.00
    5   12   14      6.34      0.00
    6   12   14    -12.53      0.00
    7   12   14    -22.81      0.00
    8   12   14     -3.68      0.00
    9   12   14     13.55      0.00
   10   12   14    -15.54      0.00
    1   13   14     -1.27      0.00
    2   13   14     -8.13      0.00
    3   13   14     15.14      0.00
    4   13   14      6.69      0.00
    5   13   14      0.06      0.00
    6   13   14     -3.00      0.00
    7   13   14    -18.25      0.00
    8   13   14     -4.59      0.00
    9   13   14     -6.09      0.00
   10   13   14     25.30      0.00
    0   14   14     23.82      0.00
    1   14   14      7.25      0.00
    2   14   14     -6.96      0.00
    3   14   14     -9.30      0.00
    4   14   14    -16.15      0.00
    5   14   14     -0.06      0.00
    6   14   14      6.83      0.00
    7   14   14     12.89      0.00
    8   14   14     -6.32      0.00
    1   15   14    -12.12      0.00
    2   15   14      0.59      0.00
    3   15   14    -11.74      0.00
    4   15   14    -30.93      0.00
    5   15   14    -15.38      0.00
    6   15   14     24.68      0.00
    7   15   14    -10.73      0.00
    8   15   14    -39.42      0.00
    0   16   14      8.71      0.00
    1   16   14     -1.98      0.00
    2   16   14    -21.77      0.00
    3   16   14     -1.52      0.00
    4   16   14    -14.77      0.00
    5   16   14     11.60      0.00
    6   16   14    -19.60      0.00
    7   16   14     15.81      0.00
    8   16   14     23.28      0.00
    1   17   14    -24.54      0.00
    2   17   14     -7.04      0.00
    3   17   14     85.96      0.00
    4   17   14      0.33      0.00
    5   17   14     -8.51      0.00
    6   17   14     -7.33      0.00
    7   17   14      5.85      0.00
    8   17   14    -10.53      0.00
    0   18   14    -27.25      0.00
    1   18   14      8.31      0.00
    2   18   14     21.79      0.00
    3   18   14      3.51      0.00
    4   18   14    -26.81      0.00
    5   18   14    -11.79      0.00
    6   18   14    -10.46      0.00
    7   18   14     -5.04      0.00
    8   18   14    -11.53      0.00
    0    1   15      0.66      0.00
    1    2   15      5.44      0.00
    0    3   15    -11.68      0.00
    1    3   15     -3.79      0.00
    2    3   15     -4.63      0.00
    1    4   15     -4.67      0.00
    2    4   15     -9.25      0.00
    3    4   15    -11.01      0.00
    0    5   15      6.69      0.00
    1    5   15     -1.52      0.00
    2    5   15     -9.38      0.00
    3    5   15     -9.63      0.00
    4    5   15      4.29      0.00
    1    6   15    -10.31      0.00
    2    6   15      7.51      0.00
    3    6   15     -6.14      0.00
    4    6   15     -3.94      0.00
    5    6   15      4.71      0.00
    0    7   15      6.27      0.00
    1    7   15      0.05      0.00
    2    7   15      3.24      0.00
    3    7   15      2.88      0.00
    4    7   15     -9.75      0.00
    5    7   15     -2.74      0.00
    6    7   15     -1.41      0.00
    1    8   15      2.28      0.00
    2    8   15      1.82      0.00
    3    8   15      2.85      0.00
    4    8   15      5.08      0.00
    5    8   15      8.17      0.00
    6    8   15      7.22      0.00
    0    9   15      0.24      0.00
    1    9   15     -2.31      0.00
    2    9   15     11.49      0.00
    3    9   15     -4.30      0.00
    4    9   15     -6.22      0.00
    5    9   15     10.67      0.00
    6    9   15      1.17      0.00
    7    9   15    -11.94      0.00
    8    9   15     -0.62      0.00
    1   10   15      6.47      0.00
    2   10   15     -8.60      0.00
    3   10   15     17.22      0.00
    4   10   15      0.91      0.00
    5   10   15      8.50      0.00
    6   10   15     -8.17      0.00
    7   10   15      5.35      0.00
    8   10   15      4.91      0.00
    9   10   15      3.62      0.00
    0   11   15      6.24      0.00
    1   11   15      5.58      0.00
    2   11   15     -2.97      0.00
    3   11   15     -3.77      0.00
    4   11   15     -0.24      0.00
    5   11   15    -14.56      0.00
    6   11   15     16.62      0.00
    7   11   15      1.30      0.00
    8   11   15     25.85      0.00
    9   11   15      9.55      0.00
   10   11   15     -5.69      0.00
    1   12   15      3.42      0.00
    2   12   15    -26.80      0.00
    4   12   15     10.15      0.00
    5   12   15      1.96      0.00
    6   12   15     25.59      0.00
    7   12   15    -12.48      0.00
    8   12   15     -7.88      0.00
    9   12   15      7.02      0.00
   10   12   15     -1.32      0.00
   11   12   15    -14.36      0.00
    0   13   15     -1.07      0.00
    1   13   15    -15.76      0.00
    2   13   15     -7.99      0.00
    3   13   15     11.57      0.00
    4   13   15      1.92      0.00
    5   13   15    -10.08      0.00
    6   13   15     -0.58      0.00
    7   13   15     27.58      0.00
    8   13   15      1.50      0.00
    9   13   15     -0.98      0.00
   10   13   15      0.93      0.00
   11   13   15     -0.65      0.00
    1   14   15    -11.52      0.00
    2   14   15      2.66      0.00
    3   14   15    -11.15      0.00
    4   14   15    -14.22      0.00
    5   14   15      4.06      0.00
    6   14   15      6.12      0.00
    7   14   15     17.17      0.00
    8   14   15     13.68      0.00
    9   14   15     14.97      0.00
   10   14   15      3.75      0.00
   11   14   15      8.56      0.00
    0   15   15     -4.66      0.00
    1   15   15      9.12      0.00
    2   15   15     -8.63      0.00
    3   15   15     14.17      0.00
    4   15   15     -2.63      0.00
    5   15   15    -12.69      0.00
    6   15   15     -9.07      0.00
    7   15   15     -1.38      0.00
    1   16   15     19.09      0.00
    2   16   15     -4.44      0.00
    3   16   15    -10.28      0.00
    4   16   15      4.47      0.00
    5   16   15    -18.52      0.00
    6   16   15    -13.52      0.00
    7   16   15     -1.95      0.00
    0   17   15     33.76      0.00
    1   17   15     -8.00      0.00
    2   17   15    -26.56      0.00
    3   17   15    -14.10      0.00
    4   17   15    -21.21      0.00
    5   17   15     10.32      0.00
    6   17   15     -6.89      0.00
    7   17   15    -25.52      0.00
    1   18   15     15.82      0.00
    2   18   15    -19.19      0.00
    3   18   15    -30.04      0.00
    4   18   15     -9.29      0.00
    5   18   15     -1.47      0.00
    6   18   15     26.56      0.00
    7   18   15    -10.32      0.00
    0    0   16    -12.49      0.00
    1    1   16      8.88      0.00
    0    2   16      3.55      0.00
    1    2   16     -5.99      0.00
    2    2   16     42.29      0.00
    1    3   16     15.29      0.00
    2    3   16     -5.05      0.00
    3    3   16      1.42      0.00
    0    4   16     10.97      0.00
    1    4   16    -17.66      0.00
    2    4   16     -7.32      0.00
    3    4   16      4.64      0.00
    4    4   16      9.65      0.00
    1    5   16      1.94      0.00
    2    5   16     12.86      0.00
    3    5   16     -0.09      0.00
    4    5   16     -2.18      0.00
    5    5   16     12.06      0.00
    0    6   16     13.41      0.00
    1    6   16      1.70      0.00
    2    6   16     -6.78      0.00
    3    6   16      5.21      0.00
    4    6   16     -1.21      0.00
    5    6   16     -9.20      0.00
    6    6   16     -7.89      0.00
    1    7   16      3.49      0.00
    2    7   16      9.36      0.00
    3    7   16      9.92      0.00
    4    7   16     -5.00      0.00
    5    7   16      0.12      0.00
    6    7   16     10.55      0.00
    0    8   16     12.35      0.00
    1    8   16      7.72      0.00
    2    8   16      5.77      0.00
    3    8   16     -5.72      0.00
    4    8   16      9.24      0.00
    5    8   16      8.94      0.00
    7    8   16      4.25      0.00
    8    8   16     -5.93      0.00
    1    9   16     -2.35      0.00
    2    9   16      3.31      0.00
    3    9   16     -4.13      0.00
    4    9   16    -13.30      0.00
    5    9   16    -29.03      0.00
    6    9   16    -13.03      0.00
    7    9   16    -20.60      0.00
    8    9   16      2.05      0.00
    9    9   16    -14.25      0.00
    0   10   16     -2.14      0.00
    1   10   16    -19.56      0.00
    2   10   16    -11.50      0.00
    3   10   16    -16.49      0.00
    4   10   16      2.69      0.00
    5   10   16      1.19      0.00
    6   10   16      8.54      0.00
    7   10   16      7.37      0.00
    8   10   16      5.57      0.00
    9   10   16     16.32      0.00
   10   10   16     20.93      0.00
    1   11   16      4.84      0.00
    2   11   16    -13.38      0.00
    3   11   16     12.99      0.00
    4   11   16      3.72      0.00
    5   11   16      6.00      0.00
    6   11   16      3.99      0.00
    7   11   16     24.62      0.00
    8   11   16     -1.37      0.00
    9   11   16     10.49      0.00
   10   11   16     -3.19      0.00
   11   11   16     10.13      0.00
    0   12   16     23.79      0.00
    1   12   16     16.93      0.00
    2   12   16     10.15      0.00
    3   12   16      5.43      0.00
    4   12   16      0.38      0.00
    5   12   16    -12.49      0.00
    6   12   16     14.15      0.00
    7   12   16     10.21      0.00
    8   12   16    -18.50      0.00
    9   12   16     -9.27      0.00
   10   12   16     -9.71      0.00
   11   12   16      9.68      0.00
    1   13   16     10.55      0.00
    2   13   16     28.33      0.00
    3   13   16     -4.72      0.00
    4   13   16     -7.67      0.00
    5   13   16     -3.27      0.00
    6   13   16    -65.95      0.00
    7   13   16      4.38      0.00
    8   13   16     -9.77      0.00
    9   13   16      6.30      0.00
   10   13   16      6.39      0.00
   11   13   16     -0.04      0.00
    0   14   16     14.09      0.00
    1   14   16     -4.20      0.00
    2   14   16     -1.95      0.00
    3   14   16    -53.04      0.00
    4   14   16      4.64      0.00
    5   14   16      1.93      0.00
    6   14   16    -10.62      0.00
    7   14   16      9.57      0.00
    8   14   16      8.27      0.00
    9   14   16    -29.31      0.00
   10   14   16      7.92      0.00
   11   14   16     -2.00      0.00
    1   15   16      3.07      0.00
    2   15   16      8.63      0.00
    3   15   16     10.23      0.00
    4   15   16     12.98      0.00
    5   15   16     -5.17      0.00
    6   15   16     23.49      0.00
    0   16   16     -1.01      0.00
    1   16   16     -7.55      0.00
    2   16   16     -1.23      0.00
    3   16   16      4.93      0.00
    4   16   16    -18.87      0.00
    5   16   16     -2.92      0.00
    6   16   16     -6.88      0.00
    1   17   16      6.47      0.00
    2   17   16      9.63      0.00
    3   17   16    -15.50      0.00
    4   17   16    -13.48      0.00
    5   17   16      3.77      0.00
    6   17   16     -5.20      0.00
    0   18   16    -20.91      0.00
    1   18   16      1.14      0.00
    2   18   16     -7.85      0.00
    3   18   16     20.68      0.00
    4   18   16     -7.34      0.00
    5   18   16     23.23      0.00
    6   18   16     28.97      0.00
    0    1   17     10.09      0.00
    1    2   17      6.72      0.00
    0    3   17     -6.61      0.00
    1    3   17    -11.60      0.00
    2    3   17      3.87      0.00
    1    4   17     14.69      0.00
    2    4   17     -3.40      0.00
    3    4   17     11.88      0.00
    0    5   17      2.56      0.00
    1    5   17     -1.20      0.00
    2    5   17     -8.82      0.00
    3    5   17      4.52      0.00
    4    5   17      9.87      0.00
    1    6   17     -6.31      0.00
    2    6   17     10.54      0.00
    3    6   17     -2.36      0.00
    4    6   17     14.21      0.00
    5    6   17     -3.72      0.00
    0    7   17     20.35      0.00
    1    7   17     -2.81      0.00
    2    7   17    -10.09      0.00
    3    7   17     -5.11      0.00
    4    7   17      2.18      0.00
    5    7   17     -2.41      0.00
    1    8   17     -7.61      0.00
    2    8   17     -2.47      0.00
    3    8   17    -11.65      0.00
    4    8   17     -9.13      0.00
    6    8   17     -9.75      0.00
    7    8   17      1.22      0.00
    0    9   17      9.63      0.00
    1    9   17      5.61      0.00
    2    9   17     -6.62      0.00
    3    9   17     11.64      0.00
    4    9   17     -6.08      0.00
    5    9   17     -7.62      0.00
    6    9   17     -0.33      0.00
    7    9   17     -1.81      0.00
    8    9   17      8.40      0.00
    1   10   17      7.05      0.00
    2   10   17     -8.46      0.00
    3   10   17      3.48      0.00
    4   10   17      4.46      0.00
    5   10   17     -9.89      0.00
    6   10   17      1.89      0.00
    7   10   17      9.96      0.00
    8   10   17      1.39      0.00
    9   10   17     -9.55      0.00
    0   11   17    -61.28      0.00
    1   11   17     60.94      0.00
    2   11   17      3.98      0.00
    3   11   17     -1.47      0.00
    4   11   17      2.72      0.00
    5   11   17      1.72      0.00
    6   11   17      6.41      0.00
    7   11   17     -5.74      0.00
    8   11   17    -11.08      0.00
    9   11   17    -15.49      0.00
   10   11   17     -3.49      0.00
    1   12   17    -14.16      0.00
    2   12   17    -11.96      0.00
    3   12   17     -5.90      0.00
    4   12   17     -0.03      0.00
    5   12   17     -0.18      0.00
    6   12   17     -5.92      0.00
    7   12   17    -73.08      0.00
    8   12   17     -1.19      0.00
    9   12   17     11.26      0.00
   10   12   17     -4.92      0.00
   11   12   17     22.54      0.00
    0   13   17    -16.37      0.00
    1   13   17      7.07      0.00
    2   13   17     16.41      0.00
    3   13   17     14.27      0.00
    4   13   17      1.56      0.00
    5   13   17    -46.60      0.00
    6   13   17     10.51      0.00
    7   13   17      0.03      0.00
    8   13   17      2.45      0.00
    9   13   17      9.84      0.00
   10   13   17     -0.03      0.00
   11   13   17    -19.51      0.00
    1   14   17      8.33      0.00
    2   14   17     -3.00      0.00
    3   14   17     -7.37      0.00
    4   14   17     11.74      0.00
    5   14   17      8.90      0.00
    6   14   17     23.87      0.00
    7   14   17      7.06      0.00
    8   14   17      5.10      0.00
    9   14   17      7.98      0.00
   10   14   17     10.53      0.00
   11   14   17      0.28      0.00
    0   15   17    -23.27      0.00
    1   15   17    -13.17      0.00
    2   15   17      7.20      0.00
    3   15   17     15.37      0.00
    4   15   17     -7.52      0.00
    5   15   17      5.90      0.00
    1   16   17    -21.39      0.00
    2   16   17     -7.31      0.00
    3   16   17    106.50      0.00
    4   16   17     -8.44      0.00
    5   16   17     22.60      0.00
    0   17   17     14.45      0.00
    1   17   17     25.03      0.00
    2   17   17     -7.77      0.00
    3   17   17     -6.35      0.00
    4   17   17     33.31      0.00
    5   17   17     -5.19      0.00
    1   18   17     14.76      0.00
    2   18   17    -17.56      0.00
    3   18   17      8.38      0.00
    4   18   17     -4.24      0.00
    5   18   17    -21.07      0.00
    1    1   18     -7.50      0.00
    0    2   18     -7.46      0.00
    1    2   18     -0.37      0.00
    2    2   18      8.74      0.00
    1    3   18    -12.96      0.00
    2    3   18     -4.97      0.00
    3    3   18      0.22      0.00
    0    4   18      7.17      0.00
    1    4   18      6.48      0.00
    2    4   18    -11.23      0.00
    3    4   18     -9.13      0.00
    4    4   18      5.77      0.00
    1    5   18      5.52      0.00
    2    5   18     -3.12      0.00
    3    5   18      8.71      0.00
    4    5   18     12.00      0.00
    5    5   18      3.25      0.00
    0    6   18    -10.66      0.00
    1    6   18    -12.54      0.00
    2    6   18     16.77      0.00
    3    6   18     -4.99      0.00
    4    6   18     -3.77      0.00
    5    6   18    -18.69      0.00
    1    7   18      1.17      0.00
    2    7   18     -9.54      0.00
    3    7   18      1.36      0.00
    4    7   18     -2.83      0.00
    6    7   18      9.22      0.00
    7    7   18      8.28      0.00
    0    8   18      0.24      0.00
    1    8   18      3.30      0.00
    2    8   18     -0.88      0.00
    3    8   18     14.19      0.00
    4    8   18      0.36      0.00
    5    8   18     32.95      0.00
    6    8   18     24.53      0.00
    7    8   18    -16.25      0.00
    8    8   18     17.45      0.00
    1    9   18     -1.70      0.00
    2    9   18      2.45      0.00
    3    9   18     -1.68      0.00
    4    9   18     16.07      0.00
    5    9   18    -22.88      0.00
    6    9   18     -7.03      0.00
    7    9   18     -1.87      0.00
    8    9   18      5.61      0.00
    9    9   18    -10.04      0.00
    0   10   18     10.58      0.00
    1   10   18     -5.68      0.00
    2   10   18     -6.42      0.00
    3   10   18    -13.37      0.00
    4   10   18     -5.23      0.00
    5   10   18     -4.68      0.00
    6   10   18      4.50      0.00
    7   10   18     -2.39      0.00
    8   10   18     -8.40      0.00
    9   10   18     18.79      0.00
   10   10   18     -6.24      0.00
    1   11   18     -2.68      0.00
    2   11   18    -18.13      0.00
    3   11   18     -0.86      0.00
    4   11   18      0.07      0.00
    5   11   18      9.73      0.00
    6   11   18     -5.21      0.00
    7   11   18      3.35      0.00
    8   11   18     -3.80      0.00
    9   11   18      9.70      0.00
   10   11   18    -10.46      0.00
   11   11   18    -14.62      0.00
    0   12   18     35.25      0.00
    1   12   18    -11.40      0.00
    2   12   18     -4.94      0.00
    3   12   18      1.02      0.00
    4   12   18     13.57      0.00
    5   12   18     21.83      0.00
    6   12   18     -4.96      0.00
    7   12   18     11.32      0.00
    8   12   18    -10.30      0.00
    9   12   18     -9.09      0.00
   10   12   18    -16.96      0.00
   11   12   18     18.88      0.00
    1   13   18     -2.85      0.00
    2   13   18     -2.20      0.00
    3   13   18      0.35      0.00
    4   13   18     22.10      0.00
    5   13   18      1.15      0.00
    6   13   18      0.25      0.00
    7   13   18      8.14      0.00
    8   13   18     -3.27      0.00
    9   13   18      4.38      0.00
   10   13   18      8.39      0.00
   11   13   18     -3.05      0.00
    0   14   18      0.16      0.00
    1   14   18    -21.04      0.00
    2   14   18    -13.67      0.00
    3   14   18    -29.13      0.00
    4   14   18     17.48      0.00
    5   14   18     15.68      0.00
    6   14   18     14.61      0.00
    7   14   18     -2.39      0.00
    8   14   18      9.78      0.00
    9   14   18      2.84      0.00
   10   14   18    -11.61      0.00
   11   14   18     -3.63      0.00
    1   15   18      9.96      0.00
    2   15   18      2.10      0.00
    3   15   18      6.04      0.00
    4   15   18      6.57      0.00
    0   16   18     16.94      0.00
    1   16   18     -7.38      0.00
    2   16   18     -2.50      0.00
    3   16   18     -5.84      0.00
    4   16   18      1.73      0.00
    1   17   18      7.55      0.00
    2   17   18     -3.91      0.00
    3   17   18    -12.36      0.00
    4   17   18     -0.51      0.00
    0   18   18    -23.51      0.00
    1   18   18     -3.83      0.00
    2   18   18      1.90      0.00
    3   18   18     13.60      0.00
    4   18   18    -17.52      0.00
    0    1   19     -1.16      0.00
    1    2   19     -1.93      0.00
    0    3   19    -11.49      0.00
    1    3   19      5.24      0.00
    2    3   19     -2.49      0.00
    1    4   19     -1.38      0.00
    2    4   19      7.94      0.00
    3    4   19    -11.79      0.00
    0    5   19    -23.03      0.00
    1    5   19    -15.09      0.00
    2    5   19     -4.15      0.00
    3    5   19     -1.45      0.00
    4    5   19     -5.02      0.00
    1    6   19      8.23      0.00
    2    6   19     -1.45      0.00
    3    6   19     -8.24      0.00
    4    6   19      7.80      0.00
    0    7   19     -0.17      0.00
    1    7   19     -7.74      0.00
    2    7   19     -9.63      0.00
    3    7   19     -6.02      0.00
    4    7   19      8.04      0.00
    5    7   19      2.95      0.00
    6    7   19      0.64      0.00
    1    8   19     -2.87      0.00
    2    8   19      3.63      0.00
    3    8   19     -0.62      0.00
    4    8   19    -33.47      0.00
    5    8   19      7.09      0.00
    6    8   19     -8.45      0.00
    7    8   19      1.73      0.00
    0    9   19    -16.67      0.00
    1    9   19      1.65      0.00
    2    9   19     -4.96      0.00
    3    9   19      7.03      0.00
    4    9   19     24.92      0.00
    5    9   19     -4.46      0.00
    6    9   19     -9.97      0.00
    7    9   19     -0.34      0.00
    8    9   19    -22.07      0.00
    1   10   19     13.32      0.00
    2   10   19     14.95      0.00
    3   10   19     -5.34      0.00
    4   10   19      4.88      0.00
    5   10   19      0.94      0.00
    6   10   19     -5.48      0.00
    7   10   19     11.93      0.00
    8   10   19     -6.78      0.00
    9   10   19      0.23      0.00
    0   11   19     11.82      0.00
    1   11   19     17.32      0.00
    2   11   19      1.26      0.00
    3   11   19      7.08      0.00
    4   11   19      3.25      0.00
    5   11   19      9.05      0.00
    6   11   19     -2.35      0.00
    7   11   19     24.70      0.00
    8   11   19      7.58      0.00
    9   11   19     -3.88      0.00
   10   11   19      2.43      0.00
    1   12   19      1.10      0.00
    2   12   19    -21.19      0.00
    3   12   19     -5.57      0.00
    4   12   19    -11.79      0.00
    5   12   19    -15.98      0.00
    6   12   19     15.61      0.00
    7   12   19     -7.01      0.00
    8   12   19     10.90      0.00
    9   12   19     -1.67      0.00
   10   12   19     22.48      0.00
   11   12   19     -5.78      0.00
    0   13   19    -47.38      0.00
    1   13   19     21.03      0.00
    2   13   19     23.78      0.00
    3   13   19    -11.53      0.00
    4   13   19      0.19      0.00
    5   13   19     -4.39      0.00
    6   13   19      8.44      0.00
    7   13   19     -6.73      0.00
    8   13   19     16.54      0.00
    9   13   19    -12.00      0.00
   10   13   19     -6.25      0.00
   11   13   19      1.47      0.00
   12   13   19     -6.74      0.00
    1   14   19     -0.32      0.00
    2   14   19     19.37      0.00
    3   14   19    -11.62      0.00
    4   14   19     16.72      0.00
    5   14   19    -13.59      0.00
    6   14   19      3.97      0.00
    7   14   19      3.40      0.00
    8   14   19     10.01      0.00
    9   14   19      7.29      0.00
   10   14   19     15.96      0.00
   11   14   19      7.27      0.00
    0   15   19     14.25      0.00
    1   15   19     -2.27      0.00
    2   15   19     -5.65      0.00
    1   16   19    -14.09      0.00
    2   16   19      7.92      0.00
    3   16   19    -46.49      0.00
    0   17   19     -0.86      0.00
    1   17   19     -6.95      0.00
    2   17   19    -12.25      0.00
    3   17   19     -3.16      0.00
    1   18   19      2.16      0.00
    2   18   19      4.32      0.00
    3   18   19      7.75      0.00
    1    1   20      8.03      0.00
    0    2   20     -2.97      0.00
    1    2   20      1.10      0.00
    2    2   20     -0.38      0.00
    1    3   20     -7.15      0.00
    2    3   20    -20.73      0.00
    3    3   20     12.70      0.00
    0    4   20      9.85      0.00
    1    4   20     17.53      0.00
    2    4   20     -6.27      0.00
    3    4   20      3.22      0.00
    4    4   20     18.25      0.00
    1    5   20      3.65      0.00
    2    5   20     10.77      0.00
    3    5   20     -9.53      0.00
    4    5   20      6.48      0.00
    0    6   20     11.51      0.00
    1    6   20      0.99      0.00
    2    6   20     -6.12      0.00
    3    6   20     -6.17      0.00
    5    6   20      9.79      0.00
    6    6   20      8.74      0.00
    1    7   20      3.48      0.00
    2    7   20     -9.37      0.00
    3    7   20      1.77      0.00
    4    7   20      9.38      0.00
    5    7   20      9.92      0.00
    6    7   20     15.73      0.00
    0    8   20      4.71      0.00
    1    8   20      9.25      0.00
    2    8   20      3.69      0.00
    3    8   20      3.92      0.00
    4    8   20      0.69      0.00
    5    8   20    -11.42      0.00
    6    8   20     -3.32      0.00
    7    8   20     12.02      0.00
    8    8   20    -13.58      0.00
    1    9   20     14.27      0.00
    2    9   20    -12.75      0.00
    3    9   20      0.07      0.00
    4    9   20     -3.69      0.00
    5    9   20     -1.48      0.00
    6    9   20      7.59      0.00
    7    9   20    -12.33      0.00
    8    9   20      6.50      0.00
    9    9   20     19.83      0.00
    0   10   20      5.10      0.00
    1   10   20     15.53      0.00
    2   10   20      6.29      0.00
    3   10   20     -0.46      0.00
    4   10   20    -10.10      0.00
    5   10   20    -11.48      0.00
    6   10   20     11.29      0.00
    7   10   20     -8.08      0.00
    8   10   20      2.54      0.00
    9   10   20     12.12      0.00
   10   10   20     23.55      0.00
    1   11   20      4.07      0.00
    2   11   20     -0.83      0.00
    3   11   20     -6.04      0.00
    4   11   20      7.93      0.00
    5   11   20     -6.02      0.00
    6   11   20     19.89      0.00
    7   11   20      8.39      0.00
    8   11   20     -5.99      0.00
    9   11   20      7.87      0.00
   10   11   20    -11.16      0.00
   11   11   20     -6.01      0.00
    0   12   20    -23.32      0.00
    1   12   20     27.51      0.00
    2   12   20     11.20      0.00
    3   12   20      1.86      0.00
    4   12   20     -5.48      0.00
    5   12   20     -9.74      0.00
    6   12   20    -13.68      0.00
    7   12   20      3.27      0.00
    8   12   20      6.92      0.00
    9   12   20    -14.92      0.00
   10   12   20      0.81      0.00
   11   12   20     -0.51      0.00
   12   12   20     16.76      0.00
    1   13   20     -6.22      0.00
    2   13   20      7.03      0.00
    3   13   20      1.31      0.00
    4   13   20      5.04      0.00
    5   13   20    -12.90      0.00
    6   13   20     -8.39      0.00
    7   13   20     18.45      0.00
    8   13   20      5.00      0.00
    9   13   20      1.43      0.00
   10   13   20      1.88      0.00
   11   13   20     15.00      0.00
    0   14   20    -20.23      0.00
    1   14   20    -23.53      0.00
    2   14   20     -1.50      0.00
    3   14   20     22.03      0.00
    4   14   20     -9.22      0.00
    5   14   20      5.14      0.00
    6   14   20      8.07      0.00
    7   14   20      5.40      0.00
    8   14   20    -17.16      0.00
    9   14   20     -6.70      0.00
   10   14   20     -3.69      0.00
    1   15   20     12.13      0.00
    8   15   20      5.74      0.00
    9   15   20      3.31      0.00
   10   15   20     -5.00      0.00
    0   16   20      8.08      0.00
    1   16   20      0.60      0.00
    1   17   20     -3.42      0.00
    0    1   21      9.69      0.00
    1    2   21      1.65      0.00
    0    3   21    -12.41      0.00
    1    3   21      9.44      0.00
    2    3   21     -0.83      0.00
    1    4   21      4.22      0.00
    2    4   21      6.18      0.00
    3    4   21     14.66      0.00
    0    5   21      2.00      0.00
    1    5   21      2.11      0.00
    2    5   21      7.52      0.00
    3    5   21      6.01      0.00
    1    6   21      9.00      0.00
    2    6   21    -15.15      0.00
    3    6   21     -2.55      0.00
    4    6   21      3.66      0.00
    5    6   21    -11.43      0.00
    0    7   21     -8.52      0.00
    1    7   21      1.77      0.00
    2    7   21    -12.47      0.00
    3    7   21      1.43      0.00
    4    7   21      5.40      0.00
    5    7   21      8.47      0.00
    6    7   21     20.49      0.00
    1    8   21      6.40      0.00
    2    8   21     12.64      0.00
    3    8   21      2.37      0.00
    4    8   21     14.39      0.00
    5    8   21     -0.33      0.00
    6    8   21    -10.96      0.00
    7    8   21     -0.51      0.00
    0    9   21    -45.46      0.00
    1    9   21      6.97      0.00
    2    9   21     13.59      0.00
    3    9   21     -4.83      0.00
    4    9   21     -4.37      0.00
    5    9   21     11.68      0.00
    6    9   21     -6.05      0.00
    7    9   21      9.86      0.00
    8    9   21     14.75      0.00
    1   10   21     -4.09      0.00
    2   10   21     -3.55      0.00
    3   10   21    -10.78      0.00
    4   10   21      5.77      0.00
    5   10   21      5.42      0.00
    6   10   21     -7.83      0.00
    7   10   21     19.31      0.00
    8   10   21     -3.86      0.00
    9   10   21      5.86      0.00
    0   11   21     -3.18      0.00
    1   11   21    -13.09      0.00
    2   11   21     -4.43      0.00
    3   11   21     -0.83      0.00
    4   11   21      9.04      0.00
    5   11   21     -5.19      0.00
    6   11   21     -9.82      0.00
    7   11   21      4.17      0.00
    8   11   21      9.60      0.00
    9   11   21     -5.26      0.00
   10   11   21     12.96      0.00
    1   12   21     -1.27      0.00
    2   12   21    -20.59      0.00
    3   12   21     -3.38      0.00
    4   12   21     -0.43      0.00
    5   12   21      7.71      0.00
    6   12   21     -8.78      0.00
    7   12   21      3.14      0.00
    8   12   21      0.03      0.00
    9   12   21     11.95      0.00
   10   12   21     -7.87      0.00
   11   12   21     -6.83      0.00
    0   13   21     22.76      0.00
    1   13   21     -7.60      0.00
    2   13   21     13.20      0.00
    3   13   21     -1.03      0.00
    4   13   21      6.20      0.00
    5   13   21     12.67      0.00
    6   13   21      5.48      0.00
    7   13   21    -34.47      0.00
    8   13   21     -5.86      0.00
    9   13   21     -3.09      0.00
   10   13   21     -3.67      0.00
   11   13   21     -2.39      0.00
    1   14   21     -8.71      0.00
    2   14   21      1.02      0.00
    3   14   21    -18.32      0.00
    4   14   21      3.57      0.00
    5   14   21      3.90      0.00
    6   14   21    -11.06      0.00
    7   14   21    -13.54      0.00
    8   14   21      6.46      0.00
    9   14   21      8.21      0.00
   10   14   21     15.51      0.00
    0   15   21     21.32      0.00
    1   15   21     42.55      0.00
    6   15   21      2.26      0.00
    7   15   21      4.72      0.00
    8   15   21     11.71      0.00
    9   15   21     28.08      0.00
    1   16   21      1.90      0.00
    0   17   21    -13.41      0.00
    1   17   21    -14.83      0.00
    1    1   22      0.53      0.00
    0    2   22     -3.90      0.00
    1    2   22     -0.37      0.00
    2    2   22      1.42      0.00
    1    3   22     -9.55      0.00
    2    3   22      1.13      0.00
    3    3   22     -2.20      0.00
    0    4   22      2.05      0.00
    1    4   22     18.09      0.00
    2    4   22      0.99      0.00
    3    4   22      2.98      0.00
    4    4   22      7.84      0.00
    1    5   22      1.79      0.00
    2    5   22      1.96      0.00
    3    5   22      3.72      0.00
    4    5   22    -15.36      0.00
    5    5   22     -9.17      0.00
    0    6   22      3.57      0.00
    1    6   22    -22.84      0.00
    2    6   22     10.63      0.00
    3    6   22    -16.29      0.00
    4    6   22     13.81      0.00
    5    6   22      8.41      0.00
    6    6   22    -11.46      0.00
    1    7   22    -18.40      0.00
    2    7   22     12.85      0.00
    3    7   22    -19.11      0.00
    4    7   22    -20.79      0.00
    5    7   22     -4.01      0.00
    6    7   22      9.00      0.00
    7    7   22     15.11      0.00
    0    8   22    -13.44      0.00
    1    8   22      6.76      0.00
    2    8   22     -5.23      0.00
    3    8   22      0.75      0.00
    4    8   22     -6.99      0.00
    5    8   22      7.14      0.00
    6    8   22     23.54      0.00
    7    8   22     -0.38      0.00
    8    8   22     -4.13      0.00
    1    9   22      7.97      0.00
    2    9   22     -1.40      0.00
    3    9   22      9.91      0.00
    4    9   22     -7.26      0.00
    5    9   22    -25.97      0.00
    6    9   22      8.56      0.00
    7    9   22    -13.18      0.00
    8    9   22     -5.64      0.00
    9    9   22     -5.29      0.00
    0   10   22      6.75      0.00
    1   10   22    -11.09      0.00
    2   10   22     -6.30      0.00
    3   10   22     -1.07      0.00
    4   10   22     -0.22      0.00
    5   10   22    -17.70      0.00
    6   10   22     -6.19      0.00
    7   10   22     -1.69      0.00
    8   10   22      8.74      0.00
    9   10   22     -9.70      0.00
   10   10   22    -46.76      0.00
    1   11   22      5.23      0.00
    2   11   22    -11.06      0.00
    3   11   22      6.09      0.00
    4   11   22      3.99      0.00
    5   11   22     -2.91      0.00
    6   11   22      8.99      0.00
    7   11   22     -8.26      0.00
    8   11   22     -5.15      0.00
    9   11   22    -63.02      0.00
   10   11   22      5.15      0.00
   11   11   22      6.35      0.00
    0   12   22     -0.10      0.00
    1   12   22     10.67      0.00
    2   12   22     -2.00      0.00
    3   12   22     -2.48      0.00
    4   12   22      0.24      0.00
    5   12   22    -18.75      0.00
    6   12   22      0.85      0.00
    7   12   22     -6.50      0.00
    8   12   22      8.66      0.00
    9   12   22      9.39      0.00
   10   12   22     -3.96      0.00
   11   12   22      1.92      0.00
    1   13   22     15.63      0.00
    2   13   22    -10.88      0.00
    3   13   22     -5.45      0.00
    4   13   22     -9.43      0.00
    5   13   22      0.32      0.00
    6   13   22      8.46      0.00
    7   13   22     -2.32      0.00
    8   13   22      2.90      0.00
    9   13   22      1.56      0.00
   10   13   22      9.15      0.00
    1   14   22    -12.67      0.00
    2   14   22      5.25      0.00
    3   14   22      2.89      0.00
    4   14   22     11.46      0.00
    5   14   22     13.12      0.00
    6   14   22      6.15      0.00
    7   14   22      7.43      0.00
    8   14   22     -2.70      0.00
    9   14   22     -8.05      0.00
    5   15   22      7.56      0.00
    6   15   22      4.12      0.00
    7   15   22     10.25      0.00
    8   15   22    -13.18      0.00
    0    1   23      3.53      0.00
    1    2   23     13.52      0.00
    0    3   23     -9.45      0.00
    1    3   23    -16.45      0.00
    2    3   23      0.73      0.00
    1    4   23      1.52      0.00
    2    4   23      4.25      0.00
    3    4   23     -3.49      0.00
    0    5   23     24.87      0.00
    1    5   23      7.38      0.00
    2    5   23     -1.78      0.00
    3    5   23      5.17      0.00
    4    5   23    -23.47      0.00
    1    6   23     13.06      0.00
    2    6   23    -18.59      0.00
    3    6   23      5.45      0.00
    4    6   23      0.82      0.00
    5    6   23     -1.78      0.00
    0    7   23    -10.45      0.00
    1    7   23     -3.53      0.00
    2    7   23    -16.29      0.00
    3    7   23      4.58      0.00
    4    7   23     10.77      0.00
    5    7   23    -17.64      0.00
    6    7   23      5.00      0.00
    1    8   23      0.99      0.00
    2    8   23      3.72      0.00
    3    8   23      1.24      0.00
    4    8   23     -0.23      0.00
    5    8   23     -0.83      0.00
    6    8   23    -17.50      0.00
    7    8   23    -11.79      0.00
    0    9   23     -1.29      0.00
    1    9   23      0.43      0.00
    2    9   23      5.82      0.00
    3    9   23     -9.45      0.00
    4    9   23      1.52      0.00
    5    9   23     -8.15      0.00
    6    9   23      3.98      0.00
    7    9   23     -4.33      0.00
    8    9   23      6.92      0.00
    1   10   23      5.17      0.00
    2   10   23     13.23      0.00
    3   10   23     -7.21      0.00
    4   10   23      6.52      0.00
    5   10   23     16.65      0.00
    6   10   23     -0.58      0.00
    7   10   23      1.27      0.00
    8   10   23     -4.07      0.00
    9   10   23     12.29      0.00
    0   11   23     -2.74      0.00
    1   11   23      5.15      0.00
    2   11   23      2.19      0.00
    3   11   23      7.09      0.00
    4   11   23    -12.13      0.00
    5   11   23     -3.55      0.00
    6   11   23      5.14      0.00
    7   11   23     -2.10      0.00
    8   11   23    -23.43      0.00
    9   11   23     15.78      0.00
   10   11   23      7.34      0.00
    1   12   23    -10.04      0.00
    2   12   23    -20.17      0.00
    3   12   23      1.62      0.00
    4   12   23      8.28      0.00
    5   12   23      1.58      0.00
    6   12   23     -0.60      0.00
    7   12   23      4.99      0.00
    8   12   23     -0.72      0.00
    9   12   23      7.25      0.00
   10   12   23      4.29      0.00
    2   13   23     -7.29      0.00
    3   13   23      5.77      0.00
    4   13   23     11.92      0.00
    5   13   23     10.41      0.00
    6   13   23      0.90      0.00
    7   13   23      6.88      0.00
    8   13   23     -4.59      0.00
    9   13   23     -2.92      0.00
    2   14   23     -6.84      0.00
    3   14   23    -14.85      0.00
    4   14   23     -8.00      0.00
    5   14   23     -3.07      0.00
    6   14   23     18.19      0.00
    7   14   23      1.20      0.00
    8   14   23      9.52      0.00
    3   15   23      3.44      0.00
    4   15   23     19.06      0.00
    5   15   23    -13.45      0.00
    6   15   23    -13.03      0.00
    7   15   23      4.20      0.00
    1    1   24      0.04      0.00
    0    2   24     -0.09      0.00
    1    2   24      0.88      0.00
    2    2   24     -3.16      0.00
    1    3   24     -4.28      0.00
    2    3   24     14.12      0.00
    3    3   24      3.88      0.00
    0    4   24     30.74      0.00
    1    4   24      3.38      0.00
    2    4   24    -18.13      0.00
    3    4   24    -11.35      0.00
    4    4   24     13.75      0.00
    1    5   24    -51.33      0.00
    2    5   24     14.20      0.00
    3    5   24     13.04      0.00
    4    5   24      6.58      0.00
    5    5   24     10.87      0.00
    0    6   24      3.56      0.00
    1    6   24     16.73      0.00
    2    6   24    -12.38      0.00
    3    6   24    -10.11      0.00
    4    6   24     14.46      0.00
    5    6   24     30.02      0.00
    6    6   24      1.85      0.00
    1    7   24     -4.53      0.00
    2    7   24      3.51      0.00
    3    7   24     17.29      0.00
    4    7   24     -3.67      0.00
    5    7   24    -10.28      0.00
    6    7   24      0.67      0.00
    7    7   24    -42.62      0.00
    0    8   24     -4.07      0.00
    1    8   24      5.00      0.00
    2    8   24     24.01      0.00
    3    8   24     10.77      0.00
    4    8   24      1.44      0.00
    5    8   24     -2.49      0.00
    6    8   24     13.51      0.00
    7    8   24     13.05      0.00
    8    8   24      1.50      0.00
    1    9   24     -6.03      0.00
    2    9   24     15.36      0.00
    3    9   24      4.34      0.00
    4    9   24     15.78      0.00
    5    9   24    -14.36      0.00
    6    9   24      7.27      0.00
    7    9   24      0.28      0.00
    8    9   24     -1.05      0.00
    9    9   24     -1.16      0.00
    0   10   24     -5.53      0.00
    1   10   24      4.61      0.00
    2   10   24      1.31      0.00
    3   10   24      1.55      0.00
    4   10   24     -6.87      0.00
    5   10   24     17.03      0.00
    6   10   24      8.05      0.00
    7   10   24     -3.53      0.00
    8   10   24     16.47      0.00
    9   10   24     -3.20      0.00
   10   10   24     -5.39      0.00
    1   11   24     -3.06      0.00
    2   11   24      0.26      0.00
    3   11   24      3.81      0.00
    4   11   24     21.56      0.00
    5   11   24      9.23      0.00
    6   11   24     11.49      0.00
    7   11   24    -68.50      0.00
    8   11   24      5.17      0.00
    9   11   24      0.65      0.00
   10   11   24      3.65      0.00
    0   12   24     -5.06      0.00
    1   12   24      8.96      0.00
    2   12   24      0.01      0.00
    3   12   24     -5.83      0.00
    4   12   24      3.12      0.00
    5   12   24    -34.06      0.00
    6   12   24      1.83      0.00
    7   12   24    -13.08      0.00
    8   12   24     17.18      0.00
    9   12   24     22.68      0.00
    2   13   24     15.21      0.00
    3   13   24     -6.96      0.00
    4   13   24      1.87      0.00
    5   13   24     -7.92      0.00
    6   13   24      4.62      0.00
    7   13   24     -1.66      0.00
    8   13   24     -6.53      0.00
    2   14   24     18.47      0.00
    3   14   24      9.62      0.00
    4   14   24    -13.01      0.00
    5   14   24      0.99      0.00
    6   14   24      4.85      0.00
    7   14   24     -2.71      0.00
    3   15   24    -13.30      0.00
    4   15   24     -5.94      0.00
    5   15   24     10.55      0.00
    6   15   24      7.04      0.00
    1    2   25      0.86      0.00
    1    3   25    -40.71      0.00
    2    3   25     -0.25      0.00
    1    4   25     -5.11      0.00
    2    4   25     10.81      0.00
    3    4   25      5.89      0.00
    0    5   25     74.86      0.00
    1    5   25      6.46      0.00
    2    5   25      2.80      0.00
    3    5   25     -0.25      0.00
    4    5   25      6.55      0.00
    1    6   25     41.75      0.00
    2    6   25     -5.81      0.00
    3    6   25     -0.63      0.00
    4    6   25      4.64      0.00
    5    6   25    -10.49      0.00
    0    7   25    -30.45      0.00
    1    7   25      2.18      0.00
    2    7   25     21.72      0.00
    3    7   25    -14.00      0.00
    4    7   25    -12.06      0.00
    5    7   25     12.40      0.00
    6    7   25      7.67      0.00
    1    8   25    -13.92      0.00
    2    8   25      0.08      0.00
    3    8   25     12.08      0.00
    4    8   25     -3.79      0.00
    5    8   25      3.42      0.00
    6    8   25     -2.21      0.00
    7    8   25     20.67      0.00
    0    9   25     12.58      0.00
    1    9   25    -25.72      0.00
    2    9   25      5.19      0.00
    3    9   25     -7.86      0.00
    4    9   25      6.47      0.00
    5    9   25      4.84      0.00
    6    9   25     -7.09      0.00
    7    9   25     -7.81      0.00
    8    9   25      4.42      0.00
    1   10   25     17.60      0.00
    2   10   25     -7.58      0.00
    3   10   25     -7.29      0.00
    4   10   25    -15.77      0.00
    5   10   25      7.19      0.00
    6   10   25      8.61      0.00
    7   10   25      5.07      0.00
    8   10   25     -2.58      0.00
    9   10   25      1.39      0.00
    0   11   25     14.45      0.00
    1   11   25    -12.30      0.00
    2   11   25    -11.04      0.00
    3   11   25     -1.70      0.00
    4   11   25      1.17      0.00
    5   11   25     -4.81      0.00
    6   11   25     20.29      0.00
    7   11   25     -1.61      0.00
    8   11   25     -2.89      0.00
    9   11   25     -4.29      0.00
    1   12   25     23.59      0.00
    2   12   25     -5.82      0.00
    3   12   25     37.73      0.00
    4   12   25      3.91      0.00
    5   12   25     -8.57      0.00
    6   12   25     -0.50      0.00
    7   12   25     25.26      0.00
    8   12   25    -10.43      0.00
    0   13   25     14.40      0.00
    1   13   25      1.47      0.00
    2   13   25    -20.07      0.00
    3   13   25     -6.63      0.00
    4   13   25     -0.98      0.00
    5   13   25      5.83      0.00
    6   13   25      3.44      0.00
    7   13   25      7.54      0.00
    2   14   25    -10.12      0.00
    3   14   25    -17.02      0.00
    4   14   25    -11.46      0.00
    5   14   25     -8.58      0.00
    6   14   25      7.36      0.00
    3   15   25     12.24      0.00
    4   15   25     15.36      0.00
    0    2   26     15.69      0.00
    1    2   26      6.69      0.00
    2    2   26      7.23      0.00
    1    3   26      2.47      0.00
    2    3   26      8.86      0.00
    3    3   26      6.45      0.00
    0    4   26    -12.78      0.00
    1    4   26      4.82      0.00
    2    4   26    -11.00      0.00
    3    4   26     -3.27      0.00
    4    4   26     -4.21      0.00
    1    5   26    -35.14      0.00
    2    5   26      8.40      0.00
    3    5   26      1.02      0.00
    4    5   26      3.27      0.00
    5    5   26     16.90      0.00
    0    6   26     -0.42      0.00
    1    6   26      2.44      0.00
    2    6   26      6.34      0.00
    3    6   26     -5.62      0.00
    4    6   26      4.25      0.00
    5    6   26      2.92      0.00
    6    6   26      6.55      0.00
    1    7   26      2.73      0.00
    2    7   26      4.63      0.00
    3    7   26     -6.47      0.00
    4    7   26    -29.37      0.00
    5    7   26    -21.70      0.00
    6    7   26     -7.27      0.00
    7    7   26      2.49      0.00
    0    8   26     36.44      0.00
    1    8   26    -48.98      0.00
    2    8   26    -30.33      0.00
    3    8   26     -4.70      0.00
    4    8   26    -11.10      0.00
    5    8   26      1.47      0.00
    6    8   26     16.40      0.00
    7    8   26      9.28      0.00
    8    8   26     -1.84      0.00
    1    9   26    -10.90      0.00
    2    9   26      7.38      0.00
    3    9   26      9.56      0.00
    4    9   26     -2.44      0.00
    5    9   26    -13.08      0.00
    6    9   26      8.40      0.00
    7    9   26     -3.58      0.00
    8    9   26     -2.60      0.00
    9    9   26     -3.75      0.00
    0   10   26     13.43      0.00
    1   10   26    -11.63      0.00
    2   10   26     -6.33      0.00
    3   10   26    -16.31      0.00
    4   10   26     -2.17      0.00
    5   10   26     -9.02      0.00
    6   10   26     43.28      0.00
    7   10   26    -11.26      0.00
    8   10   26      3.03      0.00
    9   10   26      4.35      0.00
    1   11   26     -8.26      0.00
    2   11   26     23.60      0.00
    3   11   26    -16.20      0.00
    4   11   26     47.49      0.00
    5   11   26     -6.82      0.00
    6   11   26      1.16      0.00
    7   11   26    -11.98      0.00
    8   11   26     17.91      0.00
    0   12   26     10.83      0.00
    1   12   26    -14.19      0.00
    2   12   26      3.03      0.00
    3   12   26     -3.51      0.00
    4   12   26     -6.32      0.00
    5   12   26     -3.73      0.00
    6   12   26    -16.72      0.00
    7   12   26     -6.43      0.00
    1   13   26      0.77      0.00
    2   13   26     20.45      0.00
    3   13   26    -19.62      0.00
    4   13   26     -2.16      0.00
    5   13   26     -8.12      0.00
    6   13   26      7.08      0.00
    3   14   26    -16.68      0.00
    4   14   26     13.58      0.00
    1    2   27      5.33      0.00
    0    3   27     40.62      0.00
    1    3   27     -4.03      0.00
    2    3   27      2.27      0.00
    1    4   27      1.16      0.00
    2    4   27    -23.74      0.00
    3    4   27     -7.08      0.00
    0    5   27      1.99      0.00
    1    5   27      5.06      0.00
    2    5   27     -3.95      0.00
    3    5   27     10.00      0.00
    4    5   27     -9.76      0.00
    1    6   27     -9.62      0.00
    2    6   27     12.44      0.00
    3    6   27      0.30      0.00
    4    6   27     20.74      0.00
    5    6   27    -10.86      0.00
    0    7   27     13.85      0.00
    1    7   27      9.98      0.00
    2    7   27     -8.79      0.00
    3    7   27      0.31      0.00
    4    7   27      1.54      0.00
    5    7   27      0.18      0.00
    6    7   27     -9.54      0.00
    1    8   27    -11.36      0.00
    2    8   27     19.49      0.00
    3    8   27     22.63      0.00
    4    8   27    -10.12      0.00
    5    8   27     -1.88      0.00
    6    8   27     -4.86      0.00
    7    8   27    -27.22      0.00
    0    9   27      8.76      0.00
    1    9   27     26.24      0.00
    2    9   27      6.47      0.00
    3    9   27      2.23      0.00
    4    9   27     -0.88      0.00
    5    9   27     -5.55      0.00
    6    9   27     -9.59      0.00
    7    9   27     -9.51      0.00
    8    9   27     -2.60      0.00
    1   10   27    -13.05      0.00
    2   10   27      9.94      0.00
    3   10   27     -2.61      0.00
    4   10   27     -7.24      0.00
    5   10   27     -6.98      0.00
    6   10   27     -4.17      0.00
    7   10   27    -14.95      0.00
    8   10   27     -4.98      0.00
    0   11   27    -82.03      0.00
    1   11   27     36.75      0.00
    2   11   27      5.97      0.00
    3   11   27    -16.85      0.00
    4   11   27    -12.71      0.00
    5   11   27     -8.86      0.00
    6   11   27      5.66      0.00
    7   11   27     10.66      0.00
    1   12   27     -1.02      0.00
    2   12   27    -18.16      0.00
    3   12   27     27.13      0.00
    4   12   27      6.58      0.00
    5   12   27      3.30      0.00
    6   12   27     -2.13      0.00
    0   13   27    -14.08      0.00
    1   13   27    -11.18      0.00
    2   13   27     -9.00      0.00
    3   13   27     12.27      0.00
    4   13   27      8.06      0.00
    0    2   28     -1.31      0.00
    1    2   28     11.11      0.00
    2    2   28      3.79      0.00
    1    3   28     -9.86      0.00
    2    3   28      5.96      0.00
    3    3   28     23.99      0.00
    0    4   28      9.41      0.00
    1    4   28      1.18      0.00
    2    4   28      2.17      0.00
    3    4   28     15.97      0.00
    4    4   28      0.04      0.00
    1    5   28      5.10      0.00
    2    5   28    -32.12      0.00
    3    5   28    -22.67      0.00
    4    5   28      3.10      0.00
    5    5   28     25.68      0.00
    0    6   28    -19.68      0.00
    1    6   28      1.76      0.00
    2    6   28      6.85      0.00
    3    6   28     -6.25      0.00
    4    6   28      1.61      0.00
    5    6   28     26.71      0.00
    6    6   28    -15.82      0.00
    1    7   28     -6.37      0.00
    2    7   28     21.30      0.00
    3    7   28      0.86      0.00
    4    7   28     -3.04      0.00
    5    7   28     -2.24      0.00
    6    7   28     -1.42      0.00
    7    7   28    -13.41      0.00
    0    8   28    -23.67      0.00
    1    8   28    -10.31      0.00
    2    8   28     -1.57      0.00
    3    8   28      6.40      0.00
    4    8   28      0.25      0.00
    5    8   28      5.93      0.00
    6    8   28      4.76      0.00
    7    8   28      8.24      0.00
    8    8   28     -3.52      0.00
    1    9   28    -15.85      0.00
    2    9   28     48.10      0.00
    3    9   28    -20.41      0.00
    4    9   28     -1.14      0.00
    5    9   28     -2.79      0.00
    6    9   28      8.71      0.00
    7    9   28      0.27      0.00
    8    9   28      6.95      0.00
    0   10   28     43.17      0.00
    1   10   28    -87.84      0.00
    2   10   28    -18.65      0.00
    3   10   28     -6.80      0.00
    4   10   28      8.41      0.00
    5   10   28      3.38      0.00
    6   10   28     10.83      0.00
    7   10   28     -4.54      0.00
    1   11   28    -22.73      0.00
    2   11   28     14.57      0.00
    3   11   28      7.89      0.00
    4   11   28      1.77      0.00
    5   11   28    -10.74      0.00
    6   11   28     -1.78      0.00
    0   12   28     18.10      0.00
    1   12   28     -0.70      0.00
    2   12   28     -1.53      0.00
    3   12   28    -12.55      0.00
    4   12   28      2.63      0.00
    1   13   28     -8.34      0.00
    2   13   28     16.08      0.00
    1    2   29     -5.84      0.00
    0    3   29     16.31      0.00
    1    3   29      5.23      0.00
    2    3   29     10.01      0.00
    1    4   29      6.49      0.00
    2    4   29    -11.66      0.00
    3    4   29    -18.42      0.00
    0    5   29     -1.94      0.00
    1    5   29     -9.48      0.00
    2    5   29     10.95      0.00
    3    5   29    -18.19      0.00
    4    5   29     12.46      0.00
    1    6   29     -3.87      0.00
    2    6   29     -7.94      0.00
    3    6   29      1.62      0.00
    4    6   29     -0.03      0.00
    5    6   29      7.91      0.00
    0    7   29    -22.99      0.00
    1    7   29     17.79      0.00
    2    7   29      7.13      0.00
    3    7   29      4.45      0.00
    4    7   29     -0.19      0.00
    5    7   29     11.46      0.00
    6    7   29     73.03      0.00
    1    8   29     -7.28      0.00
    2    8   29     -8.08      0.00
    3    8   29      4.34      0.00
    4    8   29     12.03      0.00
    5    8   29    -16.36      0.00
    6    8   29     -1.30      0.00
    7    8   29     23.70      0.00
    0    9   29     48.54      0.00
    1    9   29    -66.08      0.00
    2    9   29     19.59      0.00
    3    9   29      3.43      0.00
    4    9   29     -3.18      0.00
    5    9   29      5.98      0.00
    6    9   29     -7.50      0.00
    7    9   29     -6.86      0.00
    1   10   29     14.14      0.00
    2   10   29    -12.15      0.00
    3   10   29     -4.19      0.00
    4   10   29      5.48      0.00
    5   10   29     10.86      0.00
    6   10   29     -9.45      0.00
    0   11   29      6.30      0.00
    1   11   29     42.66      0.00
    2   11   29     23.03      0.00
    3   11   29    -11.20      0.00
    4   11   29      4.86      0.00
    1   12   29     19.98      0.00
    2   12   29     11.71      0.00
    1   13   29     -1.78      0.00
    1    3   30     -9.19      0.00
    2    3   30    -30.37      0.00
    3    3   30     -5.13      0.00
    0    4   30    -28.34      0.00
    1    4   30     15.58      0.00
    2    4   30      6.04      0.00
    3    4   30    -10.89      0.00
    4    4   30      8.71      0.00
    1    5   30    -16.20      0.00
    2    5   30      3.22      0.00
    3    5   30      7.25      0.00
    4    5   30      2.78      0.00
    5    5   30      1.21      0.00
    0    6   30    -24.57      0.00
    1    6   30    -14.47      0.00
    2    6   30     32.47      0.00
    3    6   30      9.71      0.00
    4    6   30      4.60      0.00
    5    6   30     -1.65      0.00
    6    6   30    -31.01      0.00
    1    7   30      5.12      0.00
    2    7   30     17.24      0.00
    3    7   30     -3.35      0.00
    4    7   30    -64.96      0.00
    5    7   30    -15.76      0.00
    6    7   30      8.30      0.00
    7    7   30    -10.83      0.00
    0    8   30    153.21      0.00
    1    8   30    -41.65      0.00
    2    8   30    -18.70      0.00
    3    8   30     10.97      0.00
    4    8   30     -7.47      0.00
    5    8   30     -0.59      0.00
    6    8   30     22.80      0.00
    7    8   30     12.15      0.00
    1    9   30      8.22      0.00
    2    9   30     14.86      0.00
    3    9   30     21.89      0.00
    4    9   30     -4.50      0.00
    5    9   30    -13.22      0.00
    6    9   30    -11.65      0.00
    0   10   30      2.32      0.00
    1   10   30      9.93      0.00
    2   10   30     -2.38      0.00
    3   10   30     -2.71      0.00
    4   10   30     10.76      0.00
    1   11   30     -4.83      0.00
    2   11   30      6.65      0.00
    3   11   30     -7.20      0.00
    0   12   30     -5.02      0.00
    1   12   30     -0.72      0.00
    0    3   31     -3.24      0.00
    1    3   31    -16.40      0.00
    2    3   31      8.09      0.00
    1    4   31      3.10      0.00
    2    4   31      5.01      0.00
    3    4   31    -19.17      0.00
    0    5   31    -10.46      0.00
    1    5   31    -19.78      0.00
    2    5   31     13.36      0.00
    3    5   31      4.97      0.00
    4    5   31     14.99      0.00
    1    6   31     18.74      0.00
    2    6   31      2.27      0.00
    3    6   31    -64.38      0.00
    4    6   31     13.19      0.00
    5    6   31    -12.29      0.00
    0    7   31      0.16      0.00
    1    7   31     10.90      0.00
    2    7   31     11.69      0.00
    3    7   31     15.09      0.00
    4    7   31     12.95      0.00
    5    7   31     18.17      0.00
    6    7   31    -18.74      0.00
    1    8   31    -45.54      0.00
    2    8   31     14.45      0.00
    3    8   31      9.32      0.00
    4    8   31     -1.57      0.00
    5    8   31     -6.12      0.00
    0    9   31    -24.62      0.00
    1    9   31    -12.68      0.00
    2    9   31     -5.04      0.00
    3    9   31    -10.57      0.00
    4    9   31     -2.95      0.00
    1   10   31    -23.97      0.00
    2   10   31      6.19      0.00
    3   10   31      0.71      0.00
    1   11   31      5.54      0.00
    1    3   32     15.31      0.00
    2    3   32     -4.84      0.00
    0    4   32     12.80      0.00
    1    4   32     12.17      0.00
    2    4   32     15.68      0.00
    3    4   32    -34.22      0.00
    4    4   32      2.85      0.00
    1    5   32      6.91      0.00
    2    5   32     14.06      0.00
    3    5   32    -12.74      0.00
    4    5   32      1.98      0.00
    5    5   32    -20.17      0.00
    0    6   32     49.95      0.00
    1    6   32     13.71      0.00
    2    6   32     -1.00      0.00
    3    6   32      7.37      0.00
    4    6   32     12.00      0.00
    5    6   32     15.97      0.00
    6    6   32     19.94      0.00
    1    7   32    -35.98      0.00
    2    7   32    -13.98      0.00
    3    7   32     -2.38      0.00
    4    7   32     -2.99      0.00
    5    7   32      0.91      0.00
    0    8   32    -17.16      0.00
    1    8   32    -12.67      0.00
    2    8   32     16.09      0.00
    3    8   32      7.12      0.00
    4    8   32     25.44      0.00
    1    9   32     -6.69      0.00
    2    9   32     20.50      0.00
    3    9   32     -2.05      0.00
    1   10   32     -5.71      0.00
    2   10   32    -23.96      0.00
    1    4   33    -18.01      0.00
    2    4   33     20.38      0.00
    3    4   33     -3.72      0.00
    0    5   33    -18.59      0.00
    1    5   33     -5.30      0.00
    2    5   33      4.74      0.00
    3    5   33      7.00      0.00
    4    5   33      8.71      0.00
    1    6   33    -21.66      0.00
    2    6   33    -11.26      0.00
    3    6   33     -7.42      0.00
    4    6   33     -2.53      0.00
    0    7   33      4.87      0.00
    1    7   33    -10.01      0.00
    2    7   33      7.36      0.00
    3    7   33      0.39      0.00
    4    7   33    -19.04      0.00
    1    8   33      1.58      0.00
    2    8   33      0.29      0.00
    3    8   33     -9.94      0.00
    1    9   33      2.84      0.00
    0    4   34     -2.22      0.00
    1    4   34      6.82      0.00
    2    4   34      3.36      0.00
    3    4   34    -19.12      0.00
    1    5   34     10.07      0.00
    2    5   34     -6.90      0.00
    3    5   34     -7.81      0.00
    4    5   34      5.65      0.00
    1    6   34      8.67      0.00
    2    6   34     16.43      0.00
    3    6   34      0.24      0.00
    1    7   34      8.89      0.00
    2    7   34      8.37      0.00
    1    8   34    -23.99      0.00
    1    4   35      3.55      0.00
    1    5   35     -9.48      0.00
    2    5   35     -6.37      0.00
    1    6   35      8.45      0.00
    1    7   35     11.15      0.00
    1    1    0   -126.25      0.00
    2    2    0    176.96      0.00
    3    3    0    167.95      0.00
    4    4    0    -28.75      0.00
    4    5    0     33.61      0.00
    5    5    0     87.85      0.00
    5    6    0      2.30      0.00
    6    6    0     50.34      0.00
    5    7    0    -34.73      0.00
    6    7    0    -12.62      0.00
    7    7    0      3.39      0.00
    6    8    0     28.94      0.00
    7    8    0    -12.69      0.00
    8    8    0     -5.94      0.00
    6    9    0      7.67      0.00
    7    9    0     -9.80      0.00
    8    9    0    -32.73      0.00
    9    9    0     13.69      0.00
    7   10    0      0.00      0.00
    8   10    0    -11.09      0.00
    9   10    0     27.82      0.00
   10   10    0     29.99      0.00
    7   11    0    -32.30      0.00
    8   11    0    -32.54      0.00
    9   11    0     23.32      0.00
   10   11    0     19.11      0.00
   11   11    0    -20.06      0.00
    7   12    0      9.91      0.00
    8   12    0      8.03      0.00
    9   12    0    -10.87      0.00
   10   12    0     12.83      0.00
   11   12    0     -8.69      0.00
   12   12    0     41.44      0.00
    6   13    0    -13.27      0.00
    7   13    0     49.07      0.00
    8   13    0     -0.98      0.00
    9   13    0     -1.16      0.00
   10   13    0      8.70      0.00
   11   13    0     20.37      0.00
   12   13    0      5.39      0.00
   13   13    0     10.58      0.00
    8   14    0    -40.40      0.00
    9   14    0     44.80      0.00
   10   14    0     15.27      0.00
   11   14    0      2.20      0.00
   12   14    0    -16.52      0.00
   13   14    0     12.64      0.00
   14   14    0     22.30      0.00
    8   15    0     24.72      0.00
    9   15    0      0.57      0.00
   10   15    0      9.31      0.00
   11   15    0    -12.94      0.00
   12   15    0    -12.60      0.00
   13   15    0    -18.27      0.00
   14   15    0     30.39      0.00
   15   15    0    -19.29      0.00
    8   16    0      9.03      0.00
    9   16    0    -50.92      0.00
   10   16    0    -13.94      0.00
   11   16    0      7.74      0.00
   12   16    0     27.78      0.00
   13   16    0      4.20      0.00
   14   16    0      2.89      0.00
    8   17    0     -0.71      0.00
    9   17    0    -10.28      0.00
   10   17    0     -8.72      0.00
   11   17    0     27.17      0.00
   12   17    0    -11.68      0.00
   13   17    0    -11.48      0.00
    8   18    0    -10.31      0.00
    9   18    0     28.81      0.00
   10   18    0     -6.95      0.00
   11   18    0      2.77      0.00
    8   19    0    -48.52      0.00
    9   19    0     13.77      0.00
   10   19    0    -17.34      0.00
    7   20    0    -31.01      0.00
    8   20    0     12.77      0.00
    0    1    1   -317.22      0.00
    4    5    1    -42.91      0.00
    5    6    1    -21.79      0.00
    6    7    1     -7.16      0.00
    6    8    1     -1.34      0.00
    7    8    1    -18.79      0.00
    7    9    1     -0.52      0.00
    8    9    1     20.92      0.00
    7   10    1    -33.17      0.00
    8   10    1    -12.45      0.00
    9   10    1     10.52      0.00
    7   11    1      1.07      0.00
    8   11    1      2.00      0.00
    9   11    1      4.16      0.00
   10   11    1    -11.63      0.00
    7   12    1     26.49      0.00
    8   12    1    -14.99      0.00
    9   12    1     -5.44      0.00
   10   12    1      2.80      0.00
   11   12    1     -5.73      0.00
    8   13    1    -12.49      0.00
    9   13    1      6.71      0.00
   10   13    1    -22.87      0.00
   11   13    1      5.19      0.00
   12   13    1      2.99      0.00
    8   14    1    -31.37      0.00
    9   14    1     -9.33      0.00
   10   14    1      4.89      0.00
   11   14    1      8.00      0.00
   12   14    1     -5.21      0.00
   13   14    1     -4.61      0.00
    8   15    1    -16.57      0.00
    9   15    1     12.59      0.00
   10   15    1     11.50      0.00
   11   15    1     -2.38      0.00
   12   15    1      1.38      0.00
   13   15    1      2.17      0.00
   14   15    1     10.03      0.00
    8   16    1     33.50      0.00
    9   16    1     20.10      0.00
   10   16    1    -12.74      0.00
   11   16    1     -8.86      0.00
   12   16    1    -14.80      0.00
   13   16    1    -12.39      0.00
   14   16    1     -1.05      0.00
    8   17    1    -21.27      0.00
    9   17    1     16.23      0.00
   10   17    1    -13.67      0.00
   11   17    1     10.94      0.00
   12   17    1     17.95      0.00
   13   17    1     -2.05      0.00
    8   18    1     -5.74      0.00
    9   18    1     21.74      0.00
   10   18    1    -13.69      0.00
   11   18    1     -3.64      0.00
    0   19    1    -54.86      0.00
    8   19    1     -1.67      0.00
    9   19    1     20.24      0.00
   10   19    1      6.11      0.00
    7   20    1      5.10      0.00
    8   20    1     -2.39      0.00
    0    0    2    211.97      0.00
    4    4    2    -81.93      0.00
    4    5    2     13.93      0.00
    5    5    2      0.21      0.00
    5    6    2     -1.11      0.00
    6    6    2    -13.30      0.00
    6    7    2     20.69      0.00
    7    7    2    -12.30      0.00
    6    8    2     34.08      0.00
    7    8    2    -14.36      0.00
    8    8    2    -17.76      0.00
    7    9    2     27.73      0.00
    8    9    2    -11.19      0.00
    9    9    2    -23.24      0.00
    7   10    2     25.15      0.00
    8   10    2     24.02      0.00
    9   10    2     -0.89      0.00
   10   10    2    -22.19      0.00
    8   11    2      4.00      0.00
    9   11    2      1.64      0.00
   10   11    2     17.29      0.00
   11   11    2    -23.73      0.00
    8   12    2      5.53      0.00
    9   12    2     -0.27      0.00
   10   12    2      5.98      0.00
   11   12    2    -25.59      0.00
   12   12    2     13.00      0.00
    7   13    2      8.81      0.00
    8   13    2    -11.68      0.00
    9   13    2     -6.00      0.00
   10   13    2    -19.37      0.00
   11   13    2     -6.22      0.00
   12   13    2     -7.62      0.00
   13   13    2     -5.45      0.00
    8   14    2    -12.79      0.00
    9   14    2     -1.94      0.00
   10   14    2     -1.24      0.00
   11   14    2      6.65      0.00
   12   14    2      1.60      0.00
   13   14    2      0.48      0.00
   14   14    2     21.85      0.00
    8   15    2    -29.06      0.00
    9   15    2     34.77      0.00
   10   15    2      3.28      0.00
   11   15    2     -9.34      0.00
   12   15    2      9.12      0.00
   13   15    2     -6.21      0.00
   14   15    2     -3.65      0.00
   15   15    2      2.93      0.00
    8   16    2    -18.85      0.00
    9   16    2     -3.58      0.00
   10   16    2     11.30      0.00
   11   16    2      9.50      0.00
   12   16    2     -4.48      0.00
   13   16    2     -0.97      0.00
   14   16    2      0.17      0.00
    8   17    2     17.65      0.00
    9   17    2     -1.19      0.00
   10   17    2    -11.48      0.00
   11   17    2    -14.44      0.00
   12   17    2     -2.07      0.00
   13   17    2     -3.89      0.00
    8   18    2    -15.71      0.00
    9   18    2     -6.21      0.00
   10   18    2    -13.30      0.00
   11   18    2      1.97      0.00
    8   19    2    -15.38      0.00
    9   19    2      7.17      0.00
   10   19    2    -16.74      0.00
    7   20    2    -17.97      0.00
    4    5    3     44.85      0.00
    6    7    3      3.47      0.00
    7    8    3    -16.65      0.00
    7    9    3      3.12      0.00
    8    9    3      3.22      0.00
    8   10    3      0.51      0.00
    9   10    3     -9.20      0.00
    8   11    3     -2.22      0.00
    9   11    3      5.42      0.00
   10   11    3     -1.14      0.00
    8   12    3     14.00      0.00
    9   12    3      6.58      0.00
   10   12    3    -27.92      0.00
   11   12    3     10.10      0.00
    7   13    3     22.73      0.00
    8   13    3     -7.66      0.00
    9   13    3     40.44      0.00
   10   13    3     -0.61      0.00
   11   13    3      6.74      0.00
   12   13    3     -5.00      0.00
    8   14    3    -16.01      0.00
    9   14    3     10.35      0.00
   10   14    3     -4.23      0.00
   11   14    3      6.17      0.00
   12   14    3    -12.13      0.00
   13   14    3    -11.78      0.00
    9   15    3     20.42      0.00
   10   15    3    -13.69      0.00
   11   15    3    -20.40      0.00
   12   15    3    -10.53      0.00
   13   15    3      6.93      0.00
   14   15    3      4.65      0.00
    9   16    3      7.83      0.00
   10   16    3     12.99      0.00
   11   16    3      5.27      0.00
   12   16    3      3.70      0.00
   13   16    3     -2.82      0.00
   14   16    3      0.38      0.00
    9   17    3     -9.31      0.00
   10   17    3      8.49      0.00
   11   17    3     26.52      0.00
   12   17    3      4.90      0.00
   13   17    3     -9.07      0.00
    9   18    3    -12.85      0.00
   10   18    3     -0.10      0.00
   11   18    3     16.10      0.00
    8   19    3     20.72      0.00
    9   19    3      2.60      0.00
   10   19    3    -11.99      0.00
    7   20    3      4.19      0.00
    6    6    4     39.88      0.00
    7    7    4      5.16      0.00
    7    8    4     -9.05      0.00
    8    8    4      3.70      0.00
    7    9    4     -2.72      0.00
    8    9    4      8.87      0.00
    9    9    4     -7.27      0.00
    8   10    4    -12.68      0.00
    9   10    4    -13.20      0.00
   10   10    4      2.66      0.00
    8   11    4     -2.58      0.00
    9   11    4    -13.62      0.00
   10   11    4     26.74      0.00
   11   11    4    -21.50      0.00
    8   12    4     40.43      0.00
    9   12    4      2.19      0.00
   10   12    4     16.54      0.00
   11   12    4      4.85      0.00
   12   12    4     10.81      0.00
    7   13    4     10.37      0.00
    8   13    4     26.48      0.00
    9   13    4     31.54      0.00
   10   13    4     12.74      0.00
   11   13    4      4.57      0.00
   12   13    4    -11.36      0.00
   13   13    4    -14.50      0.00
    9   14    4     14.41      0.00
   10   14    4     -5.23      0.00
   11   14    4      6.57      0.00
   12   14    4      0.48      0.00
   13   14    4     -7.24      0.00
   14   14    4     10.56      0.00
    9   15    4    -26.72      0.00
   10   15    4    -10.78      0.00
   11   15    4      8.19      0.00
   12   15    4     -6.33      0.00
   13   15    4      2.75      0.00
   14   15    4     -0.77      0.00
   15   15    4     11.99      0.00
    9   16    4     17.87      0.00
   10   16    4     -4.89      0.00
   11   16    4    -13.51      0.00
   12   16    4     16.04      0.00
   13   16    4      4.92      0.00
   14   16    4     -6.95      0.00
    8   17    4     16.55      0.00
    9   17    4      4.52      0.00
   10   17    4    -17.88      0.00
   11   17    4      0.80      0.00
   12   17    4     -3.91      0.00
   13   17    4      7.54      0.00
    8   18    4     13.09      0.00
    9   18    4     -3.34      0.00
   10   18    4     -0.18      0.00
   11   18    4      5.21      0.00
    8   19    4     11.36      0.00
    9   19    4      9.49      0.00
    7   20    4      0.86      0.00
    8    9    5     19.05      0.00
    8   10    5     25.68      0.00
    9   10    5      0.54      0.00
    8   11    5     14.67      0.00
    9   11    5     12.06      0.00
   10   11    5    -14.15      0.00
    9   12    5      4.82      0.00
   10   12    5      0.49      0.00
   11   12    5     -0.77      0.00
    7   13    5      2.73      0.00
    8   13    5     -2.32      0.00
    9   13    5    -12.91      0.00
   10   13    5      1.28      0.00
   11   13    5    -12.03      0.00
   12   13    5     -2.57      0.00
    8   14    5    -54.06      0.00
    9   14    5    -36.15      0.00
   10   14    5     -8.76      0.00
   11   14    5     20.08      0.00
   12   14    5      8.51      0.00
   13   14    5      9.86      0.00
    8   15    5      2.02      0.00
    9   15    5     17.15      0.00
   10   15    5     11.76      0.00
   11   15    5     -3.68      0.00
   12   15    5      8.45      0.00
   13   15    5     -1.92      0.00
   14   15    5     -9.13      0.00
    8   16    5      1.56      0.00
    9   16    5      4.65      0.00
   10   16    5     -6.97      0.00
   11   16    5    -19.44      0.00
   12   16    5      6.59      0.00
   13   16    5      0.99      0.00
   14   16    5     -1.49      0.00
    7   17    5      4.78      0.00
    8   17    5      5.89      0.00
    9   17    5     -7.43      0.00
   10   17    5     -2.72      0.00
   11   17    5     19.80      0.00
   12   17    5    -22.25      0.00
    7   18    5    -43.67      0.00
    8   18    5      8.88      0.00
    9   18    5      5.41      0.00
   10   18    5     -2.74      0.00
   11   18    5      4.89      0.00
    7   19    5    -32.35      0.00
    8   19    5    -10.88      0.00
    9   19    5      4.29      0.00
    6   20    5    -31.78      0.00
    7   20    5    -31.69      0.00
    8    8    6     14.65      0.00
    8    9    6     -6.36      0.00
    9    9    6      3.86      0.00
    9   10    6     -2.50      0.00
   10   10    6      4.66      0.00
    9   11    6     -4.30      0.00
   10   11    6    -13.32      0.00
   11   11    6      9.95      0.00
    8   12    6    -18.43      0.00
    9   12    6     -1.27      0.00
   10   12    6     -9.55      0.00
   11   12    6     -6.64      0.00
   12   12    6    -10.30      0.00
    8   13    6     26.76      0.00
    9   13    6    -21.38      0.00
   10   13    6    -15.99      0.00
   11   13    6     -5.24      0.00
   12   13    6      7.85      0.00
   13   13    6    -16.84      0.00
    7   14    6    -47.86      0.00
    8   14    6     14.16      0.00
    9   14    6     -6.74      0.00
   10   14    6     -6.48      0.00
   11   14    6      5.55      0.00
   12   14    6     -4.91      0.00
   13   14    6      3.94      0.00
   14   14    6      1.11      0.00
    7   15    6     -0.69      0.00
    8   15    6    -38.13      0.00
    9   15    6     16.48      0.00
   10   15    6     12.30      0.00
   11   15    6      2.10      0.00
   12   15    6      4.52      0.00
   13   15    6    -11.90      0.00
   14   15    6    -16.80      0.00
   15   15    6      5.08      0.00
    7   16    6    -13.95      0.00
    8   16    6     50.29      0.00
    9   16    6     13.01      0.00
   10   16    6     -2.76      0.00
   11   16    6      9.25      0.00
   12   16    6    -21.05      0.00
   13   16    6      3.91      0.00
   14   16    6     -9.54      0.00
    7   17    6     -5.18      0.00
    8   17    6     -4.44      0.00
    9   17    6     -1.99      0.00
   10   17    6    -16.32      0.00
   11   17    6      8.07      0.00
   12   17    6      6.81      0.00
    7   18    6      0.76      0.00
    8   18    6     13.22      0.00
    9   18    6     -7.76      0.00
   10   18    6     -6.31      0.00
   11   18    6      3.48      0.00
    7   19    6    -16.98      0.00
    8   19    6     -1.18      0.00
    9   19    6      2.74      0.00
    5   20    6    -11.98      0.00
    6   20    6     -3.56      0.00
    7   20    6      5.79      0.00
    9   10    7    -15.56      0.00
    9   11    7     -1.06      0.00
   10   11    7     19.45      0.00
    7   12    7     18.30      0.00
    9   12    7      2.18      0.00
   10   12    7    -13.81      0.00
   11   12    7      0.91      0.00
    8   13    7     39.70      0.00
    9   13    7     -3.52      0.00
   10   13    7     20.16      0.00
   11   13    7      4.47      0.00
   12   13    7     -4.28      0.00
    8   14    7      9.39      0.00
    9   14    7    -10.20      0.00
   10   14    7     18.51      0.00
   11   14    7    -21.79      0.00
   12   14    7     -4.59      0.00
   13   14    7     14.20      0.00
    8   15    7      4.02      0.00
    9   15    7     -9.77      0.00
   10   15    7     21.43      0.00
   11   15    7     19.37      0.00
   12   15    7      4.67      0.00
   13   15    7      2.01      0.00
   14   15    7     -0.76      0.00
    8   16    7     11.93      0.00
    9   16    7    -14.26      0.00
   10   16    7    -16.25      0.00
   11   16    7     15.63      0.00
   12   16    7    -23.37      0.00
   13   16    7      7.66      0.00
    8   17    7     25.92      0.00
    9   17    7      5.94      0.00
   10   17    7    -19.47      0.00
   11   17    7      0.57      0.00
   12   17    7      8.06      0.00
    7   18    7     27.90      0.00
    8   18    7     -8.82      0.00
    9   18    7    -10.55      0.00
   10   18    7      2.99      0.00
   11   18    7     -0.01      0.00
    7   19    7     23.98      0.00
    8   19    7     16.38      0.00
    9   19    7     -2.65      0.00
    4   20    7      1.09      0.00
    5   20    7     11.10      0.00
    6   20    7      1.17      0.00
    7   20    7     18.06      0.00
    9    9    8     -2.69      0.00
    9   10    8      3.72      0.00
   10   10    8     -5.27      0.00
    9   11    8     21.34      0.00
   10   11    8      1.69      0.00
   11   11    8     -4.52      0.00
    9   12    8     11.19      0.00
   10   12    8     10.16      0.00
   11   12    8     16.85      0.00
   12   12    8    -20.83      0.00
    8   13    8    -26.33      0.00
    9   13    8      5.65      0.00
   10   13    8      5.99      0.00
   11   13    8     -5.29      0.00
   12   13    8     17.47      0.00
   13   13    8     12.81      0.00
    8   14    8      7.87      0.00
    9   14    8      7.45      0.00
   10   14    8      5.61      0.00
   11   14    8     -5.91      0.00
   12   14    8     12.88      0.00
   13   14    8     10.61      0.00
   14   14    8     -3.99      0.00
    8   15    8     23.25      0.00
    9   15    8    -23.94      0.00
   10   15    8    -24.52      0.00
   11   15    8      2.19      0.00
   12   15    8     -3.50      0.00
   13   15    8     17.73      0.00
   14   15    8    -15.37      0.00
    8   16    8     14.46      0.00
    9   16    8    -22.87      0.00
   10   16    8     -1.95      0.00
   11   16    8      2.17      0.00
   12   16    8      7.02      0.00
   13   16    8     -0.84      0.00
    8   17    8    -19.79      0.00
    9   17    8     11.77      0.00
   10   17    8     15.69      0.00
   11   17    8      0.28      0.00
   12   17    8      0.96      0.00
    8   18    8      7.54      0.00
    9   18    8     25.15      0.00
   10   18    8      6.45      0.00
    7   19    8     22.80      0.00
    8   19    8    -26.41      0.00
    9   19    8     -7.29      0.00
    3   20    8     23.08      0.00
    4   20    8      5.18      0.00
    5   20    8     -0.67      0.00
    6   20    8     -7.96      0.00
    9   10    9     15.91      0.00
    9   11    9     11.04      0.00
   10   11    9      9.02      0.00
    8   12    9      7.44      0.00
   10   12    9     12.31      0.00
   11   12    9     22.29      0.00
    8   13    9    -19.23      0.00
    9   13    9     -9.74      0.00
   10   13    9    -10.96      0.00
   11   13    9      2.72      0.00
   12   13    9    -14.44      0.00
    8   14    9     22.94      0.00
    9   14    9    -13.86      0.00
   10   14    9    -32.98      0.00
   11   14    9     19.59      0.00
   12   14    9      2.89      0.00
   13   14    9     -7.72      0.00
    8   15    9     11.50      0.00
    9   15    9     26.62      0.00
   10   15    9    -13.57      0.00
   11   15    9     16.07      0.00
   12   15    9    -10.63      0.00
   13   15    9      0.96      0.00
   14   15    9     -2.34      0.00
    8   16    9      0.31      0.00
    9   16    9     -8.41      0.00
   10   16    9    -21.39      0.00
   11   16    9    -21.68      0.00
   12   16    9      5.54      0.00
   13   16    9      7.83      0.00
    8   17    9     12.16      0.00
    9   17    9     26.23      0.00
   10   17    9      9.24      0.00
   11   17    9     10.18      0.00
   12   17    9      4.31      0.00
    8   18    9     -5.55      0.00
    9   18    9      7.01      0.00
   10   18    9     -4.41      0.00
    6   19    9    -43.30      0.00
    7   19    9     22.90      0.00
    8   19    9     -0.19      0.00
    3   20    9     -2.84      0.00
    4   20    9    -44.52      0.00
    5   20    9      8.67      0.00
    6   20    9     23.92      0.00
    0    2   10     61.48      0.00
    9   10   10    -16.63      0.00
   10   10   10    -29.62      0.00
    8   11   10    -11.28      0.00
   10   11   10      2.46      0.00
   11   11   10     27.18      0.00
   10   12   10     30.59      0.00
   11   12   10      1.34      0.00
   12   12   10     -6.12      0.00
   10   13   10      1.53      0.00
   11   13   10     -8.39      0.00
   12   13   10      0.02      0.00
   13   13   10     -0.66      0.00
    9   14   10    -18.78      0.00
   10   14   10      0.34      0.00
   11   14   10      3.40      0.00
   12   14   10     -7.48      0.00
   13   14   10     -4.61      0.00
   14   14   10     -1.13      0.00
    9   15   10    -32.23      0.00
   10   15   10    -14.32      0.00
   11   15   10     15.29      0.00
   12   15   10     13.41      0.00
   13   15   10     -9.08      0.00
   14   15   10      0.41      0.00
    8   16   10     45.52      0.00
    9   16   10     37.11      0.00
   10   16   10     13.52      0.00
   11   16   10    -11.87      0.00
   12   16   10      4.37      0.00
   13   16   10      2.35      0.00
    8   17   10     -2.49      0.00
    9   17   10    -25.79      0.00
   10   17   10     -4.08      0.00
   11   17   10    -16.86      0.00
    8   18   10     11.72      0.00
    9   18   10    -13.14      0.00
   10   18   10     -0.47      0.00
    6   19   10    -18.46      0.00
    7   19   10     -5.57      0.00
    8   19   10     -0.07      0.00
    0   20   10     -7.13      0.00
    2   20   10    -21.01      0.00
    3   20   10     30.49      0.00
    4   20   10     -1.68      0.00
    5   20   10      2.47      0.00
    8   11   11     19.45      0.00
   11   12   11     -8.25      0.00
   11   13   11      0.85      0.00
   12   13   11     -5.57      0.00
    9   14   11     32.73      0.00
   10   14   11    -26.79      0.00
   11   14   11     -8.76      0.00
   12   14   11      7.47      0.00
   13   14   11     -6.00      0.00
    9   15   11      7.16      0.00
   10   15   11     -4.87      0.00
   11   15   11     16.29      0.00
   12   15   11     -2.12      0.00
   13   15   11      0.81      0.00
   14   15   11      5.11      0.00
    9   16   11      8.15      0.00
   10   16   11     -8.83      0.00
   11   16   11      7.68      0.00
   12   16   11      0.53      0.00
   13   16   11      5.84      0.00
    9   17   11     31.57      0.00
   10   17   11     10.68      0.00
   11   17   11     10.87      0.00
    8   18   11    -18.11      0.00
    9   18   11    -11.15      0.00
   10   18   11    -14.91      0.00
    6   19   11     29.46      0.00
    7   19   11    -16.50      0.00
    8   19   11     -7.34      0.00
    1   20   11      0.16      0.00
    2   20   11     -3.16      0.00
    3   20   11     37.48      0.00
    4   20   11     -1.68      0.00
    5   20   11     12.17      0.00
    3    4   12      2.58      0.00
   11   11   12     13.81      0.00
    6   12   12      9.51      0.00
   11   12   12    -28.52      0.00
   12   12   12    -27.99      0.00
   11   13   12     -9.59      0.00
   12   13   12    -13.43      0.00
   13   13   12     20.77      0.00
    9   14   12     13.54      0.00
   10   14   12     -7.77      0.00
   11   14   12     -4.48      0.00
   12   14   12      9.66      0.00
   13   14   12    -32.17      0.00
   14   14   12     19.93      0.00
    9   15   12     -6.82      0.00
   10   15   12     -6.38      0.00
   11   15   12     13.36      0.00
   12   15   12     -3.32      0.00
   13   15   12     -6.88      0.00
    9   16   12     56.30      0.00
   10   16   12     -3.10      0.00
   11   16   12    -10.50      0.00
   12   16   12     13.67      0.00
    9   17   12      2.57      0.00
   10   17   12     -7.85      0.00
   11   17   12     -5.06      0.00
    9   18   12     -7.98      0.00
    5   19   12      4.88      0.00
    6   19   12     -2.39      0.00
    7   19   12     -9.89      0.00
    0   20   12    -26.06      0.00
    1   20   12     23.81      0.00
    2   20   12      8.47      0.00
    3   20   12     -2.26      0.00
    4   20   12      8.54      0.00
   11   12   13     31.49      0.00
   11   13   13     -1.52      0.00
   12   13   13     -3.57      0.00
    9   14   13     -8.46      0.00
   10   14   13    -17.92      0.00
   11   14   13     -0.78      0.00
   12   14   13     29.50      0.00
   13   14   13     19.06      0.00
    9   15   13     71.57      0.00
   10   15   13      9.84      0.00
   11   15   13      9.13      0.00
   12   15   13     -9.10      0.00
   13   15   13      7.38      0.00
    9   16   13    -16.65      0.00
   10   16   13    -21.18      0.00
   11   16   13     -9.23      0.00
   12   16   13      6.87      0.00
    9   17   13     10.81      0.00
   10   17   13     12.80      0.00
    9   18   13     -4.87      0.00
    4   19   13    -21.60      0.00
    5   19   13     12.94      0.00
    6   19   13      1.91      0.00
    1   20   13      0.51      0.00
    2   20   13    -24.42      0.00
    3   20   13    -26.78      0.00
    8    8   14     33.45      0.00
   11   11   14    -10.32      0.00
   11   12   14    -22.14      0.00
   12   12   14     13.76      0.00
   11   13   14      6.64      0.00
   12   13   14     13.63      0.00
   13   13   14     13.57      0.00
    9   14   14     -8.35      0.00
   10   14   14     -3.36      0.00
   11   14   14     -9.61      0.00
   12   14   14     -4.98      0.00
   13   14   14      0.79      0.00
   14   14   14    -14.97      0.00
    9   15   14     26.16      0.00
   10   15   14     -4.60      0.00
   11   15   14     16.52      0.00
   12   15   14      2.97      0.00
   13   15   14    -16.20      0.00
    9   16   14     -6.32      0.00
   10   16   14     -4.97      0.00
   11   16   14    -11.56      0.00
   12   16   14      1.18      0.00
    9   17   14     -1.66      0.00
   10   17   14    -25.60      0.00
    1   19   14      4.60      0.00
    2   19   14     -4.67      0.00
    3   19   14     22.20      0.00
    4   19   14      6.70      0.00
    5   19   14    -19.02      0.00
    6   19   14    -41.67      0.00
    0   20   14     33.98      0.00
    7    8   15      5.26      0.00
    3   12   15      1.00      0.00
   12   13   15     -1.95      0.00
   12   14   15     -8.21      0.00
   13   14   15      0.79      0.00
    8   15   15    -27.82      0.00
    9   15   15     20.84      0.00
   10   15   15      8.06      0.00
   11   15   15    -18.67      0.00
   12   15   15      0.73      0.00
    8   16   15      5.31      0.00
    9   16   15      1.94      0.00
   10   16   15      5.97      0.00
   11   16   15     -4.34      0.00
    8   17   15     -1.37      0.00
    9   17   15     18.89      0.00
   10   17   15    -18.33      0.00
    8   18   15     -4.73      0.00
    0   19   15    -13.75      0.00
    1   19   15     14.99      0.00
    2   19   15      4.75      0.00
    3   19   15     16.23      0.00
    4   19   15     15.76      0.00
    5   19   15    -32.17      0.00
    7    7   16      6.27      0.00
    6    8   16     -3.57      0.00
   12   12   16    -13.14      0.00
   12   13   16      9.03      0.00
   13   13   16      7.25      0.00
   12   14   16    -22.00      0.00
   13   14   16      1.12      0.00
    7   15   16     -5.42      0.00
    8   15   16     -2.39      0.00
    9   15   16    -11.79      0.00
   10   15   16     13.84      0.00
   11   15   16     -0.25      0.00
   12   15   16     -6.48      0.00
    7   16   16      2.61      0.00
    8   16   16     13.78      0.00
    9   16   16     -5.66      0.00
   10   16   16    -27.60      0.00
   11   16   16     22.44      0.00
    7   17   16      2.99      0.00
    8   17   16      1.14      0.00
    9   17   16      0.31      0.00
    7   18   16     10.64      0.00
    1   19   16      5.33      0.00
    2   19   16      7.23      0.00
    3   19   16     -5.21      0.00
    4   19   16     25.67      0.00
    6    7   17    -14.61      0.00
    5    8   17     12.39      0.00
   12   13   17      4.65      0.00
   12   14   17     12.35      0.00
   13   14   17     -3.30      0.00
    6   15   17     -6.10      0.00
    7   15   17    -11.43      0.00
    8   15   17    -15.38      0.00
    9   15   17    -22.50      0.00
   10   15   17     -3.89      0.00
   11   15   17    -21.65      0.00
   12   15   17     -3.83      0.00
    6   16   17     10.07      0.00
    7   16   17     10.25      0.00
    8   16   17    -16.12      0.00
    9   16   17     20.77      0.00
   10   16   17     18.17      0.00
    6   17   17      7.70      0.00
    7   17   17     -4.93      0.00
    8   17   17     -0.16      0.00
    6   18   17     -6.13      0.00
    0   19   17     19.18      0.00
    1   19   17     -9.33      0.00
    2   19   17      0.71      0.00
    0    0   18    -45.25      0.00
    6    6   18     -8.01      0.00
    5    7   18     27.46      0.00
   12   12   18     -8.38      0.00
   12   13   18      3.09      0.00
   13   13   18     10.84      0.00
   12   14   18      3.29      0.00
    5   15   18     -1.17      0.00
    6   15   18      0.75      0.00
    7   15   18      4.38      0.00
    8   15   18     11.01      0.00
    9   15   18     -2.57      0.00
   10   15   18     14.32      0.00
   11   15   18      1.62      0.00
    5   16   18     10.62      0.00
    6   16   18     14.67      0.00
    7   16   18    -15.04      0.00
    8   16   18      0.30      0.00
    9   16   18     -1.37      0.00
   10   16   18      3.91      0.00
    5   17   18     -3.87      0.00
    6   17   18     -6.58      0.00
    7   17   18    -27.10      0.00
    8   17   18     -3.48      0.00
    5   18   18    -11.74      0.00
    5    6   19    -18.76      0.00
   12   14   19     -1.62      0.00
    3   15   19      8.26      0.00
    4   15   19    -39.88      0.00
    5   15   19     -3.38      0.00
    6   15   19      0.94      0.00
    7   15   19     10.86      0.00
    8   15   19     -7.38      0.00
    9   15   19    -14.37      0.00
   10   15   19     -6.71      0.00
   11   15   19    -10.20      0.00
    4   16   19     -3.28      0.00
    5   16   19      4.11      0.00
    6   16   19    -12.33      0.00
    7   16   19      1.35      0.00
    8   16   19      3.96      0.00
    9   16   19    -11.26      0.00
    4   17   19    -30.97      0.00
    5   17   19      6.18      0.00
    6   17   19     -7.56      0.00
    7   17   19     14.59      0.00
    4   18   19    -11.32      0.00
    0    0   20      1.81      0.00
    5    5   20    -14.28      0.00
    4    6   20     -3.12      0.00
    7    7   20    -47.16      0.00
   12   13   20    -10.82      0.00
   11   14   20    -17.40      0.00
    2   15   20    -20.66      0.00
    3   15   20     20.73      0.00
    4   15   20      7.33      0.00
    5   15   20     -8.39      0.00
    6   15   20    -26.92      0.00
    7   15   20    -36.63      0.00
    2   16   20     -6.22      0.00
    3   16   20      4.88      0.00
    4   16   20     21.49      0.00
    5   16   20     -2.36      0.00
    6   16   20      9.49      0.00
    7   16   20     -7.22      0.00
    8   16   20     15.59      0.00
    2   17   20     13.79      0.00
    3   17   20     14.57      0.00
    4   17   20    -15.24      0.00
    5   17   20     -9.51      0.00
    6   17   20     23.02      0.00
    0   18   20     10.29      0.00
    1   18   20      7.53      0.00
    2   18   20    -19.68      0.00
    3   18   20      3.75      0.00
    4    5   21     -1.36      0.00
   12   13   21     19.30      0.00
   11   14   21     -1.59      0.00
    2   15   21     -0.45      0.00
    3   15   21     -1.60      0.00
    4   15   21     10.57      0.00
    5   15   21    -20.04      0.00
    2   16   21     -5.87      0.00
    3   16   21    -19.54      0.00
    4   16   21      6.45      0.00
    5   16   21     13.07      0.00
    6   16   21     -5.51      0.00
    7   16   21     -4.06      0.00
    2   17   21     32.10      0.00
    3   17   21      5.88      0.00
    4   17   21      7.49      0.00
    5   17   21      0.44      0.00
    0    0   22      7.91      0.00
   12   12   22    -10.44      0.00
   11   13   22    -14.27      0.00
    0   14   22    -21.17      0.00
   10   14   22     -2.82      0.00
    1   15   22     11.90      0.00
    2   15   22      0.28      0.00
    3   15   22     22.88      0.00
    4   15   22    -20.94      0.00
    0   16   22    -20.13      0.00
    1   16   22     -5.68      0.00
    2   16   22    -16.60      0.00
    3   16   22      0.38      0.00
    4   16   22    -20.40      0.00
    5   16   22     13.10      0.00
    6   16   22     21.67      0.00
    7   16   22     -4.83      0.00
    1   17   22     -4.52      0.00
    2   17   22     -1.15      0.00
    3   17   22      5.98      0.00
    4   17   22     -0.09      0.00
   11   12   23    -14.60      0.00
    0   13   23    -24.73      0.00
    1   13   23     -8.34      0.00
   10   13   23      1.48      0.00
   11   13   23     -2.98      0.00
    1   14   23    -13.24      0.00
    9   14   23    -12.72      0.00
    0   15   23     15.29      0.00
    1   15   23      5.38      0.00
    2   15   23     13.83      0.00
    8   15   23      1.55      0.00
    1   16   23     10.69      0.00
    2   16   23    -12.19      0.00
    3   16   23      4.21      0.00
    4   16   23     10.65      0.00
    5   16   23    -22.48      0.00
    0   17   23     27.20      0.00
    1   17   23     -6.25      0.00
    0    0   24     16.24      0.00
   11   11   24     18.62      0.00
   10   12   24     33.85      0.00
   11   12   24     -8.26      0.00
    1   13   24     15.99      0.00
    9   13   24     -1.13      0.00
   10   13   24      5.94      0.00
    0   14   24    -33.83      0.00
    1   14   24     25.31      0.00
    8   14   24      0.87      0.00
    1   15   24     -3.61      0.00
    2   15   24     10.83      0.00
    7   15   24     -4.47      0.00
    0   16   24     -4.14      0.00
    1   16   24     -8.95      0.00
    2   16   24    -15.21      0.00
    3   16   24      6.35      0.00
    4   16   24    -19.81      0.00
    0    1   25    -35.52      0.00
    0    3   25    -24.96      0.00
   10   11   25     -0.20      0.00
    9   12   25     -1.63      0.00
   10   12   25     -5.64      0.00
    8   13   25     -0.56      0.00
    9   13   25    -11.18      0.00
    1   14   25     12.12      0.00
    7   14   25      2.64      0.00
    0   15   25      5.67      0.00
    1   15   25      1.68      0.00
    2   15   25     13.41      0.00
    5   15   25     -0.82      0.00
    1   16   25      0.66      0.00
    0    0   26     35.47      0.00
    1    1   26      7.12      0.00
   10   10   26     15.81      0.00
    9   11   26      7.61      0.00
   10   11   26    -13.24      0.00
   11   11   26    -18.98      0.00
    8   12   26     25.55      0.00
    9   12   26     -6.08      0.00
    7   13   26     -9.55      0.00
    8   13   26     14.59      0.00
    0   14   26      6.70      0.00
    1   14   26     -7.90      0.00
    2   14   26      1.88      0.00
    5   14   26      4.16      0.00
    6   14   26     16.21      0.00
    1   15   26    -25.40      0.00
    2   15   26    -14.61      0.00
    3   15   26      8.34      0.00
    4   15   26      4.40      0.00
    0    1   27      2.54      0.00
    9   10   27     -3.74      0.00
    8   11   27     -8.72      0.00
    9   11   27     -5.86      0.00
   10   11   27     -1.16      0.00
    7   12   27     -9.86      0.00
    8   12   27     -6.45      0.00
    5   13   27      3.15      0.00
    6   13   27     -3.00      0.00
    7   13   27      4.68      0.00
    1   14   27      5.36      0.00
    2   14   27     -0.88      0.00
    3   14   27     -8.47      0.00
    4   14   27    -17.33      0.00
    5   14   27      2.85      0.00
    0    0   28     18.29      0.00
    1    1   28    -13.41      0.00
    9    9   28    -10.74      0.00
    8   10   28    -10.61      0.00
    9   10   28      7.27      0.00
   10   10   28      4.92      0.00
    7   11   28      2.89      0.00
    8   11   28     14.14      0.00
    9   11   28     -8.22      0.00
    5   12   28     -6.85      0.00
    6   12   28     12.88      0.00
    7   12   28    -12.94      0.00
    3   13   28    -13.43      0.00
    4   13   28      3.76      0.00
    5   13   28    -10.71      0.00
    6   13   28     -4.01      0.00
    0   14   28     14.14      0.00
    1   14   28     -9.97      0.00
    2   14   28     11.75      0.00
    3   14   28      2.53      0.00
    0    1   29    -28.51      0.00
    8    9   29     10.04      0.00
    7   10   29     -9.31      0.00
    8   10   29     12.79      0.00
    9   10   29     10.84      0.00
    5   11   29      9.89      0.00
    6   11   29      8.12      0.00
    7   11   29     10.83      0.00
    8   11   29      3.72      0.00
    3   12   29      2.37      0.00
    4   12   29    -10.05      0.00
    5   12   29      4.76      0.00
    6   12   29      3.41      0.00
    0   13   29     45.57      0.00
    2   13   29    -33.16      0.00
    3   13   29     13.52      0.00
    4   13   29      3.09      0.00
    0    0   30      1.71      0.00
    1    1   30    -25.78      0.00
    0    2   30     25.78      0.00
    1    2   30     25.77      0.00
    2    2   30    -32.58      0.00
    8    8   30    -38.04      0.00
    7    9   30      5.18      0.00
    8    9   30      8.49      0.00
    9    9   30     -4.42      0.00
    5   10   30    -10.87      0.00
    6   10   30      6.07      0.00
    7   10   30     10.60      0.00
    8   10   30      3.16      0.00
    4   11   30    -14.46      0.00
    5   11   30     -2.30      0.00
    6   11   30     -7.53      0.00
    2   12   30      4.93      0.00
    3   12   30     -3.86      0.00
    4   12   30      6.97      0.00
    0    1   31      1.39      0.00
    1    2   31     18.52      0.00
    6    8   31    -12.92      0.00
    7    8   31    -23.05      0.00
    5    9   31      4.20      0.00
    6    9   31    -10.15      0.00
    7    9   31    -18.80      0.00
    8    9   31      4.40      0.00
    4   10   31    -11.50      0.00
    5   10   31      5.31      0.00
    6   10   31      5.56      0.00
    0   11   31     -3.02      0.00
    2   11   31      8.06      0.00
    3   11   31     -1.22      0.00
    4   11   31      1.81      0.00
    5   11   31      4.56      0.00
    1   12   31    -16.78      0.00
    0    0   32     39.44      0.00
    1    1   32      3.41      0.00
    0    2   32     -0.42      0.00
    1    2   32     17.38      0.00
    2    2   32     25.24      0.00
    3    3   32     16.02      0.00
    6    7   32      3.19      0.00
    7    7   32     15.32      0.00
    5    8   32      6.95      0.00
    6    8   32      1.79      0.00
    7    8   32      5.18      0.00
    4    9   32    -22.52      0.00
    5    9   32     -5.38      0.00
    6    9   32      0.61      0.00
    0   10   32     -9.67      0.00
    3   10   32     14.37      0.00
    4   10   32     -9.53      0.00
    5   10   32     24.16      0.00
    1   11   32     12.75      0.00
    2   11   32    -10.03      0.00
    0    1   33      9.30      0.00
    1    2   33    -13.49      0.00
    0    3   33    -14.92      0.00
    1    3   33      2.59      0.00
    2    3   33     -9.36      0.00
    5    6   33      7.45      0.00
    5    7   33     -9.14      0.00
    6    7   33      9.70      0.00
    4    8   33     -5.00      0.00
    5    8   33     -4.96      0.00
    6    8   33     13.38      0.00
    0    9   33     20.89      0.00
    2    9   33    -10.52      0.00
    3    9   33     10.54      0.00
    4    9   33     -5.69      0.00
    1   10   33     -5.43      0.00
    2   10   33     19.97      0.00
    0    0   34     34.50      0.00
    1    1   34      3.59      0.00
    0    2   34    -34.79      0.00
    1    2   34      4.40      0.00
    2    2   34      6.03      0.00
    1    3   34    -16.84      0.00
    2    3   34     19.03      0.00
    3    3   34    -23.14      0.00
    4    4   34     20.99      0.00
    5    5   34     -0.48      0.00
    0    6   34    -14.60      0.00
    4    6   34     17.69      0.00
    5    6   34     -5.63      0.00
    6    6   34    -29.21      0.00
    3    7   34    -13.64      0.00
    4    7   34    -13.52      0.00
    5    7   34     -7.59      0.00
    0    8   34     -3.66      0.00
    2    8   34     11.66      0.00
    3    8   34     -6.31      0.00
    4    8   34     22.90      0.00
    1    9   34      6.30      0.00
    0    1   35     -1.38      0.00
    1    2   35     -4.34      0.00
    0    3   35     20.16      0.00
    1    3   35     14.51      0.00
    2    3   35     14.08      0.00
    2    4   35     -8.12      0.00
    3    4   35    -12.60      0.00
    0    5   35     12.54      0.00
    3    5   35     -0.57      0.00
    4    5   35     -3.45      0.00
    2    6   35      4.01      0.00
    3    6   35     18.53      0.00
    4    6   35      6.68      0.00
    0    7   35      1.99      0.00
    2    7   35     -8.26      0.00
    3    7   35     -7.68      0.00
    0    0    0      0.00      0.00
# SQUEEZE RESULTS (Version =  70515)
# Note: Data are Listed for all Voids in the P1 Unit Cell
# i.e. Centre of Gravity, Solvent Accessible Volume,
# Recovered number of Electrons in the Void and
# Details about the Squeezed Material
loop_
  _platon_squeeze_void_nr
  _platon_squeeze_void_average_x
  _platon_squeeze_void_average_y
  _platon_squeeze_void_average_z
  _platon_squeeze_void_volume
  _platon_squeeze_void_count_electrons
  _platon_squeeze_void_content
   1 -0.011  0.397 -0.003      8575      3450 ' '
# Missing Reflections Below sin(th)/lambda = 0.25
loop_
  _platon_missing_refln_index_h
  _platon_missing_refln_index_k
  _platon_missing_refln_index_l
  _platon_missing_refln_theta
    1    1    0     1.466
    2    2    0     2.933
    3    3    0     4.402
    4    4    0     5.873
    4    5    0     6.652
    5    5    0     7.349
    5    6    0     8.122
    6    6    0     8.830
    5    7    0     8.952
    6    7    0     9.601
    0    1    1     1.196
    4    5    1     6.678
    5    6    1     8.144
    6    7    1     9.620
    0    0    2     1.191
    4    4    2     5.994
    4    5    2     6.758
    5    5    2     7.446
    5    6    2     8.210
    6    6    2     8.911
    6    7    2     9.676
    4    5    3     6.890
    6    7    3     9.769
    6    6    4     9.151
    0    2   10     6.319
    3    4   12     8.864
_platon_squeeze_void_probe_radius                  1.20
_platon_squeeze_details
)
TITL g2yy_10xneP 4/m n cl   R = 0.32
CELL   19.0410   19.0410   33.1340     90.00     90.00     90.00
SPGR P4/mnc
# Solvent Accessible Volume =    8650.3
# Electrons Found in S.A.V. =    3393.6
# Note: Atoms in Void as Cxxx and Qxxx all others
C101 1.000 1.004 0.172 !       3.07 eA-3
Q102 0.375 0.500 0.504 !       3.04 eA-3
Q103 0.210 0.125-0.001 !       2.89 eA-3
C104 0.673 0.172 0.251 !       2.89 eA-3
C105 1.000 1.001 0.195 !       2.81 eA-3
Q106 0.431 0.391 0.500 !       2.65 eA-3
C107 0.500 1.000 0.500 !       2.63 eA-3
C108 0.500 0.499 0.219 !       2.59 eA-3
C109 0.383 0.707 0.398 !       2.47 eA-3
Q110 0.988 0.324 0.039 !       2.40 eA-3
C111 0.815 0.359 0.501 !       2.40 eA-3
C112 0.675 0.109 0.000 !       2.36 eA-3
C113 0.459 0.031 0.501 !       2.35 eA-3
C114 0.779 0.777 0.321 !       2.30 eA-3
C115 0.624 0.561 0.241 !       2.30 eA-3
C116 0.084 0.239 0.273 !       2.26 eA-3
C117 0.010 0.359-0.001 !       2.26 eA-3
C118 0.515 0.563 0.307 !       2.19 eA-3
C119 0.319 0.844 0.378 !       2.19 eA-3
C120 0.404 0.518 0.235 !       2.18 eA-3
Q121 0.927 0.700 0.032 !       2.16 eA-3
C122 0.411 0.031-0.003 !       2.14 eA-3
C123 0.490 0.172-0.002 !       2.12 eA-3
C124 0.144 0.221 0.287 !       2.11 eA-3
C125 0.623 0.423 0.233 !       2.11 eA-3
C126 0.597 0.188 0.002 !       2.09 eA-3
C127 1.000 1.005 0.438 !       2.08 eA-3
C128 0.699 1.004 0.306 !       2.05 eA-3
C129 0.386 0.016 0.498 !       2.05 eA-3
C130 0.359 0.762 0.272 !       2.04 eA-3
C131 0.865 0.466 0.041 !       2.03 eA-3
C132 0.505 0.143 0.159 !       2.03 eA-3
C133 0.674 0.312 0.182 !       2.02 eA-3
C134 0.881 0.798 0.152 !       2.02 eA-3
C135 0.483 0.097 0.419 !       1.99 eA-3
C136 0.459 0.030 0.416 !       1.99 eA-3
C137 0.477 0.158 0.183 !       1.97 eA-3
C138 0.879 0.143 0.329 !       1.97 eA-3
C139 0.913 0.466 0.121 !       1.96 eA-3
C140 0.087 0.534 0.879 !       1.96 eA-3
C141 0.056 0.359 0.500 !       1.96 eA-3
C142 0.604 0.359 0.000 !       1.95 eA-3
Q143 0.216 0.719 0.248 !       1.95 eA-3
C144 0.982 0.151 0.284 !       1.94 eA-3
C145 0.047 0.422 0.002 !       1.94 eA-3
C146 0.588 0.987 0.921 !       1.94 eA-3
C147 0.556 0.779 0.201 !       1.94 eA-3
Q148 0.031 0.008 0.080 !       1.93 eA-3
C149 0.666 0.625 0.232 !       1.91 eA-3
C150 0.653 0.642 0.265 !       1.91 eA-3
C151 0.982 0.531 0.094 !       1.91 eA-3
C152 0.818 0.623 0.274 !       1.90 eA-3
C153 0.301 0.715 0.150 !       1.90 eA-3
C154 0.116 0.218 0.242 !       1.90 eA-3
C155 0.497 0.139 0.133 !       1.89 eA-3
C156 0.926 0.515 0.018 !       1.89 eA-3
C157 0.523 0.903 0.892 !       1.88 eA-3
C158 0.948 0.249 0.336 !       1.87 eA-3
C159 0.854 0.733 0.264 !       1.86 eA-3
C160 0.065 0.565 0.057 !       1.86 eA-3
C161 0.588 0.190 0.065 !       1.85 eA-3
C162 0.448 0.156 0.499 !       1.82 eA-3
C163 0.722 0.326 0.156 !       1.82 eA-3
C164 0.962 0.858 0.297 !       1.82 eA-3
C165 0.602 0.391 0.256 !       1.82 eA-3
C166 0.764 0.718 0.463 !       1.80 eA-3
C167 0.905 0.701 0.266 !       1.80 eA-3
C168 0.250 0.188 0.500 !       1.79 eA-3
Q169 0.174 0.888 0.119 !       1.79 eA-3
C170 0.516 0.734 0.204 !       1.78 eA-3
C171 0.354 0.905 0.384 !       1.77 eA-3
C172 0.793 0.543 0.213 !       1.77 eA-3
C173 0.885 0.467 0.459 !       1.76 eA-3
C174 0.464 0.623 0.274 !       1.76 eA-3
C175 0.170 0.154 0.355 !       1.75 eA-3
C176 0.457 0.656 0.133 !       1.74 eA-3
C177 0.889 0.467 0.431 !       1.74 eA-3
Q178 0.983 0.660 0.078 !       1.73 eA-3
C179 0.873 0.316 0.412 !       1.73 eA-3
C180 0.915 0.705 0.111 !       1.73 eA-3
C181 0.017 0.683 0.347 !       1.72 eA-3
C182 0.317 0.417 0.227 !       1.72 eA-3
C183 0.808 0.529 0.166 !       1.71 eA-3
C184 0.629 0.942 0.414 !       1.71 eA-3
C185 0.157 0.375 0.399 !       1.71 eA-3
C186 0.845 0.785 0.175 !       1.70 eA-3
Q187 0.930 0.723 0.211 !       1.70 eA-3
C188 0.684 0.159 0.284 !       1.70 eA-3
C189 0.500 0.506 0.094 !       1.69 eA-3
C190 0.668 0.236 0.127 !       1.68 eA-3
C191 0.851 0.098 0.233 !       1.68 eA-3
C192 0.500 1.013 0.031 !       1.67 eA-3
Q193 0.875 0.793 0.063 !       1.67 eA-3
C194 0.610 0.987 0.425 !       1.67 eA-3
C195 0.260 0.078 0.430 !       1.66 eA-3
C196 0.633 0.904 0.029 !       1.66 eA-3
Q197 0.998 0.904 0.202 !       1.66 eA-3
C198 0.954 0.719 0.416 !       1.66 eA-3
C199 0.281 0.344 0.001 !       1.66 eA-3
)
;
_shelx_shelxl_version_number     2014/7
_olex2_submission_special_instructions 'No special instructions were received'
loop_
_space_group_symop_operation_xyz
'x, y, z'
'-x, -y, z'
'-y, x, z'
'y, -x, z'
'-x+1/2, y+1/2, -z+1/2'
'x+1/2, -y+1/2, -z+1/2'
'y+1/2, x+1/2, -z+1/2'
'-y+1/2, -x+1/2, -z+1/2'
'-x, -y, -z'
'x, y, -z'
'y, -x, -z'
'-y, x, -z'
'x-1/2, -y-1/2, z-1/2'
'-x-1/2, y-1/2, z-1/2'
'-y-1/2, -x-1/2, z-1/2'
'y-1/2, x-1/2, z-1/2'
loop_
_atom_site_label
_atom_site_type_symbol
_atom_site_fract_x
_atom_site_fract_y
_atom_site_fract_z
_atom_site_U_iso_or_equiv
_atom_site_adp_type
_atom_site_occupancy
_atom_site_site_symmetry_order
_atom_site_calc_flag
_atom_site_refinement_flags_posn
_atom_site_refinement_flags_adp
_atom_site_refinement_flags_occupancy
_atom_site_disorder_assembly
_atom_site_disorder_group
Zr1 Zr 0.12371(17) 0.04481(19) 0.0000 0.0552(16) Uani 1 2 d S TU P . .
Zr2 Zr 0.0000 0.0000 0.07352(11) 0.0441(18) Uani 1 4 d S TU P . .
O5 O -0.0284(6) 0.0918(6) 0.1089(3) 0.101(4) Uiso 1 1 d . U . . .
O2 O 0.1729(7) 0.0610(6) -0.0606(4) 0.112(5) Uiso 1 1 d . U . . .
O4 O 0.0370(6) 0.0836(6) 0.0357(4) 0.116(5) Uiso 1 1 d . U . . .
O3 O 0.1685(11) 0.1518(11) 0.0000 0.148(8) Uiso 1 2 d S TU P . .
O1 O 0.2283(11) -0.0150(11) 0.0000 0.156(8) Uiso 1 2 d S TU P . .
C11 C -0.0254(10) 0.4151(7) 0.2232(5) 0.126(7) Uiso 1 1 d D U . . .
C3 C -0.0454(9) 0.1907(14) 0.1705(9) 0.221(11) Uiso 1 1 d D U . . .
H3 H -0.0288 0.1455 0.1754 0.265 Uiso 1 1 calc R . . . .
C12 C -0.02793(19) 0.47207(19) 0.2500 0.109(10) Uiso 1 2 d DS TU P . .
C1 C -0.0603(8) 0.1491(14) 0.1016(8) 0.173(9) Uiso 1 1 d D U . . .
C4 C -0.0489(11) 0.2386(15) 0.2023(7) 0.204(10) Uiso 1 1 d D U . . .
H4 H -0.0368 0.2276 0.2287 0.244 Uiso 1 1 calc R . . . .
C8 C -0.0786(8) 0.3656(11) 0.2195(6) 0.131(7) Uiso 1 1 d D U . . .
C13 C 0.0316(9) 0.4120(10) 0.1915(6) 0.164(10) Uiso 1 1 d D U . . .
H13A H 0.0144 0.4320 0.1667 0.246 Uiso 1 1 calc GR . . . .
H13B H 0.0447 0.3640 0.1869 0.246 Uiso 1 1 calc GR . . . .
H13C H 0.0717 0.4381 0.2005 0.246 Uiso 1 1 calc GR . . . .
C2 C -0.0662(8) 0.2094(15) 0.1314(9) 0.224(10) Uiso 1 1 d D U . . .
C5 C -0.0726(11) 0.3052(13) 0.1902(8) 0.181(9) Uiso 1 1 d D U . . .
C7 C -0.0903(11) 0.2754(16) 0.1193(8) 0.238(11) Uiso 1 1 d D U . . .
H7 H -0.1018 0.2866 0.0928 0.285 Uiso 1 1 calc R . . . .
C9 C -0.1293(12) 0.3707(12) 0.2500 0.170(12) Uiso 1 2 d DS TU P . .
C6 C -0.0953(11) 0.3226(13) 0.1513(9) 0.218(10) Uiso 1 1 d D U . . .
H6 H -0.1142 0.3669 0.1467 0.262 Uiso 1 1 calc R . . . .
C10 C -0.1851(12) 0.3149(12) 0.2500 0.215(16) Uiso 1 2 d DS TU P . .
H10A H -0.1769 0.2830 0.2281 0.322 Uiso 0.5 1 calc R . . A -1
H10B H -0.1836 0.2897 0.2751 0.322 Uiso 0.5 1 calc R . . A -1
H10C H -0.2304 0.3364 0.2469 0.322 Uiso 0.5 1 calc R . . A -1
loop_
_atom_site_aniso_label
_atom_site_aniso_U_11
_atom_site_aniso_U_22
_atom_site_aniso_U_33
_atom_site_aniso_U_23
_atom_site_aniso_U_13
_atom_site_aniso_U_12
Zr1 0.055(3) 0.073(3) 0.037(3) 0.000 0.000 -0.003(3)
Zr2 0.054(3) 0.054(3) 0.024(3) 0.000 0.000 0.000
loop_
_atom_type_symbol
_atom_type_description
_atom_type_scat_dispersion_real
_atom_type_scat_dispersion_imag
_atom_type_scat_source
C C 0.0030 0.0010 'International Tables Vol C Tables 4.2.6.8 and 6.1.1.4'
H H 0.0000 0.0000 'International Tables Vol C Tables 4.2.6.8 and 6.1.1.4'
O O 0.0110 0.0060 'International Tables Vol C Tables 4.2.6.8 and 6.1.1.4'
Zr Zr -11.6050 0.5510 'International Tables Vol C Tables 4.2.6.8 and 6.1.1.4'
loop_
_geom_angle_atom_site_label_1
_geom_angle_atom_site_label_2
_geom_angle_atom_site_label_3
_geom_angle
_geom_angle_site_symmetry_1
_geom_angle_site_symmetry_3
Zr1 Zr1 Zr1 90.0 3 11
Zr2 Zr1 Zr1 59.54(3) . 3
Zr2 Zr1 Zr1 59.54(3) . 11
Zr2 Zr1 Zr1 59.54(3) 9 11
Zr2 Zr1 Zr1 59.54(3) 9 3
Zr2 Zr1 Zr2 88.39(12) 9 .
O2 Zr1 Zr1 108.7(3) . 3
O2 Zr1 Zr1 108.7(3) 10 3
O2 Zr1 Zr1 107.6(3) . 11
O2 Zr1 Zr1 107.6(3) 10 11
O2 Zr1 Zr2 72.0(3) 10 .
O2 Zr1 Zr2 72.0(3) . 9
O2 Zr1 Zr2 160.3(4) . .
O2 Zr1 Zr2 160.3(4) 10 9
O2 Zr1 O2 127.7(7) . 10
O2 Zr1 O1 72.8(4) . .
O2 Zr1 O1 72.8(4) 10 .
O4 Zr1 Zr1 89.2(3) 11 3
O4 Zr1 Zr1 89.2(3) 10 11
O4 Zr1 Zr1 33.2(3) . 3
O4 Zr1 Zr1 34.3(3) 4 11
O4 Zr1 Zr1 89.2(3) 4 3
O4 Zr1 Zr1 33.2(3) 10 3
O4 Zr1 Zr1 89.2(3) . 11
O4 Zr1 Zr1 34.3(3) 11 11
O4 Zr1 Zr2 35.0(3) 4 .
O4 Zr1 Zr2 88.1(3) 4 9
O4 Zr1 Zr2 88.1(3) 11 .
O4 Zr1 Zr2 35.0(3) 11 9
O4 Zr1 Zr2 35.6(3) . .
O4 Zr1 Zr2 35.6(3) 10 9
O4 Zr1 Zr2 87.1(3) 10 .
O4 Zr1 Zr2 87.1(3) . 9
O4 Zr1 O2 75.5(4) 11 .
O4 Zr1 O2 77.4(4) 10 .
O4 Zr1 O2 139.8(5) 10 10
O4 Zr1 O2 139.5(5) 11 10
O4 Zr1 O2 139.8(5) . .
O4 Zr1 O2 139.5(5) 4 .
O4 Zr1 O2 75.5(4) 4 10
O4 Zr1 O2 77.4(4) . 10
O4 Zr1 O4 70.6(6) 11 10
O4 Zr1 O4 106.5(6) 11 .
O4 Zr1 O4 106.5(6) 4 10
O4 Zr1 O4 66.4(7) 10 .
O4 Zr1 O4 70.6(6) 4 .
O4 Zr1 O4 68.6(7) 11 4
O4 Zr1 O3 88.8(6) . .
O4 Zr1 O3 88.8(6) 10 .
O4 Zr1 O3 145.6(3) 11 .
O4 Zr1 O3 145.6(3) 4 .
O4 Zr1 O1 87.0(5) 4 .
O4 Zr1 O1 146.4(3) . .
O4 Zr1 O1 87.0(5) 11 .
O4 Zr1 O1 146.4(3) 10 .
O3 Zr1 Zr1 177.6(6) . 11
O3 Zr1 Zr1 87.6(6) . 3
O3 Zr1 Zr2 119.0(3) . 9
O3 Zr1 Zr2 119.0(3) . .
O3 Zr1 O2 73.2(4) . 10
O3 Zr1 O2 73.2(4) . .
O3 Zr1 O1 97.0(7) . .
O1 Zr1 Zr1 175.4(5) . 3
O1 Zr1 Zr1 85.4(5) . 11
O1 Zr1 Zr2 117.7(3) . 9
O1 Zr1 Zr2 117.7(3) . .
Zr1 Zr2 Zr1 91.61(12) 11 3
Zr1 Zr2 Zr1 60.93(7) 9 11
Zr1 Zr2 Zr1 91.61(12) 9 .
Zr1 Zr2 Zr1 60.93(7) 11 .
Zr1 Zr2 Zr1 60.93(7) 9 3
Zr1 Zr2 Zr1 60.92(7) 3 .
O5 Zr2 Zr1 113.9(3) 3 11
O5 Zr2 Zr1 110.3(3) . .
O5 Zr2 Zr1 168.3(3) 2 3
O5 Zr2 Zr1 168.3(3) . 11
O5 Zr2 Zr1 110.3(3) 3 3
O5 Zr2 Zr1 113.9(3) 2 .
O5 Zr2 Zr1 110.3(3) 2 9
O5 Zr2 Zr1 76.9(3) 2 11
O5 Zr2 Zr1 113.9(3) 4 3
O5 Zr2 Zr1 76.9(3) 4 .
O5 Zr2 Zr1 110.3(3) 4 11
O5 Zr2 Zr1 168.3(3) 4 9
O5 Zr2 Zr1 76.9(3) . 3
O5 Zr2 Zr1 113.9(3) . 9
O5 Zr2 Zr1 76.9(3) 3 9
O5 Zr2 Zr1 168.3(3) 3 .
O5 Zr2 O5 73.1(3) . 4
O5 Zr2 O5 73.1(3) 4 2
O5 Zr2 O5 73.1(3) 3 2
O5 Zr2 O5 114.7(7) 4 3
O5 Zr2 O5 114.7(7) . 2
O5 Zr2 O5 73.1(3) . 3
O4 Zr2 Zr1 35.9(3) 4 11
O4 Zr2 Zr1 89.7(4) 2 .
O4 Zr2 Zr1 90.7(3) . 11
O4 Zr2 Zr1 35.9(3) . .
O4 Zr2 Zr1 34.2(3) 4 .
O4 Zr2 Zr1 89.7(4) 3 11
O4 Zr2 Zr1 89.7(4) . 9
O4 Zr2 Zr1 35.9(3) 2 9
O4 Zr2 Zr1 90.7(3) 4 9
O4 Zr2 Zr1 90.7(3) 3 .
O4 Zr2 Zr1 89.7(4) 4 3
O4 Zr2 Zr1 34.2(3) . 3
O4 Zr2 Zr1 90.7(3) 2 3
O4 Zr2 Zr1 34.2(3) 2 11
O4 Zr2 Zr1 34.2(3) 3 9
O4 Zr2 Zr1 35.9(3) 3 3
O4 Zr2 O5 78.5(4) 3 3
O4 Zr2 O5 78.5(4) 4 4
O4 Zr2 O5 146.2(5) 2 .
O4 Zr2 O5 146.2(5) . 2
O4 Zr2 O5 78.5(4) . .
O4 Zr2 O5 82.3(5) . 4
O4 Zr2 O5 82.3(5) 4 2
O4 Zr2 O5 146.2(5) 4 3
O4 Zr2 O5 139.8(4) 4 .
O4 Zr2 O5 139.8(4) 3 2
O4 Zr2 O5 139.8(4) . 3
O4 Zr2 O5 82.3(5) 2 3
O4 Zr2 O5 82.3(5) 3 .
O4 Zr2 O5 146.2(5) 3 4
O4 Zr2 O5 78.5(4) 2 2
O4 Zr2 O5 139.8(4) 2 4
O4 Zr2 O4 108.5(7) . 2
O4 Zr2 O4 108.5(7) 3 4
O4 Zr2 O4 70.0(3) . 3
O4 Zr2 O4 70.1(3) 2 4
O4 Zr2 O4 70.1(3) . 4
O4 Zr2 O4 70.1(3) 2 3
C1 O5 Zr2 134.9(16) . .
C1 O2 Zr1 135.8(14) 11 .
Zr1 O4 Zr1 112.5(5) 3 .
Zr1 O4 Zr2 110.8(6) 3 .
Zr2 O4 Zr1 108.5(5) . .
C12 C11 C13 119.7(13) . .
C8 C11 C12 123.7(16) . .
C8 C11 C13 115.8(12) . .
C4 C3 H3 119.4 . .
C4 C3 C2 121(3) . .
C2 C3 H3 119.4 . .
C11 C12 C11 117.0(16) . 7_455
C11 C12 C12 121.5(8) . 8
C11 C12 C12 121.5(8) 7_455 8
O5 C1 O2 117(2) . 12
O5 C1 C2 124(3) . .
O2 C1 C2 112(2) 12 .
C3 C4 H4 123.4 . .
C3 C4 C5 113(2) . .
C5 C4 H4 123.4 . .
C11 C8 C5 121.3(14) . .
C11 C8 C9 113(2) . .
C9 C8 C5 124.6(17) . .
C11 C13 H13A 109.5 . .
C11 C13 H13B 109.5 . .
C11 C13 H13C 109.5 . .
H13A C13 H13B 109.5 . .
H13A C13 H13C 109.5 . .
H13B C13 H13C 109.5 . .
C3 C2 C1 113(3) . .
C7 C2 C3 126(3) . .
C7 C2 C1 121(3) . .
C4 C5 C8 122(3) . .
C6 C5 C4 125(2) . .
C6 C5 C8 113(3) . .
C2 C7 H7 123.7 . .
C6 C7 C2 113(3) . .
C6 C7 H7 123.7 . .
C8 C9 C8 128(3) 7_455 .
C8 C9 C10 116.0(16) . .
C8 C9 C10 116.0(16) 7_455 .
C5 C6 H6 119.1 . .
C7 C6 C5 122(3) . .
C7 C6 H6 119.1 . .
C9 C10 H10A 109.5 . .
C9 C10 H10B 109.5 . .
C9 C10 H10C 109.5 . .
H10A C10 H10B 109.5 . .
H10A C10 H10C 109.5 . .
H10B C10 H10C 109.5 . .
loop_
_geom_bond_atom_site_label_1
_geom_bond_atom_site_label_2
_geom_bond_distance
_geom_bond_site_symmetry_2
Zr1 Zr1 3.543(5) 11
Zr1 Zr1 3.543(5) 3
Zr1 Zr2 3.494(4) 9
Zr1 Zr2 3.494(4) .
Zr1 O2 2.237(13) 10
Zr1 O2 2.237(13) .
Zr1 O4 2.099(12) 4
Zr1 O4 2.099(12) 11
Zr1 O4 2.161(12) 10
Zr1 O4 2.161(12) .
Zr1 O3 2.21(2) .
Zr1 O1 2.29(2) .
Zr2 Zr1 3.494(4) 9
Zr2 Zr1 3.494(4) 11
Zr2 Zr1 3.494(4) 3
Zr2 O5 2.173(12) 2
Zr2 O5 2.173(12) 4
Zr2 O5 2.173(12) 3
Zr2 O5 2.173(12) .
Zr2 O4 2.145(12) 3
Zr2 O4 2.145(12) 2
Zr2 O4 2.145(12) 4
Zr2 O4 2.145(12) .
O5 C1 1.27(3) .
O2 C1 1.43(3) 11
O4 Zr1 2.099(12) 3
C11 C12 1.403(9) .
C11 C8 1.389(9) .
C11 C13 1.511(7) .
C3 H3 0.9300 .
C3 C4 1.393(10) .
C3 C2 1.402(10) .
C12 C11 1.403(9) 7_455
C12 C12 1.504(10) 8
C1 O2 1.43(3) 12
C1 C2 1.518(10) .
C4 H4 0.9300 .
C4 C5 1.403(10) .
C8 C5 1.509(10) .
C8 C9 1.401(9) .
C13 H13A 0.9600 .
C13 H13B 0.9600 .
C13 H13C 0.9600 .
C2 C7 1.396(10) .
C5 C6 1.399(10) .
C7 H7 0.9300 .
C7 C6 1.394(10) .
C9 C8 1.401(9) 7_455
C9 C10 1.503(10) .
C6 H6 0.9300 .
C10 H10A 0.9600 .
C10 H10B 0.9600 .
C10 H10C 0.9600 .
loop_
_geom_torsion_atom_site_label_1
_geom_torsion_atom_site_label_2
_geom_torsion_atom_site_label_3
_geom_torsion_atom_site_label_4
_geom_torsion
_geom_torsion_site_symmetry_1
_geom_torsion_site_symmetry_4
Zr2 O5 C1 O2 -24(2) . 12
Zr2 O5 C1 C2 -172.7(7) . .
O5 C1 C2 C3 -12.1(13) . .
O5 C1 C2 C7 168.0(16) . .
O2 C1 C2 C3 -162.5(14) 12 .
O2 C1 C2 C7 17.6(13) 12 .
C11 C8 C5 C4 96(3) . .
C11 C8 C5 C6 -86(3) . .
C11 C8 C9 C8 5.1(13) . 7_455
C11 C8 C9 C10 -174.9(13) . .
C3 C4 C5 C8 -178.3(15) . .
C3 C4 C5 C6 4(3) . .
C3 C2 C7 C6 -2.9(19) . .
C12 C11 C8 C5 -180(2) . .
C12 C11 C8 C9 -11(3) . .
C1 C2 C7 C6 177.0(11) . .
C4 C3 C2 C1 -178.2(11) . .
C4 C3 C2 C7 1.7(17) . .
C4 C5 C6 C7 -6(3) . .
C8 C11 C12 C11 5.9(15) . 7_455
C8 C11 C12 C12 -174.1(15) . 8
C8 C5 C6 C7 176.3(16) . .
C13 C11 C12 C11 176(2) . 7_455
C13 C11 C12 C12 -4(2) . 8
C13 C11 C8 C5 11(3) . .
C13 C11 C8 C9 179.3(16) . .
C2 C3 C4 C5 -2(2) . .
C2 C7 C6 C5 5(3) . .
C5 C8 C9 C8 173(3) . 7_455
C5 C8 C9 C10 -7(3) . .
C9 C8 C5 C4 -71(3) . .
C9 C8 C5 C6 107(2) . .
