#------------------------------------------------------------------------------
#$Date: 2019-11-25 22:30:06 +0200 (Mon, 25 Nov 2019) $
#$Revision: 241967 $
#$URL: file:///home/coder/svn-repositories/cod/cif/4/13/18/4131840.cif $
#------------------------------------------------------------------------------
#
# This file is available in the Crystallography Open Database (COD),
# http://www.crystallography.net/
#
# All data on this site have been placed in the public domain by the
# contributors.
#
data_4131840
loop_
_publ_author_name
'Yan, Yong'
'O'Connor, Alice E'
'Kanthasamy, Gopikkaa'
'Atkinson, George'
'Allan, David R.'
'Blake, Alexander J.'
'Schr\"oder, Martin'
_publ_section_title
;
 Unusual and Tunable Negative Linear Compressibility in the Metal-Organic
 Framework MFM-133(M) (M = Zr, Hf).
;
_journal_issue                   11
_journal_name_full               'Journal of the American Chemical Society'
_journal_page_first              3952
_journal_page_last               3958
_journal_paper_doi               10.1021/jacs.7b11747
_journal_volume                  140
_journal_year                    2018
_chemical_formula_moiety         'C88 H72 Hf6 O32'
_chemical_formula_sum            'C88 H72 Hf6 O32'
_chemical_formula_weight         2708.36
_space_group_crystal_system      tetragonal
_space_group_IT_number           128
_space_group_name_Hall           '-P 4 2n'
_space_group_name_H-M_alt        'P 4/m n c'
_atom_sites_solution_hydrogens   geom
_audit_creation_date             2017-02-05
_audit_creation_method
;
Olex2 1.2
(compiled 2015.09.30 svn.r3233 for OlexSys, GUI svn.r5103)
;
_cell_angle_alpha                90
_cell_angle_beta                 90
_cell_angle_gamma                90
_cell_formula_units_Z            2
_cell_length_a                   19.1867(13)
_cell_length_b                   19.1867(13)
_cell_length_c                   32.543(3)
_cell_measurement_reflns_used    3422
_cell_measurement_temperature    293(2)
_cell_measurement_theta_max      25.7810
_cell_measurement_theta_min      1.9410
_cell_volume                     11980.0(16)
_computing_cell_refinement
;
CrysAlisPro, Agilent Technologies,
Version 1.171.37.35 (release 13-08-2014 CrysAlis171 .NET)
(compiled Aug 13 2014,18:06:01)
;
_computing_data_collection
;
CrysAlisPro, Agilent Technologies,
Version 1.171.37.35 (release 13-08-2014 CrysAlis171 .NET)
(compiled Aug 13 2014,18:06:01)
;
_computing_data_reduction
;
CrysAlisPro, Agilent Technologies,
Version 1.171.37.35 (release 13-08-2014 CrysAlis171 .NET)
(compiled Aug 13 2014,18:06:01)
;
_computing_molecular_graphics    'Olex2 (Dolomanov et al., 2009)'
_computing_publication_material  'Olex2 (Dolomanov et al., 2009)'
_computing_structure_refinement  'ShelXL (Sheldrick, 2015)'
_computing_structure_solution    'ShelXS (Sheldrick, 2008)'
_diffrn_ambient_temperature      293(2)
_diffrn_detector_area_resol_mean 16.1592
_diffrn_detector_type            Eos
_diffrn_measured_fraction_theta_full 0.586
_diffrn_measured_fraction_theta_max 0.586
_diffrn_measurement_details
;
#__ type_ start__ end____ width___ exp.time_
  1 omega    4.00   58.00   1.0000   90.0000
omega____ theta____ kappa____ phi______ frames
    -       26.4870    0.0000  150.0000 54

#__ type_ start__ end____ width___ exp.time_
  2 omega   -5.00   43.00   1.0000   90.0000
omega____ theta____ kappa____ phi______ frames
    -       26.4870  -53.0000   17.0000 48

#__ type_ start__ end____ width___ exp.time_
  3 omega  -49.00  -16.00   1.0000   90.0000
omega____ theta____ kappa____ phi______ frames
    -       26.4870  134.0000  123.0000 33

#__ type_ start__ end____ width___ exp.time_
  4 omega  -30.00    4.00   1.0000   90.0000
omega____ theta____ kappa____ phi______ frames
    -       26.4870   39.0000  -12.0000 34

#__ type_ start__ end____ width___ exp.time_
  5 omega  -25.00   12.00   1.0000   90.0000
omega____ theta____ kappa____ phi______ frames
    -       26.4870   13.0000   -3.0000 37

#__ type_ start__ end____ width___ exp.time_
  6 omega    8.00   65.00   1.0000   90.0000
omega____ theta____ kappa____ phi______ frames
    -       26.4874  -97.0000 -143.0000 57

#__ type_ start__ end____ width___ exp.time_
  7 omega  -28.00  -20.00   1.0000   90.0000
omega____ theta____ kappa____ phi______ frames
    -       26.4870   97.0000  -35.0000 8

#__ type_ start__ end____ width___ exp.time_
  8 omega  -57.00   -2.00   1.0000   90.0000
omega____ theta____ kappa____ phi______ frames
    -      -28.0500   53.0000  -17.0000 55

#__ type_ start__ end____ width___ exp.time_
  9 omega   -4.00   15.00   1.0000   90.0000
omega____ theta____ kappa____ phi______ frames
    -      -28.0500  -81.0000   29.0000 19

#__ type_ start__ end____ width___ exp.time_
 10 omega   11.00   26.00   1.0000   90.0000
omega____ theta____ kappa____ phi______ frames
    -      -28.0500  -97.0000   35.0000 15

#__ type_ start__ end____ width___ exp.time_
 11 omega  -21.00   13.00   1.0000   90.0000
omega____ theta____ kappa____ phi______ frames
    -      -28.0500  -53.0000   17.0000 34

#__ type_ start__ end____ width___ exp.time_
 12 omega   -6.00   27.00   1.0000   90.0000
omega____ theta____ kappa____ phi______ frames
    -      -28.0500  -97.0000 -143.0000 33

#__ type_ start__ end____ width___ exp.time_
 13 omega  -20.00    4.00   1.0000   90.0000
omega____ theta____ kappa____ phi______ frames
    -       26.4870   81.0000  151.0000 24

#__ type_ start__ end____ width___ exp.time_
 14 omega   -7.00   51.00   1.0000   90.0000
omega____ theta____ kappa____ phi______ frames
    -       26.4870  -37.0000 -180.0000 58

#__ type_ start__ end____ width___ exp.time_
 15 omega  -29.00  -19.00   1.0000   90.0000
omega____ theta____ kappa____ phi______ frames
    -       26.4870   97.0000  -35.0000 10

#__ type_ start__ end____ width___ exp.time_
 16 omega   21.00   70.00   1.0000   90.0000
omega____ theta____ kappa____ phi______ frames
    -       26.4870 -114.0000   44.0000 49

#__ type_ start__ end____ width___ exp.time_
 17 omega  -52.00    5.00   1.0000   90.0000
omega____ theta____ kappa____ phi______ frames
    -      -28.0500   39.0000  167.0000 57

#__ type_ start__ end____ width___ exp.time_
 18 omega  -25.00   29.00   1.0000   90.0000
omega____ theta____ kappa____ phi______ frames
    -      -28.0500  -39.0000   12.0000 54

#__ type_ start__ end____ width___ exp.time_
 19 omega  -28.00   24.00   1.0000   90.0000
omega____ theta____ kappa____ phi______ frames
    -      -28.0500  -39.0000 -167.0000 52

#__ type_ start__ end____ width___ exp.time_
 20 omega   23.00   27.00   1.0000   90.0000
omega____ theta____ kappa____ phi______ frames
    -      -28.0500 -114.0000   44.0000 4
;
_diffrn_radiation_type           MoK\a
_diffrn_radiation_wavelength     0.71073
_diffrn_reflns_av_R_equivalents  0.3884
_diffrn_reflns_av_unetI/netI     0.4289
_diffrn_reflns_Laue_measured_fraction_full 0.586
_diffrn_reflns_Laue_measured_fraction_max 0.586
_diffrn_reflns_limit_h_max       23
_diffrn_reflns_limit_h_min       -21
_diffrn_reflns_limit_k_max       14
_diffrn_reflns_limit_k_min       -12
_diffrn_reflns_limit_l_max       38
_diffrn_reflns_limit_l_min       -27
_diffrn_reflns_number            17634
_diffrn_reflns_point_group_measured_fraction_full 0.586
_diffrn_reflns_point_group_measured_fraction_max 0.586
_diffrn_reflns_theta_full        25.955
_diffrn_reflns_theta_max         25.955
_diffrn_reflns_theta_min         1.954
_exptl_absorpt_coefficient_mu    2.619
_exptl_absorpt_correction_T_max  0.028
_exptl_absorpt_correction_T_min  0.003
_exptl_absorpt_correction_type   gaussian
_exptl_absorpt_process_details
;
CrysAlisPro, Agilent Technologies,
Version 1.171.37.35 (release 13-08-2014 CrysAlis171 .NET)
(compiled Aug 13 2014,18:06:01)
Numerical absorption correction based on gaussian integration over
			a multifaceted crystal model
Empirical absorption correction using spherical harmonics,
 implemented in SCALE3 ABSPACK scaling algorithm.
;
_exptl_crystal_density_diffrn    0.751
_exptl_crystal_F_000             2568
_exptl_crystal_size_max          0.1224
_exptl_crystal_size_mid          0.0976
_exptl_crystal_size_min          0.0524
_refine_diff_density_max         2.204
_refine_diff_density_min         -3.667
_refine_diff_density_rms         0.260
_refine_ls_extinction_coef       0.00015(12)
_refine_ls_extinction_expression Fc^*^=kFc[1+0.001xFc^2^\l^3^/sin(2\q)]^-1/4^
_refine_ls_extinction_method     'SHELXL-2014/7 (Sheldrick 2014'
_refine_ls_goodness_of_fit_ref   1.079
_refine_ls_hydrogen_treatment    constr
_refine_ls_matrix_type           full
_refine_ls_number_parameters     75
_refine_ls_number_reflns         3513
_refine_ls_number_restraints     113
_refine_ls_restrained_S_all      4.391
_refine_ls_R_factor_all          0.3713
_refine_ls_R_factor_gt           0.1800
_refine_ls_shift/su_max          0.097
_refine_ls_shift/su_mean         0.036
_refine_ls_structure_factor_coef Fsqd
_refine_ls_weighting_details
'w=1/[\s^2^(Fo^2^)+(0.2000P)^2^] where P=(Fo^2^+2Fc^2^)/3'
_refine_ls_weighting_scheme      calc
_refine_ls_wR_factor_gt          0.3851
_refine_ls_wR_factor_ref         0.4902
_reflns_Friedel_coverage         0.000
_reflns_number_gt                1003
_reflns_number_total             3513
_reflns_threshold_expression     'I > 2\s(I)'
_cod_data_source_file            HfMOF_All.cif
_cod_data_source_block           hfmof_17.9kbar
_cod_original_cell_volume        11980.0(19)
_cod_database_code               4131840
_shelx_space_group_comment
;
The symmetry employed for this shelxl refinement is uniquely defined
by the following loop, which should always be used as a source of
symmetry information in preference to the above space-group names.
They are only intended as comments.
;
_olex2_refinement_description
;
1. Fixed Uiso
 At 1.2 times of:
  All C(H) groups
 At 1.5 times of:
  All C(H,H,H) groups
2. Restrained distances
 O13-C12
 1.41 with sigma of 0.01
 C12-O1
 1.41 with sigma of 0.01
 C6-C12 = C9-C3
 1.41 with sigma of 0.02
 C6-C12 = C9-C3
 1.41 with sigma of 0.01
 C9-C3 = C6-C12
 1.41 with sigma of 0.01
 Hf1-O13 = Hf2-O1
 2.11 with sigma of 0.02
 O1-C12 = O13-C12
 1.41 with sigma of 0.02
 C9-C15 = C9-C10
 1.41 with sigma of 0.02
 C10-C11 = C16-C17
 1.45 with sigma of 0.005
 C4-C5 = C7-C8
 1.39 with sigma of 0.01
 C6-C12 \\sim C9-C3
 with sigma of 0.01
 C9-C3 \\sim C6-C12
 with sigma of 0.01
 C11-C10 \\sim C16-C15 \\sim C17-C15
 with sigma of 0.01
 C9-C17 \\sim C15-C17 \\sim C9-C11 \\sim C11-C9D
 with sigma of 0.005
 C3-C7 \\sim C8-C6 \\sim C7-C5 \\sim C6-C4 \\sim C5-C3 \\sim C4-C8
 with sigma of 0.01
3. Restrained planarity
 C12, C6, C5, C4, C3, C9, C8, C7
 with sigma of 0.01
 C9, C3, C8, C7, C6, C12, C5, C4
 with sigma of 0.01
 C9, C3, C8, C4
 with sigma of 0.01
 C17, C15, C16, C10, C9, C11
 with sigma of 0.01
4. Rigid bond restraints
 C6, Hf2, Hf1, C8, C3, C5, C4, C7, C9, C10, C11, C12, C15, C16, C17, O1, O4,
 O13, O19, O20
 with sigma for 1-2 distances of 0.01 and sigma for 1-3 distances of 0.01
5. Uiso/Uaniso restraints and constraints
C6 \\sim Hf2 \\sim Hf1 \\sim C8 \\sim C3 \\sim C5 \\sim C4 \\sim C7 \\sim C9
\\sim C10 \\sim C11 \\sim C12 \\sim C15 \\sim C16 \\sim C17 \\sim O1 \\sim O4
\\sim O13 \\sim O19 \\sim O20: within 1.7A with sigma of 0.04 and sigma for
terminal atoms of 0.08
6. Same fragment restrains
{C16, C15, C15D, C9D, C10, C9} sigma for 1-2: 0.01, 1-3: 0.04
as
{C9, C16, C15, C15D, C9D, C10}
7. Others
 Fixed Sof: C16(0.5) C15(0.5) C15D(0.00001) C9D(0.00001) C10(0.5) H11A(0.5)
 H11B(0.5) H11C(0.5)
 Fixed Uiso: C15D(0.05) C9D(0.05)
8.a Aromatic/amide H refined with riding coordinates:
 C4(H4), C5(H5), C7(H7), C8(H8)
8.b Fitted hexagon refined as free rotating group:
 C9(C16,C15,C15D,C9D,C10)
8.c Idealised Me refined as rotating group:
 C11(H11A,H11B,H11C), C17(H,HA,HB)
;
_shelx_res_file
;
    hfmof_16.4kbar.res created by SHELXL-2014/7

TITL HFMOF_16.4KBAR in P4/mnc #128
REM reset to P4/mnc #128
CELL 0.71073 19.186698 19.186698 32.542884 90 90 90
ZERR 2 0.00126 0.00126 0.003039 0 0 0
LATT 1
SYMM -Y,+X,+Z
SYMM -X,-Y,+Z
SYMM +Y,-X,+Z
SYMM 0.5+X,0.5-Y,0.5-Z
SYMM 0.5-X,0.5+Y,0.5-Z
SYMM 0.5+Y,0.5+X,0.5-Z
SYMM 0.5-Y,0.5-X,0.5-Z
SFAC C H Hf O
UNIT 176 136 12 64
DFIX 1.41 0.01 O13 C12
DFIX 1.41 0.01 C12 O1
DFIX 1.41 C6 C12 C9 C3
DFIX 1.41 0.01 C6 C12 C9 C3
DFIX 1.41 0.01 C9 C3 C6 C12
DFIX 2.11 Hf1 O13 Hf2 O1
DFIX 1.41 O1 C12 O13 C12
DFIX 1.41 C9 C15 C9 C10
DFIX 1.45 0.005 C10 C11 C16 C17
DFIX 1.39 0.01 C4 C5 C7 C8
SADI 0.01 C6 C12 C9 C3
SADI 0.01 C9 C3 C6 C12
SADI 0.01 C11 C10 C16 C15 C17 C15
SADI 0.005 C9 C17 C15 C17 C9 C11 C11 C9D
SADI 0.01 C3 C7 C8 C6 C7 C5 C6 C4 C5 C3 C4 C8
FLAT 0.01 C12 C6 C5 C4 C3 C9 C8 C7
FLAT 0.01 C9 C3 C8 C7 C6 C12 C5 C4
FLAT 0.01 C9 C3 C8 C4
FLAT 0.01 C17 C15 C16 C10 C9 C11
DELU C6 Hf2 Hf1 C8 C3 C5 C4 C7 C9 C10 C11 C12 C15 C16 C17 O1 O4 O13 O19 O20
SIMU 0.04 0.08 1.7 C6 Hf2 Hf1 C8 C3 C5 C4 C7 C9 C10 C11 C12 C15 C16 C17 O1 =
 O4 O13 O19 O20

L.S. 6
PLAN  9
MPLA 6 C3 C4 C5 C6 C7 C8
MPLA 4 C9 C10 C15 C16
CONN 1 0 C17
FREE C17 C15D
FREE C17 C15
BIND C16 C17
BIND Hf1 Hf2
BOND
MORE -1
BOND $H
CONF
fmap 2
acta 52
OMIT -4 52
OMIT 2 5 3
OMIT 0 1 3
OMIT 1 3 7
OMIT 0 3 3
OMIT 1 2 6
OMIT 0 2 6
OMIT 1 2 0
OMIT 0 5 5
OMIT 1 2 2
OMIT 4 4 4
OMIT 6 9 23
REM <olex2.extras>
REM <HklSrc "%.\\HFMOF_16.4KBAR.hkl">
REM </olex2.extras>

WGHT    0.200000
EXTI    0.000150
FVAR       0.94806
HF1   3   -0.041486    0.122476    0.000000    10.50000    0.09218    0.08004 =
         0.08672    0.00000    0.00000    0.00718
HF2   3    0.000000    0.000000    0.074836    10.25000    0.07674    0.07674 =
         0.07986    0.00000    0.00000    0.00000
O1    4   -0.025299    0.092135    0.109753    11.00000    0.06504
O4    4   -0.081510    0.034121    0.034359    11.00000    0.07799
O13   4   -0.060143    0.172013    0.058702    11.00000    0.07966
O19   4   -0.147487    0.164173    0.000000    10.50000    0.10429
O20   4    0.024545    0.217815    0.000000    10.50000    0.10934
C3    1   -0.069789    0.310515    0.191517    11.00000    0.09842
C4    1   -0.087453    0.328366    0.148577    11.00000    0.15849
SPEC 0.3
AFIX  43
H4    2   -0.103106    0.371921    0.140087    11.00000   -1.20000
AFIX   0
C5    1   -0.077698    0.271732    0.122437    11.00000    0.16178
AFIX  43
H5    2   -0.087929    0.279622    0.094894    11.00000   -1.20000
AFIX   0
C6    1   -0.057211    0.212253    0.130984    11.00000    0.08789
C7    1   -0.039325    0.194132    0.174364    11.00000    0.14434
AFIX  43
H7    2   -0.023652    0.150589    0.182864    11.00000   -1.20000
AFIX   0
C8    1   -0.049089    0.250529    0.200295    11.00000    0.10215
AFIX  43
H8    2   -0.038914    0.242772    0.227859    11.00000   -1.20000
AFIX  66
SAME 0.01 0.04 C16 C15 C15D C9D C10 C9
C9    1   -0.078393    0.365532    0.219915    11.00000    0.07586
C16   1   -0.026090    0.415657    0.219612    10.50000    0.02609
C15   1   -0.025270    0.471973    0.250618    10.50000    0.07475
C15D  1   -0.076877    0.469692    0.279291    10.00001   10.05000
C9D   1   -0.129181    0.419568    0.279594    10.00001   10.05000
C10   1   -0.129918    0.369285    0.250192    10.50000    0.08965
AFIX   0
C11   1   -0.181480    0.318520    0.250000    10.50000    0.14719
PART -1
AFIX 137
H11A  2   -0.199604    0.312859    0.277293    10.50000   -1.50000
H11B  2   -0.162096    0.275161    0.240720    10.50000   -1.50000
H11C  2   -0.218393    0.332437    0.231854    10.50000   -1.50000
AFIX   0
PART 0
C12   1   -0.049894    0.159822    0.100810    11.00000    0.06914
C17   1    0.025632    0.424323    0.196282    11.00000    0.21520
AFIX 137
H     2    0.052855    0.382362    0.195518    11.00000   -1.50000
HA    2    0.053752    0.461919    0.206482    11.00000   -1.50000
HB    2    0.009681    0.435288    0.169080    11.00000   -1.50000
AFIX   0
HKLF 4

REM  HFMOF_16.4KBAR in P4/mnc #128
REM R1 =  0.1800 for    1003 Fo > 4sig(Fo)  and  0.3713 for all    3513 data
REM     75 parameters refined using    113 restraints

END

WGHT      0.2000      0.0000

REM Highest difference peak  2.204,  deepest hole -3.667,  1-sigma level  0.260
Q1    1  -0.1230  0.0259  0.0494  11.00000  0.05    1.37
Q2    1  -0.1801  0.1050  0.0738  11.00000  0.05    1.13
Q3    1   0.0974  0.2323  0.0828  11.00000  0.05    1.07
Q4    1  -0.2189  0.1163  0.0917  11.00000  0.05    1.07
Q5    1  -0.1202  0.1042  0.0472  11.00000  0.05    1.05
Q6    1   0.0296  0.3761  0.0000  10.50000  0.05    1.02
Q7    1   0.2033  0.5132  0.1820  11.00000  0.05    0.96
Q8    1   0.0000  0.0000  0.2082  10.25000  0.05    0.95
Q9    1   0.0506  0.4108  0.1938  11.00000  0.05    0.90
;
_shelx_res_checksum              21388
_shelx_hkl_file
;
   0  -1   2 63.4275 334.065  16
   1   0  -2-10.4332 324.370   1
   0  -1   3 826676. 44256.1  16
   0  -1   3 875151. 42579.8   2
   0   1  -3 824856. 37288.5  18
   0   1  -4 467.961 1031.28  11
   0  -1   4-299.434 1227.13  16
   0  -1   4-232.438 1302.90   2
   0  -1   5 40818.7 6386.33   2
   0  -1   5 23899.8 5836.95  16
   0  -1   6-242.872 744.075   2
   0  -1   6-313.407 1254.16  16
   0  -1   7 18363.3 4245.59   2
   0  -1   8-72.2969 464.384   2
   0  -1   9 74237.5 9423.58   2
   0  -1  10 1173.00 2282.12   2
   0  -1  11 128891. 13070.3   2
   0  -1  12 1136.45 2772.71   2
   0  -1  13 92298.7 11862.8   2
   0  -1  14 9914.64 5887.67   2
   0  -1  15 88106.9 11830.9   2
   0  -1  16 15054.7 4836.46   2
   0  -1  17 50132.0 9999.85   2
   0  -1  18 4462.69 4430.63   2
   0  -1  19 13733.4 5047.09   2
   1  -1   2 548210. 21449.4  16
  -1  -1   2 523977. 25742.0   2
   1  -1   2 478422. 15654.5   8
   1   1  -2 521023. 24475.7  18
   1  -1   3 390.707 1465.41   8
  -1  -1   3 715.837 2142.97  16
   1   1  -3 408.329 2072.48  18
  -1  -1   3-556.693 1897.29   2
   1   1  -3 169.468 2013.87   1
   1  -1   3 664.518 3415.81  16
  -1  -1   4 36811.6 7626.42   2
   1   1  -4 46272.0 9256.69  11
  -1  -1   4 33289.9 4379.51   5
   1   1  -4 38170.1 6739.42   1
   1   1  -4 37686.7 7210.73  18
  -1  -1   4 26509.8 6233.37  16
  -1   1  -4 35224.0 5627.25  11
   1  -1   4 42887.3 9796.44  16
   1  -1   4 34378.1 6584.71   8
   1  -1   4 43143.5 6604.16   2
   1  -1   5 494.164 953.612   2
   1  -1   5 205.420 1990.02  16
  -1  -1   5 392.730 729.394   2
  -1  -1   5-313.266 467.185  16
   1   1  -5 49.5187 624.744   1
  -1  -1   5 278.726 318.745   5
  -1  -1   6 5827.96 2677.24  16
  -1  -1   6 13636.7 3873.25   2
   1  -1   6 7951.58 3606.82  16
   1   1  -6 11768.9 2910.63   1
   1  -1   6 13405.7 3163.80   2
   1  -1   7 718.584 1521.02  16
   1   1  -7 188.836 498.443   1
   1  -1   7-341.396 457.793   2
  -1  -1   7-724.228 1065.27   2
   1   1  -8 13276.6 3221.70   1
  -1  -1   8 30547.2 6101.00   2
   1  -1   8 26389.7 4863.61   2
   1  -1   9 383.125 912.611   2
   1   1  -9-902.306 1530.53   1
  -1  -1   9-1032.19 1316.44   2
   1  -1  10 48311.3 6888.59   2
  -1  -1  10 58036.6 8767.29   2
   1  -1  11 372.749 1469.69   2
  -1  -1  11-678.242 1127.09   2
   1  -1  12 77505.3 9698.68   2
  -1  -1  12 76689.5 10891.4   2
  -1  -1  13 6473.57 5488.19   2
   1  -1  13 766.602 2122.83   2
   1  -1  14 60246.0 8992.75   2
  -1  -1  14 70516.0 11141.3   2
   1  -1  15 3011.60 3047.05   2
  -1  -1  15 24614.7 8053.43   2
  -1  -1  16 51655.4 9893.56   2
   1  -1  16 47252.5 8032.93   2
  -1  -1  17 15130.3 6751.56   2
   1  -1  17-1845.55 2598.33   2
   1  -1  18 20328.3 5997.36   2
  -1  -1  18 21009.9 7042.93   2
   1  -1  19-568.390 1453.09   2
  -1  -1  19 3113.04 3133.02   2
   2   0   0 750793. 33040.3   8
  -2   0   0 752069. 36897.2   5
  -2   0   0 811913. 38650.3   4
  -2   0   1-144.328 251.760   5
  -2   0  -1-76.3919 373.074   5
   2   0   1-219.853 916.575   1
   2   0   1-321.073 396.157  14
   2   0  -1 64.6405 617.934  14
   2   0   1 1681.87 2159.36   8
  -2   0  -1-746.978 1929.03   4
   2   0  -1-11.2970 365.997   8
   2   0  -1-58.4850 209.312   1
  -2   0   1-266.339 439.080   4
  -2   0   1 52.8463 311.666   2
   2   0  -2 116820. 9914.33   1
  -2   0   2 100466. 7302.92   5
   2   0  -2 123160. 8341.75  14
   2   0  -3 115.156 199.633  14
   2   0  -3-13.2466 236.877   1
  -2   0   3-60.4071 12.0105   2
   0  -2   4 63493.1 8347.65   6
   0  -2   4 55549.7 9363.88  16
   2   0  -4 22234.5 4336.80   1
   2   0  -4 23708.9 3415.15  14
  -2   0   4 14939.0 3038.07   2
   0   2  -4 32180.9 6444.11  18
   0   2  -5-983.052 2935.64  18
   0  -2   5-349.354 1304.34   6
   0  -2   5-804.875 1583.95  16
   0  -2   5-54.2368 1031.27   2
  -2   0   5 116.075 270.895   2
   0  -2   6 36465.2 9364.53   2
   0  -2   6 38510.2 10414.1  16
   0  -2   6 31133.3 3823.75   8
   0   2  -6 44686.8 9651.09  18
   0  -2   7-1420.96 3561.11   2
   0  -2   7 274.235 129.591   8
   0   2  -7 569.813 562.513   1
   0   2  -7-260.418 814.256  11
   0  -2   7-872.030 1903.78  16
   0   2  -7 1088.18 1962.42  18
   0   2  -8 1997.52 1504.83   1
   0  -2   8 4544.12 3837.64   2
   0  -2   8 2440.56 1656.15   8
   0  -2   8 2518.30 1696.96  16
   0   2  -9 193.782 2337.41   1
   0  -2   9 4289.29 6674.96  16
   0  -2   9-37.0586 4338.55   2
   0  -2  10 93594.9 15931.1  16
   0   2 -10 57788.7 6824.71   1
   0  -2  10 108047. 15177.2   2
   0  -2  11 826.382 2095.40   2
   0  -2  11-571.559 618.055  16
  -2   0  11-2249.16 2327.54   2
   0   2 -11-541.158 1106.31   1
   0  -2  12 70513.1 11661.0   2
   0   2 -12 22312.2 4111.54   1
  -2   0  12 19960.6 4924.94   2
   0  -2  12 51271.4 11781.4  16
   0  -2  13-912.449 2379.04   2
   0   2 -13 1056.69 1424.34   1
   0  -2  13-2160.10 2363.38  16
   0  -2  14 48883.9 9471.23   2
   0  -2  14 41248.7 10716.7  16
   0  -2  15-2384.93 2274.11   2
   0   2 -15 919.455 1147.26   1
   0  -2  15 869.480 3004.99  16
   0  -2  16 13353.9 5822.28  16
   0  -2  16 16210.7 5195.44   2
   0   2 -16 3177.70 1899.92   1
   0   2 -17 70.4697 939.144   1
   0  -2  17 1225.40 2629.11   2
   0  -2  17-2864.51 4518.46  16
   0  -2  18 3475.05 1920.37  16
   0   2 -18 321.134 1087.77   1
   0  -2  18 2632.86 1694.78   2
   0  -2  19-2634.57 2815.78   2
   0  -2  19 3263.35 3627.02  16
   0   2 -19-182.624 1408.23   1
   0   2 -20-1002.34 1580.66   1
   0  -2  20-1491.66 3080.40   2
   0  -2  20-173.893 1304.42  16
   0  -2  21-1255.73 778.806   2
   0  -2  21 1098.14 3753.53  16
   0  -2  22 53.4134 1400.07  16
   0  -2  22 1493.32 2556.42   2
   0  -2  23-234.969 1197.35  16
   0  -2  23-5011.53 3889.35   2
   0  -2  24 666.067 1643.35   2
   0  -2  24 4497.63 7141.17  16
   0  -2  25 37429.4 16458.8  16
   2  -1   0 7016.66 2048.52  14
   2  -1   1 117087. 7772.56   1
   2  -1   1 157682. 11508.8   6
   2  -1   1 168205. 11347.6   8
   2   1  -1 92961.3 10322.5  18
   2  -1   1 150923. 9671.03  14
   2  -1   2 3498.16 1995.05   8
   2   1  -2 2898.27 1605.67   8
   2  -1   2 2947.81 1319.09   1
   2  -1   2 4293.03 2306.69   6
  -2  -1   2 1772.11 1609.21   4
  -2  -1   2 2537.93 1321.13   5
   2   1  -2 4027.95 2892.91   1
  -2  -1   2 2110.10 1786.88   2
   2   1  -2 6103.09 3523.97  18
  -2   1  -2 3025.31 1991.92   4
   2  -1   2 2836.00 1551.35  14
  -2   1  -2 2818.99 1401.84   5
   2  -1   2 2097.04 1531.17  16
  -2  -1   3 157468. 20013.7   2
  -2   1  -3 125027. 15447.2   4
   2  -1   3 172011. 18624.4   8
  -2   1  -3 119186. 12393.2   5
   1  -2   3 58571.3 8056.84   6
   2  -1   3 123452. 14599.1  16
   2   1  -3 141643. 19598.1   1
   2   1  -3 140329. 18497.1  18
   2  -1   3 109292. 10813.2  14
  -2  -1   3 98258.2 13986.3   5
  -2  -1   3 111526. 12098.5   4
  -2  -1   3 122724. 12686.2  16
   2  -1   4 3872.40 3771.53   8
  -2  -1   4 2814.65 2336.99   2
   2  -1   4 5026.87 2202.51  14
   2   1  -4 1261.04 865.850  14
  -1  -2   4 3625.18 1847.58   6
   1  -2   4 2397.58 2072.35   6
  -1  -2   4 697.656 1503.50   2
   1  -2   4 1700.43 1517.40  16
   1   2  -4 3342.53 3124.52  18
   2   1  -4 3364.72 2137.05   1
  -2   1  -4 2209.12 1923.92   4
  -2  -1   4 2888.08 2352.52  16
   2   1  -4 4070.40 3123.07  18
  -2  -1   4 3270.47 1490.53   4
  -2  -1   4 1597.19 1139.61   5
  -1  -2   4 1633.53 809.480  16
   2   1  -4 6142.91 4616.90  11
   2  -1   4 3126.68 1913.83  16
   1  -2   5 9923.83 2082.41  14
  -1  -2   5 15438.2 7773.14   2
  -1   2  -5 11655.7 3890.07  18
   2   1  -5 8126.04 2138.30  14
   2  -1   5 6219.55 3380.26   8
  -2  -1   5 3984.07 2017.01  16
   1  -2   5 19841.4 6913.33   6
   2  -1   5 9617.65 4634.13  16
   1  -2   5 12554.2 5295.14  16
  -2  -1   5 8536.33 2745.24   5
   2  -1   5 10513.1 2520.82   2
   1   2  -5 18666.7 7963.84  18
  -1   2  -5 18952.3 4166.38   4
  -1  -2   5 13899.6 5163.22  16
   1  -2   5 8700.73 2418.06   8
   1  -2   5 6215.56 3333.72   2
   2   1  -5 11108.3 3907.29   1
  -2  -1   5 8094.51 3379.66   2
   1  -2   6 2245.78 401.474   8
  -2  -1   6 1594.45 988.202   5
  -1   2  -6 499.862 598.289   4
   1  -2   6 3292.79 2069.26  16
   2  -1   6 2134.91 1965.32  16
   2   1  -6 1643.52 954.738   1
  -1   2  -6 1276.98 1040.96  18
   1  -2   6 2430.72 2278.83   2
  -1  -2   6 2852.86 1471.00   2
   1   2  -6 659.130 556.647   1
  -2  -1   6 1892.15 1631.34   2
   1  -2   6 3139.75 1297.02  14
   2   1  -6 2323.61 1143.43  14
   2  -1   6 1785.41 910.604   2
  -1  -2   6 2050.88 3793.75  16
   1   2  -6 2194.02 2407.26  18
   2   1  -7 7887.30 1744.94  14
   1   2  -7 11158.2 4746.21   1
   1  -2   7 17308.3 6015.90   2
   1  -2   7 14035.2 3810.99   8
   2   1  -7 7326.44 2909.99   1
  -2  -1   7 8649.27 2300.96   5
  -2  -1   7 9373.64 3418.55   2
   2  -1   7 5501.11 2556.81  16
   1   2  -7 13425.7 5606.15  18
   1   2  -7 22048.8 8053.33  11
  -1  -2   7 11886.7 3287.79   5
  -1   2  -7 17098.4 5642.71  11
   1  -2   7 10662.8 2826.93  14
   2  -1   7 7374.74 2175.44   2
  -1  -2   7 16124.2 6288.29  16
  -1  -2   7 20531.1 8637.99   2
   1  -2   7 18219.8 7313.21  16
  -1  -2   8-1487.55 5479.58  16
   2  -1   8 2003.50 2181.22  16
   2  -1   8 1423.62 889.187   2
   2   1  -8 765.511 430.068  14
   1  -2   8 964.165 489.098   8
   1  -2   8 5490.48 3783.33   2
  -1  -2   8 3056.81 1647.96   5
   2   1  -8 1437.43 1617.96   1
  -1  -2   8 2577.37 1386.81   2
   1   2  -8 2243.70 2207.49   1
   1   2  -8 884.596 1949.92  11
  -2  -1   8 1682.90 1864.30   2
   1  -2   8 2418.02 2234.29  16
   1  -2   9 425.342 2464.58  16
  -1  -2   9 4504.79 4098.15  16
  -1  -2   9 850.514 849.698   5
  -2  -1   9-67.2991 681.093   2
   2  -1   9 374.803 828.672   2
   2   1  -9 635.729 1268.23   1
   2  -1   9 887.179 687.640  16
   1  -2   9 337.916 1265.88   8
   1  -2   9 558.858 2146.10   2
   2   1  -9 189.873 596.165  14
   1   2  -9-366.455 1308.07   1
  -1  -2   9 434.266 2277.49   2
  -1  -2  10 2035.83 587.398   5
  -1  -2  10 3524.12 3957.14   2
  -2  -1  10 318.095 160.387   2
   1  -2  10 3419.93 2656.62   2
   1  -2  10 356.414 4057.11  16
   2   1 -10 1394.18 1885.43   1
  -1  -2  10 1890.98 3399.47  16
   1   2 -10 1067.75 1141.33   1
   1  -2  10 1065.41 506.666   8
  -1   2 -10 856.422 276.490   1
   2  -1  10 1118.04 1158.83   2
  -1  -2  11 33166.0 8673.93  16
   2   1 -11 8029.74 2977.15   1
   1   2 -11 27740.0 5673.59   1
  -1  -2  11 38826.0 4165.01   5
  -1  -2  11 52301.2 10701.3   2
   1  -2  11 41938.0 10983.4  16
   1  -2  11 61504.7 10222.4   2
  -2  -1  11 29031.5 6752.49   2
   2  -1  11 26803.4 5120.55   2
  -1   2 -11 12569.1 2378.18   1
   2   1 -12 840.260 1398.23   1
  -1  -2  12 1516.76 3939.49  16
   1  -2  12 4475.67 4876.59  16
   1  -2  12 100.882 1241.00   2
  -1  -2  12 1486.68 2413.56   2
  -1   2 -12 63.6306 492.301   1
   2  -1  12-480.315 1043.44   2
   1   2 -12-826.198 1657.30   1
   2  -1  13 28809.4 5578.04   2
   1  -2  13 50259.7 9493.51   2
  -1  -2  13 33216.6 9510.21  16
   2   1 -13 4509.72 2666.75   1
   1   2 -13 16931.8 4313.57   1
  -1  -2  13 42619.8 9592.59   2
   1  -2  13 34464.0 9342.17  16
  -2  -1  13 28909.1 7405.00   2
   1  -2  14 722.831 2360.17   2
   1  -2  14 3310.66 7784.46  16
  -1  -2  14 1792.37 4536.95  16
  -1   2 -14 934.531 1026.50   1
   2   1 -14 2056.40 2469.40   1
   2  -1  14-1553.31 1570.83   2
  -2  -1  14 5717.50 4791.76   2
  -1  -2  14 4758.71 3780.59   2
   1   2 -14 3694.55 3290.93   1
   1  -2  15 16473.4 7406.47  16
   1   2 -15 3875.52 1665.28   1
   2   1 -15 345.234 1071.24   1
  -1  -2  15 14061.5 5266.36  16
  -1   2 -15-72.3278 1231.86   1
  -2  -1  15 13027.9 5857.16   2
   2  -1  15 12446.6 3746.95   2
  -1  -2  15 16041.1 6061.74   2
   1  -2  15 13446.5 5302.55   2
   1   2 -16 3005.41 2443.31   1
  -2  -1  16 6985.43 4986.15   2
  -1  -2  16 6607.10 4489.12  16
   1  -2  16 3202.22 4043.65  16
   1  -2  16-8517.13 4077.77   2
   2  -1  16 652.028 1572.35   2
  -1   2 -16-790.699 1481.94   1
  -1  -2  16 6235.21 3878.82   2
   1  -2  17 2930.27 1474.37   2
   2  -1  17 4335.99 3088.65   2
  -1   2 -17 307.665 1326.80   1
  -2  -1  17 1948.05 2321.18   2
   1   2 -17 72.2433 667.863   1
   1  -2  17 538.165 2411.64  16
  -1  -2  17 1085.44 3022.78  16
  -1  -2  17 2069.09 1135.23   2
   1  -2  18 629.172 2214.80  16
  -1  -2  18 375.218 1586.85   2
   1  -2  18-951.952 2625.55   2
   1   2 -18 620.685 1897.47   1
  -1   2 -18 1060.42 819.788   1
  -1  -2  18 6257.22 4599.49  16
   2  -1  18-912.200 1364.29   2
   1   2 -19-1842.10 2292.24   1
  -1  -2  19 795.861 1708.51   2
  -1  -2  19 334.976 3499.54  16
   2  -1  19-1911.26 3630.23   2
   1  -2  19 2132.37 425.508   2
  -1   2 -19 266.422 1166.11   1
  -2  -1  19 600.404 1502.23   2
   1  -2  19 1684.68 4234.49  16
   1   2 -20-552.225 974.422   1
  -1  -2  20 4452.04 4303.18  16
  -1  -2  20 1287.25 974.761   2
   1  -2  20 7132.43 4764.53   2
  -1  -2  21 3049.05 1506.19   2
   1  -2  21-1418.43 2372.94   2
  -1  -2  21-1308.80 1835.70  16
   1  -2  21 1134.59 3823.52  16
   2  -1  21-2455.89 3083.71  16
   1   2 -21 168.592 340.652   1
  -1  -2  22 2062.77 4351.31  16
   1  -2  22 1046.29 934.481   2
   1  -2  22-1481.07 3507.80  16
  -1  -2  22-1619.11 2657.91   2
  -1  -2  23 475.879 2658.41  16
   1  -2  23 3651.90 4729.72  16
   1  -2  23-53.5431 571.563   2
  -1  -2  24 656.641 1584.10   2
   1  -2  24-1195.58 3383.56  16
  -1  -2  24 929.864 5040.95  16
   1  -2  24-2621.47 4674.72   2
   1  -2  25 15265.6 10622.8  16
   2   2  -3 1000.07 2075.33  18
   2  -2   3-35.0907 518.699   6
   2  -2   3 46.6204 304.982  14
   2   2  -4 7948.76 4476.71  18
  -2   2  -4 6000.93 1448.88   5
  -2  -2   4 3217.20 1920.21  16
   2  -2   4 9761.19 3862.35   6
   2  -2   4 5561.00 1846.84  14
   2  -2   4 5970.77 2182.13   8
  -2  -2   4 4715.36 3141.78   2
  -2   2  -4 10808.4 3212.91   4
   2  -2   4 6373.16 2996.79  16
  -2  -2   5 1304.05 2874.76  16
  -2   2  -5 1458.80 1714.52   4
   2  -2   5-794.993 696.039   6
   2   2  -5 571.215 3784.24  18
   2   2  -5-350.775 1692.42   1
   2  -2   5 753.134 1784.92  16
  -2  -2   5-1445.01 1170.25   2
   2  -2   5 95.0375 313.529   8
  -2   2  -5-818.742 1105.34  18
  -2   2  -5-365.832 593.608   5
   2  -2   5-231.371 628.094  14
   2  -2   6 279027. 18555.0  14
   2   2  -6 322627. 32743.2  11
  -2   2  -6 150421. 15576.8   4
   2   2  -6 160917. 19162.2   1
   2   2  -6 246797. 24984.5  18
  -2  -2   6 244929. 22997.4  16
   2  -2   6 272296. 19622.8   8
   2  -2   6 243632. 25928.3  16
  -2  -2   6 195898. 23167.1   2
  -2  -2   6 115937. 12682.4   5
  -2   2  -6 233065. 13610.4  18
   2  -2   6 115933. 12100.9   2
   2  -2   7 941.610 2243.88  16
   2  -2   7 1000.89 1865.07  14
   2   2  -7 2658.03 3579.18   1
  -2  -2   7-1032.35 3044.50  16
  -2  -2   7-5153.58 4095.43   2
   2  -2   7 95.1104 1536.04   8
   2   2  -7-304.771 1289.10  18
  -2   2  -7-258.903 294.000  11
  -2  -2   7-698.099 261.360   5
   2   2  -7 570.222 3268.59  11
   2  -2   7-376.156 1760.25   2
   2   2  -8 14814.5 7960.09  11
   2   2  -8 4631.41 2829.78   1
   2  -2   8 8248.22 3794.09   8
  -2  -2   8 9085.24 3582.69   5
   2  -2   8 10773.3 5019.90   2
  -2  -2   8 3733.47 3172.16  16
  -2  -2   8 11431.6 6198.48   2
   2  -2   8 14513.5 7450.68  16
  -2  -2   9-284.476 330.537   5
   2  -2   9 825.255 3387.00   8
   2   2  -9-115.117 2162.37   1
  -2  -2   9 2537.32 317.451  16
   2  -2   9 2270.45 5747.03  16
  -2  -2   9-2476.46 4098.62   2
   2  -2   9 361.832 1997.97   2
  -2  -2  10 6252.65 3632.92   2
   2  -2  10 7701.87 3613.32   8
   2  -2  10 10720.7 4295.07   2
   2   2 -10 6046.56 3210.11   1
   2  -2  10 6037.68 3098.17  16
  -2  -2  10 6689.62 2700.87   5
  -2  -2  10 6504.28 5451.97  16
  -2  -2  11-88.5622 606.454   5
   2   2 -11-628.723 677.757   1
  -2  -2  11 1128.61 2768.76   2
   2  -2  11 1077.71 1909.36   8
  -2  -2  11 1032.52 1622.84  16
   2  -2  11-506.699 2747.54  16
   2  -2  11-33.9491 1506.31   2
   2  -2  12 18879.1 7998.81  16
   2  -2  12 26026.1 6229.85   2
  -2  -2  12 14250.8 6101.42  16
  -2  -2  12 20963.5 3768.98   5
   2   2 -12 16821.8 5912.90   1
   2  -2  12 11973.5 4366.64   8
  -2  -2  12 22907.0 7471.81   2
   2   2 -13 379.669 1686.77   1
   2  -2  13 570.545 2374.75  16
  -2  -2  13-150.242 1274.99   2
  -2  -2  13-1964.79 2579.80  16
  -2  -2  13-645.431 889.800   5
   2  -2  13 357.836 202.504   2
  -2  -2  14 10025.8 2624.85   5
   2  -2  14 8425.27 5183.09  16
  -2  -2  14 3861.31 1713.56  16
   2   2 -14 1926.85 872.234   1
   2  -2  14 9183.11 3311.43   2
  -2  -2  14 10771.9 5868.69   2
   2   2 -15-577.768 1332.89   1
  -2  -2  15 264.079 608.211   5
   2  -2  15 2005.71 2432.95   2
   2  -2  15 299.853 2908.59  16
  -2  -2  15-1772.13 3084.97  16
  -2  -2  15-2375.12 2495.98   2
  -2  -2  16-2058.64 2940.78   2
  -2  -2  16 741.071 3676.58  16
  -2  -2  16-1156.95 1793.98   5
   2  -2  16-1940.10 3034.49   2
   2  -2  16 524.025 1383.20  16
   2   2 -16 1020.64 1433.53   1
  -2  -2  17 615.817 2119.84   2
   2  -2  17 2896.99 3495.53  16
  -2  -2  17-896.073 2817.61  16
   2  -2  17-2686.66 2521.88   2
   2   2 -17-1407.68 1628.44   1
   2  -2  18 2969.03 1981.66   2
   2   2 -18-170.524 1587.09   1
  -2  -2  18 10149.7 6111.83  16
  -2  -2  18 12842.2 6619.87   2
   2  -2  18 9066.26 6975.56  16
  -2  -2  19-2676.22 2762.61  16
  -2  -2  19-3075.76 3968.68   2
   2   2 -19-136.856 2535.97   1
   2  -2  19-4370.32 2871.37   2
   2  -2  19 995.112 2745.99  16
  -2  -2  20 14327.7 6025.89   2
   2  -2  20 10533.5 6158.10  16
   2   2 -20-375.404 1028.12   1
  -2  -2  20 7161.83 4206.34  16
   2  -2  20 10577.5 4280.56   2
  -2  -2  21 4349.47 4934.62  16
   2   2 -21-1349.18 2899.21   1
   2  -2  21-3613.09 4882.93   2
   2  -2  21 5152.89 6364.16  16
  -2  -2  21-8845.64 5118.19   2
   2  -2  22 4387.25 5804.43  16
  -2  -2  22 8160.00 4787.12   2
  -2  -2  22 1557.52 3150.97  16
   2  -2  22 5452.70 3359.29   2
  -2  -2  23-4205.10 4770.97   2
   2  -2  23 666.515 2371.37   2
  -2  -2  23 1425.26 1607.24  16
   2  -2  23 2565.48 5206.35  16
   2  -2  24 2572.01 5141.86  16
  -2  -2  24-235.646 3389.30  16
   2  -2  24-2078.32 4982.57   2
  -2  -2  24-3375.97 4416.59   2
   2  -2  25 2350.46 5821.28   2
   2  -2  25 1295.11 5085.35  16
   3   0   0 169.581 1314.06  11
   3   0   0 251.378 2110.99   6
   3   0   0 58.8274 593.817   1
   3   0   0 487.864 1807.68   8
  -3   0   0 72.4065 1924.58   4
  -3   0   0-231.233 911.060   2
  -3   0   0 1234.92 2287.30   5
   3   0   0-226.487 1127.00  18
   3   0   0 399.110 1170.80  14
  -3   0  -1 58316.8 12121.2   5
   3   0   1 105497. 12023.5  18
   3   0   1 96615.2 16108.7   8
  -3   0   1 79485.8 11070.3   4
   3   0   1 102170. 16220.1   1
   3   0  -1 73548.4 8987.64   8
   3   0  -1 70250.0 9551.04  14
  -3   0  -1 74594.8 15660.1   4
   3   0  -1 99905.0 13808.5   1
   3   0  -1 77914.3 7067.13   6
  -3   0   1 66655.7 9550.47   5
   3   0   1 59937.0 10759.0  14
  -3   0   1 55823.1 7019.89   2
   3   0   2-10.8105 1288.99   8
  -3   0   2 1017.55 1285.04   4
  -3   0  -2 3028.41 3618.23   4
  -3   0   2 300.303 461.138   2
  -3   0   2-229.890 433.913   5
   3   0  -2 6.95090 517.768   1
   3   0  -2-100.623 604.624  14
   3   0   2-153.199 253.755  16
   3   0  -3 1029.58 1029.77  14
  -3   0   3 529.673 75.6215   2
  -3   0   3 1000.20 1278.37   5
   3   0  -3 547.805 339.709   1
   3   0  -4-380.888 936.477   1
   3   0  -4-221.232 647.091  14
  -3   0   4 122.133 289.141   5
  -3   0   4-31.3717 487.867   2
   3   0  -5 2283.01 1827.60   1
   3   0  -5 1958.84 1078.65  14
   0  -3   5 3876.85 2428.30   6
  -3   0   5 1521.75 925.488   2
   0  -3   6 796.629 649.463   6
   0   3  -6 808.395 653.986  18
   3   0  -6-517.523 622.672   1
   0  -3   6-1691.84 1895.67  16
   3   0  -6 499.557 630.794  14
  -3   0   6 18.0064 1529.46   2
   0   3  -7 149538. 19744.4  18
   0  -3   7 154685. 19297.9   6
   0  -3   7 134817. 19744.6  16
   0  -3   8 2014.06 3005.65   2
  -3   0   8-882.203 1683.63   2
   0  -3   8 1844.09 4140.32  16
   3   0  -8-874.547 1752.93   1
   0   3  -8 1607.22 3407.71  18
   0   3  -9 391.868 2467.95  11
   0  -3   9 3338.80 3057.72   2
   0   3  -9 1934.48 1854.44  18
   0  -3   9 575.447 436.600   8
   3   0  -9-2324.98 3139.30   1
  -3   0   9-113.988 445.371   2
   0  -3   9 1382.58 1366.45  16
  -3   0  10-1003.59 1830.00   2
   0  -3  10-1270.73 1380.17   8
   0  -3  10 890.838 2887.69  16
   0   3 -10 1008.17 1761.85  11
   0  -3  10 2911.54 2680.09   2
   0   3 -11 1395.35 1710.11   1
   0  -3  11 441.019 763.055   8
  -3   0  11 888.367 1051.35   2
   0  -3  11-592.521 2813.29   2
   0  -3  11 3955.46 3653.07  16
  -3   0  12-1167.52 1898.62   2
   0  -3  12 952.973 3116.65   2
   0  -3  12 1098.58 3695.93  16
   0  -3  12 247.380 744.872   8
   0   3 -12-749.759 736.595   1
   0   3 -13 4658.26 1683.22   1
   0  -3  13 23366.3 4234.04   8
   0  -3  13 18719.2 9247.38  16
   0  -3  13 19569.2 7581.17   2
  -3   0  13 5915.20 3560.55   2
   0  -3  14 223.648 6240.79  16
   0  -3  14-1314.19 670.898   5
   0   3 -14 419.803 1745.45   1
   0  -3  14-1042.07 1922.36   8
   0  -3  14 5159.56 8073.74   2
   0  -3  15 7012.60 2115.67   5
   0  -3  15 11272.8 6410.98   2
   0  -3  15 13274.5 8526.56  16
   0   3 -15 2685.20 1731.09   1
   0  -3  15 8506.89 2446.29   8
   0  -3  16-716.069 850.412   5
   0  -3  16 679.963 1383.08   8
   0   3 -16 645.277 1029.52   1
   0  -3  16-3634.91 3694.39  16
   0  -3  16 630.151 1904.60   2
   0  -3  17 4556.37 1519.02   5
   0  -3  17-493.600 2697.36  16
   0  -3  17 2509.02 1733.35   2
   0   3 -17 1392.92 311.148   1
   0  -3  17 2503.15 1222.92   8
   0  -3  18 4007.27 1671.56   5
   0  -3  18 3254.83 5071.94   2
   0  -3  18 1722.99 843.990   8
   0   3 -18 2830.19 2188.40   1
   0  -3  18 3784.98 5098.54  16
   0  -3  19 14464.6 4597.84   8
   0  -3  19 20839.5 8698.00   2
   0   3 -19 1917.97 1379.81   1
   0  -3  19 17987.1 9159.59  16
   0  -3  20 399.026 2663.08   2
   0  -3  20 2225.13 2837.15  16
   0  -3  20 2710.03 1995.74   8
   0  -3  21 11165.4 8261.46  16
   0  -3  21 19070.6 7674.27   2
   0  -3  22 3848.41 2755.90   2
   0  -3  22-2088.21 1947.14  16
   0  -3  23-3523.28 6197.73  16
   0  -3  23 701.966 5423.96   2
   0  -3  24 190.497 3768.81   2
   0  -3  24-758.099 2827.01  16
   0  -3  25 1731.68 6436.66   2
   0  -3  25 3514.33 8222.29  16
   0  -3  26-1000.52 4721.92   2
   0  -3  26-1186.92 3639.23  16
   0  -3  27 4584.78 9670.09   2
   0  -3  27 5902.23 8498.81  16
   0  -3  28 811.223 3239.05   2
   0  -3  28 185.080 1917.17  16
   3  -1   0 26241.3 4968.09   1
  -3   1   0 25781.8 4446.09   5
   3   1   0 15977.8 4243.04  18
   3  -1   0 29195.6 5150.64  14
   3  -1   1 20684.5 4512.66   1
   3  -1   1 24965.3 5158.60   6
   3  -1  -1 10709.6 3196.76   1
   3   1  -1 19355.3 6056.11  18
  -3   1  -1 18328.3 3938.64   5
   3  -1  -1 12816.7 3340.75  14
   3   1  -1 12800.2 4395.40   8
  -3   1  -1 24800.4 5642.28   4
   3  -1   1 21108.9 5019.13   8
   3  -1   1 20729.1 4527.86  14
  -3   1  -2 11485.5 3805.21   5
   3   1  -2 11989.9 4562.79   8
   3  -1   2 13963.0 5096.03   8
   3   1  -2 17729.0 6804.88  18
  -3  -1   2 8547.84 5460.71   5
  -3  -1   2 7036.95 3913.31   2
  -3   1  -2 11130.0 4743.86   4
   3  -1  -2 3956.08 1778.59  14
   3  -1   2 14030.5 4674.28   6
   3   1  -2 15531.1 7795.02   1
   3  -1   2 16088.9 4876.26   1
   3  -1   2 10325.0 3957.81  14
  -3  -1   2 6389.58 3599.46   4
  -3  -1   3 4021.72 2978.83   5
   3  -1   3 9787.94 4877.33   1
   3  -1   3 6010.91 2824.24  16
  -3  -1   3 6824.26 3543.60   4
   3  -1   3 7465.89 4552.39   8
   3   1  -3 7600.89 4643.54  11
   3   1  -3 8009.46 4679.20  18
  -3   1  -3 7145.26 3529.71   4
  -3  -1   3 5295.83 1871.19  16
   3  -1   3 6977.44 3503.87  14
   3   1  -3 6708.49 4135.89   1
   3  -1  -3 830.859 1176.71  14
   3   1  -3 6525.28 2619.97   8
  -3  -1   3 6870.52 3755.77   2
  -3   1  -3 5131.83 2868.63   5
   3  -1   4 17968.9 6615.09   8
   3   1  -4 9934.68 3475.03  14
   3  -1   4 20614.6 6486.32  16
   3   1  -4 20895.1 7345.32  11
  -3  -1   4 14962.1 4089.93  16
   3   1  -4 18847.3 6872.11  18
   3  -1   4 19102.1 6066.30  14
  -3   1  -4 14049.3 5420.80   4
  -3  -1   4 17965.2 6389.18   5
   3   1  -4 29085.2 9022.04   1
  -3  -1   4 18876.2 6444.15   2
  -3  -1   4 17807.7 5033.17   4
   3   1  -5 12060.3 3539.63  14
   3   1  -5 23828.5 7483.02   1
   1  -3   5 17337.6 4761.44   6
   3  -1   5 23442.1 8052.43   8
   3  -1   5 22019.2 7156.28  16
   1   3  -5 10668.3 4734.54  18
  -3  -1   5 21012.0 5421.52   5
  -3  -1   5 10143.7 3211.18  16
  -3  -1   5 22011.3 6345.09   2
  -1  -3   5 11390.2 3501.94   6
  -3  -1   5 18377.1 4139.95   4
   3   1  -6 36645.3 5768.23  14
   1  -3   6 49941.6 9518.98   6
  -1  -3   6 37248.7 7081.66   6
   1  -3   6 39023.5 9461.80  16
  -3  -1   6 13406.6 3633.93  16
   1   3  -6 47163.4 10662.2  18
   3  -1   6 40554.4 9327.28  16
  -3  -1   6 36641.6 7886.96   2
   3   1  -6 47016.6 9255.63   1
  -3  -1   6 42786.5 5550.73   4
   3  -1   6 33365.6 8157.00   8
  -3  -1   6 40873.1 6864.35   5
   3  -1   6 32501.9 4057.21   2
  -1   3  -6 25367.7 6457.35  18
  -1  -3   7 14379.4 5774.58   6
   3  -1   7 9243.17 2240.18   2
  -1   3  -7 25086.2 4695.44   4
   1  -3   7 23757.9 8453.43  16
   1   3  -7 14590.0 6282.95  18
   3   1  -7 12297.1 3180.64  14
   3  -1   7 7459.66 3421.33   8
  -1  -3   7 15685.6 5999.93  16
  -1  -3   7 9940.53 6087.90   2
   1  -3   7 12499.9 2543.94  14
  -3  -1   7 10695.9 4278.76   2
  -1   3  -7 16404.6 5729.50  18
   3  -1   7 8988.74 4133.15  16
   3   1  -7 13200.1 4883.04   1
  -3  -1   7 12674.3 3442.99   5
   1  -3   7 23510.1 7902.83   6
  -3  -1   8 36310.9 5795.21   5
   3  -1   8 28692.0 4244.50   2
   1   3  -8 69409.7 12957.5  18
   1  -3   8 89227.1 17746.8  16
   3  -1   8 31230.1 8281.90  16
  -1  -3   8 73531.2 14485.9  16
   1  -3   8 44931.5 6120.84   8
  -1   3  -8 78457.7 13307.9  18
  -1  -3   8 44029.9 11818.9   2
   1  -3   8 29830.3 7947.73   2
  -1   3  -8 31617.1 5241.84   4
   1  -3   8 64980.3 6274.04  14
  -3  -1   8 35904.7 7595.98   2
   3   1  -8 33440.9 4794.50  14
   3   1  -8 28856.0 6793.52   1
   1  -3   9 10950.8 5119.48  16
  -1   3  -9 19496.3 6351.22  11
   1   3  -9 17315.4 6202.31  18
   3  -1   9 7479.99 2368.06   2
  -1   3  -9 14771.8 5239.38  18
  -3  -1   9 9021.76 3521.81   2
  -1  -3   9 12315.8 5613.47  16
   3  -1   9 6744.04 4072.36  16
   1  -3   9 8198.68 3383.07   2
   1  -3   9 15625.7 3303.57  14
   1  -3   9 16828.8 3818.96   8
  -3  -1   9 8933.51 2411.94   5
   3   1  -9 7247.42 2261.67  14
   1   3  -9 16797.2 8023.81  11
   3   1  -9 7889.79 3680.36   1
  -1  -3   9 9094.02 5507.12   2
  -1  -3  10 1386.33 846.259   2
   1  -3  10 2051.06 621.869   8
   1   3 -10 3740.04 2228.07  11
   3   1 -10 2256.79 1122.29  14
  -1   3 -10 3847.01 2564.86  11
   3  -1  10 580.098 1452.36  16
   3  -1  10 1582.98 1048.58   2
   1  -3  10 84.1580 2107.89   2
   3   1 -10 1022.91 1808.42   1
   1  -3  10 1396.83 2563.27  16
  -1  -3  10 4428.16 4503.67  16
   1   3 -10 1784.57 1916.68   1
  -3  -1  10 3072.57 2551.89   2
   1  -3  11 255.973 1401.66   8
   3  -1  11 1295.21 2133.30  16
  -1  -3  11 1760.73 578.258   8
   3   1 -11-300.753 1418.62   1
   3  -1  11 201.905 345.804   2
   1  -3  11-311.981 2905.80   2
  -3  -1  11 849.909 2442.18   2
  -1  -3  11 1670.81 1035.54  16
  -1  -3  11 3153.54 4404.75   2
   1  -3  11 1746.02 2152.99  16
   3   1 -11 649.107 790.929  14
   1   3 -11-284.320 1085.95   1
   1   3 -12 3504.06 3013.04   1
  -1  -3  12 5657.40 5798.35  16
  -3  -1  12 1770.65 2415.06   2
   1  -3  12 5881.63 5085.69   2
  -1  -3  12 2587.77 971.902   8
   3  -1  12 1446.44 888.650  16
   3  -1  12 1493.46 1131.79   2
   3   1 -12 1042.00 896.256   1
   3   1 -12 926.258 1214.00  14
  -1  -3  12 2186.96 1443.77   5
  -1  -3  12 3387.95 3010.08   2
   1  -3  12 4688.37 4042.75  16
   1  -3  12 3592.04 2160.26   8
  -1  -3  13-125.679 2228.73  16
  -1  -3  13-929.098 1128.24   8
  -1   3 -13-2032.24 2088.03   1
   3   1 -13 548.415 838.092  14
   1   3 -13-2188.54 1779.95   1
   1  -3  13-8618.26 5451.73  16
  -3  -1  13 1353.10 2723.29   2
  -1  -3  13-2135.46 1942.12   5
   3  -1  13-4252.17 2085.51   2
   3   1 -13 461.287 1362.91   1
   1  -3  13-2566.26 2298.31   8
   1  -3  13 2058.62 3475.37   2
  -1  -3  13-792.198 2200.30   2
   1   3 -14 2313.93 3541.24   1
   3  -1  14 4658.02 1929.09   2
  -1  -3  14 7519.21 7630.33  16
  -3  -1  14 9491.64 4225.21   2
  -1  -3  14 6649.59 1639.03   8
   3   1 -14 561.139 872.574   1
   1  -3  14 9818.95 3625.35   8
  -1   3 -14-269.719 963.384   1
  -1  -3  14 9153.80 3224.46   5
  -1  -3  14 7633.02 5117.73   2
   1  -3  14 11203.4 8595.29  16
   1  -3  14 8866.01 2635.52   2
   3  -1  15 4608.14 2091.39   2
  -1   3 -15 1754.35 2064.44   1
  -3  -1  15 5363.16 3439.53   2
  -1  -3  15 10348.6 6081.22   2
   1   3 -15 3869.14 2401.60   1
   1  -3  15 7138.30 1167.85  16
  -1  -3  15 9149.95 5100.51  16
  -1  -3  15 9637.11 3046.84   5
   1  -3  15 12907.3 5794.75   2
   3   1 -15 917.189 877.238   1
   1  -3  15 13702.1 4444.95   8
  -1  -3  15 10634.5 2901.78   8
  -3  -1  16 1074.38 1966.91   2
   1  -3  16 7058.69 7315.79  16
  -1  -3  16-1665.12 1322.10   5
  -1  -3  16 4894.59 4613.12   2
   1  -3  16 1608.39 1670.96   2
   3   1 -16-506.915 1199.45   1
  -1  -3  16 2723.14 3775.33  16
  -1  -3  16 454.320 798.485   8
   3  -1  16-409.168 1409.08   2
   1  -3  16 600.329 1584.35   8
  -1   3 -16-1103.42 1211.15   1
   1   3 -16 1678.20 2402.32   1
   3  -1  17 126.082 1567.79  16
   1  -3  17 6710.69 3331.32   8
  -1   3 -17 2853.15 1745.99   1
  -1  -3  17 5480.42 2077.65   5
  -1  -3  17 5153.58 1805.88   8
   3  -1  17 5865.56 3263.38   2
  -3  -1  17 2363.47 1465.33   2
   1  -3  17 10064.5 5887.91  16
  -1  -3  17 7023.27 4362.89   2
  -1  -3  17 4132.12 5418.94  16
   1   3 -17 3749.16 3216.66   1
  -3  -1  18 18475.2 7420.56   2
   1   3 -18 6958.64 3622.13   1
   3  -1  18 11364.1 4132.14   2
  -1  -3  18 17969.3 6120.85   2
   1  -3  18 32939.1 10285.2   2
  -1  -3  18 9763.36 3123.49   8
   1  -3  18 18954.6 7327.04  16
   3  -1  18 5272.71 4082.70  16
   1  -3  18 17540.8 5899.56   8
  -1  -3  18 15067.2 8592.75  16
  -1   3 -18 2631.08 2187.79   1
  -1  -3  18 23137.8 4149.34   5
   1  -3  19 6433.76 6323.08   2
  -1  -3  19 53.2696 2324.92   2
   1  -3  19 3320.39 4552.57  16
  -1  -3  19 1256.93 5217.81  16
   1  -3  19 2813.20 2621.08   8
  -1  -3  19 5706.23 2358.98   5
   3  -1  19-220.180 1286.29   2
   3  -1  19 1403.52 296.495  16
   1   3 -19 2833.19 4542.77   1
  -3  -1  19 719.320 1745.67   2
   3  -1  20 14017.2 6770.12  16
   3  -1  20 16609.5 5835.69   2
   1  -3  20 18223.7 9734.21  16
  -1  -3  20 23647.5 9819.20  16
   1  -3  20 24151.0 9020.69   2
   1  -3  20 19039.9 5196.70   8
  -1  -3  20 32007.1 11478.1   2
   1  -3  21 4486.52 5874.14   2
  -1  -3  21-1231.17 3788.55   2
   1  -3  21 4301.75 4912.93  16
  -1  -3  21 1316.12 3614.69  16
   1  -3  21 1540.89 1700.76   8
   3  -1  21 9116.59 6278.79  16
   1  -3  22 9447.84 8821.52  16
  -1  -3  22 17267.3 7146.82   2
   1  -3  22 3824.70 6479.67   2
  -1  -3  22 7314.17 6487.10  16
  -1  -3  23-171.695 2316.51  16
  -1  -3  23-4422.82 2828.21   2
   1  -3  23-697.202 3407.35  16
   1  -3  23 1061.88 2869.94   2
   1  -3  24-2274.29 4846.38   2
  -1  -3  24-2223.87 4873.94  16
   1  -3  24-1076.84 1870.25  16
  -1  -3  24-1082.66 2766.78   2
   1  -3  25-1754.21 2856.36  16
  -1  -3  25-4456.48 9399.48  16
  -1  -3  25 570.798 1655.73   2
   1  -3  25 7862.58 7499.89   2
   1  -3  26 4185.74 7928.95  16
  -1  -3  26-974.094 5716.95   2
  -1  -3  26-687.089 2301.62  16
   1  -3  26 4455.49 8639.67   2
  -1  -3  27-3055.23 6769.62  16
   1  -3  27 192.880 4465.41   2
  -1  -3  27-306.127 738.979   2
   1  -3  27-2057.91 10087.3  16
  -1  -3  28 5134.92 7465.42  16
   1  -3  28 114.873 4735.85  16
  -1  -3  28 5171.75 7933.01   2
   1  -3  28 5573.05 3284.60   2
   3  -2   1 1622.89 1361.05  14
   3  -2   2 29108.8 6382.86   6
   3  -2   2 27367.1 5267.63  14
   3   2  -2 16796.4 5737.44  18
   3  -2   3 15561.1 4762.85   6
   3  -2   3 8051.30 2391.01   1
   3   2  -3 11763.0 5048.54  18
  -3   2  -3 9869.34 2508.48   5
  -3   2  -3 16019.4 4731.88   4
   3  -2   3 10868.0 3300.42  14
   3  -2   4 4639.68 1842.53   6
   3   2  -4 3508.33 831.321  18
   3  -2   4 4974.75 2105.08   1
   3   2  -4 3918.73 1982.53   8
   3  -2   4 4142.15 2645.39   8
   2   3  -4 1017.62 1283.03  18
  -3   2  -4 4028.24 1969.34   5
   3  -2   4 4171.74 2133.24  14
  -3   2  -4 5558.43 2820.79   4
  -3  -2   4 2263.66 1533.79   2
   2  -3   4 3315.77 2810.25   6
   3  -2   5 94649.7 16929.1   6
  -3   2  -5 67097.9 12632.0   4
   3   2  -5 57283.7 5842.08   8
  -3  -2   5 46367.4 11189.1   2
  -3   2  -5 62785.2 9226.94   5
   3  -2   5 67282.1 11061.9   8
   3  -2   5 94419.6 10659.0   1
  -3  -2   5 46345.0 8151.13  16
   3   2  -5 63949.7 13501.3  18
   2  -3   5 22053.9 4267.94  14
   3   2  -5 38873.2 10976.1   1
   3  -2   5 62166.3 9472.93  14
   2   3  -5 25442.5 7041.23  18
   3  -2   5 51787.0 10619.1  16
   2  -3   5 44601.0 9153.34   6
  -3  -2   6 21179.9 7748.56   2
  -3  -2   6 23109.9 6143.56  16
  -3  -2   6 9437.77 3221.03   4
   2  -3   6 16897.5 3671.24  14
  -3   2  -6 16002.1 5595.20   4
  -3  -2   6 14911.6 5202.04   5
   3  -2   6 26567.3 6347.21   8
   3   2  -6 37773.9 11245.2  11
  -2   3  -6 26905.5 5336.03   4
   3  -2   6 25340.8 7413.05  16
   2  -3   6 25902.3 6746.25   6
  -2  -3   6 19089.0 4312.91   6
  -3   2  -6 25725.6 4743.99  11
   2   3  -6 24060.8 8189.91  18
  -2   3  -6 6362.57 2655.16  18
  -3   2  -6 10439.8 3057.13   5
   3  -2   6 32538.4 7813.17  14
   3   2  -6 31929.9 9532.11  18
   3   2  -6 19705.6 7574.51   1
   3  -2   7 235874. 24024.6  16
  -3   2  -7 77044.3 11991.1   4
  -2  -3   7 192665. 28696.1   2
   3   2  -7 223145. 26025.6   1
  -2   3  -7 280782. 21456.5   4
   2  -3   7 177139. 13706.8   8
  -3  -2   7 253752. 28201.2   2
   3  -2   7 133703. 12190.4   2
  -3  -2   7 175044. 14660.8   4
   2  -3   7 260056. 28682.3  16
  -3  -2   7 172056. 18519.7   5
  -3  -2   7 240976. 23181.1  16
  -2  -3   7 202130. 21669.2  16
   2  -3   7 220905. 14129.4  14
   3  -2   7 242028. 20987.3   8
   3  -2   7 239696. 20371.3  14
   3   2  -7 287938. 29319.3  18
   2  -3   7 308715. 30541.8   6
   3   2  -7 332953. 35567.3  11
   2   3  -7 329317. 36767.3  18
  -2   3  -7 218038. 18325.7  18
  -2   3  -8 699.610 689.062   4
   3  -2   8-176.463 1772.56  16
   2  -3   8 779.438 1313.85   8
  -2  -3   8 1462.66 3969.34  16
   3   2  -8-2221.23 3650.04   1
   3  -2   8-1172.36 2023.22   2
  -3  -2   8 765.934 2704.83  16
   2  -3   8 117.425 637.464  14
  -3  -2   8 825.187 2652.94   2
   2   3  -8-1649.90 2683.91  18
  -3  -2   8 679.145 2273.70   5
   2  -3   8 946.098 4908.45  16
  -3  -2   8 295.015 1487.12   4
   3  -2   8 151.483 2172.63   8
  -2  -3   8 67.1570 3000.06   2
  -2   3  -8-661.333 2281.35  18
   3  -2   9 33128.9 10884.3  16
  -3  -2   9 23690.4 5842.64   5
   3  -2   9 40477.2 9589.95   8
   2  -3   9 32239.2 5981.36   8
  -2  -3   9 32058.6 8943.88  16
  -2   3  -9 31325.8 6102.77  18
   2  -3   9 28252.2 8908.59  16
  -2   3  -9 45375.2 8916.58  11
   2   3  -9 13309.4 5577.08   1
   3   2  -9 30544.2 9531.58   1
  -3  -2   9 36223.8 5238.13   4
  -3  -2   9 23303.2 6551.45  16
  -3  -2   9 34403.1 10192.2   2
   3  -2   9 37810.0 8263.86   2
  -2  -3   9 31571.0 9689.43   2
   2   3  -9 39372.5 10939.5  11
   2  -3   9 15784.5 5083.68   2
   2   3  -9 37646.7 10253.9  18
   2  -3   9 36502.7 6348.99  14
  -3  -2  10 23865.8 8118.50   2
   2   3 -10 25299.7 7946.35  11
  -2  -3  10 19970.0 7272.29   2
   2  -3  10 23515.0 5098.56   8
  -3  -2  10 19597.4 4933.83   5
   2  -3  10 23354.7 7276.67  16
  -3  -2  10 15546.4 6062.79  16
  -2   3 -10 26107.1 7034.28  11
  -2  -3  10 19615.8 7534.13  16
   2   3 -10 6796.02 3841.21   1
   3  -2  10 22936.9 8592.58  16
  -3  -2  10 19952.2 3549.68   4
   3   2 -10 14905.4 6116.55   1
   2  -3  10 13300.8 4040.28   2
   3  -2  10 22665.9 6861.91   8
   3  -2  10 30960.9 7083.66   2
   2  -3  11 4957.22 4532.27   2
   3  -2  11 1619.36 1452.61   2
   3   2 -11 1285.62 1329.93  14
   3   2 -11 1185.54 1333.52   1
  -3  -2  11 89.9403 1714.19   2
   2   3 -11 1610.42 2192.77   1
   3  -2  11 714.932 1911.57   8
   2  -3  11 3998.96 2504.27   8
  -2  -3  11 5502.91 4828.17  16
  -3  -2  11 2553.61 2088.42   5
   2  -3  11 6731.07 6172.13  16
   3  -2  11 2496.47 3858.04  16
  -2  -3  11 2158.18 1747.78   5
  -3  -2  11-1001.25 3961.55  16
  -2  -3  11 490.975 1072.11   2
  -3  -2  12 2295.39 1573.62   5
   3   2 -12 2698.48 3341.89   1
   3  -2  12-740.699 1273.52   8
  -3  -2  12 3274.40 3168.66   2
  -2  -3  12 2064.69 3455.11  16
   3   2 -12-135.198 759.728  14
  -2  -3  12 3020.98 2124.57   2
   3  -2  12 5466.99 3483.10  16
  -3  -2  12-2751.65 2301.40  16
   2   3 -12-488.722 3792.64   1
   2  -3  12 2957.58 2625.36  16
  -2  -3  12 1883.18 1813.10   5
   2  -3  12 1220.94 2393.25   2
   3  -2  12 1689.34 1818.21   2
   2  -3  12 3526.92 2034.42   8
   2  -3  13 11609.5 8577.48   8
  -2  -3  13 3887.44 3836.30   5
   3   2 -13 3531.02 2111.92  14
   3  -2  13 10295.2 7105.50   2
  -3  -2  13 1235.09 1436.35  16
   3  -2  13 5972.44 7367.17  16
   2  -3  13 17220.3 15119.1   2
  -2  -3  13 4497.66 8267.40   2
   3   2 -13 6141.16 5046.01   1
   3  -2  13 6832.56 6701.53   8
  -3  -2  13 1374.62 2490.14   2
  -2  -3  13 5164.71 9314.69  16
   2   3 -13 8297.64 6142.18   1
  -3  -2  13 2912.44 1637.08   5
   3  -2  14-1826.68 2425.00   8
   3   2 -14-1251.41 2337.57   1
   2  -3  14-7964.89 5449.03  16
  -2  -3  14-2819.76 5138.92  16
  -3  -2  14-302.819 2347.46   2
  -3  -2  14 896.927 1001.44  16
   3  -2  14 3078.11 2260.39   2
   2   3 -14-391.727 3992.97   1
  -2  -3  14-1627.23 4200.15   2
   2  -3  14 4145.14 3052.15   2
   3  -2  14 5082.54 5675.80  16
   3   2 -14-151.790 531.858  14
  -3  -2  14 1485.63 1550.46   5
   2  -3  14-529.419 2187.64   8
  -2  -3  14-777.821 1354.73   5
  -2  -3  15-647.232 488.829   8
   2  -3  15-1561.51 2663.40   2
  -2  -3  15-1579.00 2289.39   2
   3   2 -15-824.912 1375.14   1
   2  -3  15 2282.41 2299.25  16
   2   3 -15-3277.01 2419.80   1
   3  -2  15 1224.89 632.567   2
  -3  -2  15-1116.37 2722.98  16
  -2  -3  15 617.257 2054.77   5
   2  -3  15 33.0597 2085.61   8
  -3  -2  15-1719.62 3143.56   2
   3  -2  15-1217.06 3634.84  16
  -3  -2  15 1624.31 1214.93   5
  -2  -3  15-1430.10 1280.29  16
   3   2 -15 482.292 630.668  14
  -3  -2  16 11160.7 6496.93   2
  -2  -3  16 14364.3 5557.93  16
  -3  -2  16 9806.77 4885.42  16
  -2  -3  16 17590.0 3930.47   5
   2  -3  16 27372.2 8722.68   2
   3   2 -16 5215.82 3966.86   1
   2   3 -16 5777.60 4008.46   1
   2  -3  16 15625.0 7461.45  16
   3  -2  16 15130.3 5048.20   2
  -3  -2  16 11810.5 3319.75   5
   3  -2  16 12303.2 5331.79  16
   2  -3  16 15522.2 6166.04   8
  -2  -3  16 25056.9 8882.12   2
   3   2 -17 2209.00 2433.84   1
  -2  -3  17 32174.1 10802.4   2
   3  -2  17 18248.8 7982.93  16
  -3  -2  17 11297.7 3894.90  16
  -2  -3  17 22883.3 8516.22  16
  -2  -3  17 18576.6 4518.90   5
   2  -3  17 21895.3 7145.31   8
   3  -2  17 24617.5 6836.24   2
  -3  -2  17 22783.8 8646.80   2
   2   3 -17 7150.92 5046.09   1
   2  -3  17 33530.1 9746.07   2
  -3  -2  17 20376.9 4219.06   5
   2  -3  17 21608.8 10198.0  16
  -3  -2  18 1634.46 4111.06  16
   2  -3  18 1584.56 1098.78   8
   2  -3  18 3696.24 7338.62  16
  -2  -3  18 5134.59 6627.80   2
  -3  -2  18 3765.42 2270.16   5
   3  -2  18 553.733 205.547   2
  -2  -3  18 1884.80 507.694   5
  -3  -2  18 3118.03 3206.47   2
   3   2 -18 3226.18 2742.83   1
   2   3 -18 2095.25 2203.27   1
   3  -2  18 5074.34 6082.45  16
  -2  -3  18 627.679 5202.11  16
   2  -3  18 9449.52 6677.46   2
   2  -3  19 42678.1 9610.23   8
   3  -2  19 45909.7 9327.49   2
  -2  -3  19 58395.1 15117.5   2
  -3  -2  19 35061.4 10263.5  16
   2  -3  19 69756.6 14417.6   2
  -2  -3  19 47801.4 7077.58   5
   3  -2  19 37610.7 11811.6  16
  -3  -2  19 45977.7 12041.2   2
  -2  -3  19 45252.4 13033.2  16
   2  -3  19 75031.8 17530.7  16
   2   3 -19 6090.24 3373.42   1
  -3  -2  19 46602.2 6654.11   5
  -3  -2  20 2116.48 1725.57   5
  -2  -3  20-1966.36 2059.98  16
   2  -3  20 283.968 3672.47   8
  -3  -2  20-105.116 1544.93  16
   3   2 -20 5439.19 2272.19   1
  -3  -2  20 2587.39 1734.33   2
   2  -3  20 6411.51 4773.85  16
   3  -2  20 1706.95 2760.78   2
   2  -3  20-3339.59 4910.32   2
   2   3 -20 1573.64 1981.86   1
  -2  -3  20 6267.78 5551.16   2
   3  -2  20 6743.84 4704.51  16
  -3  -2  21 30125.2 9838.72   2
   2  -3  21 37415.2 12699.9  16
   2  -3  21 29308.4 7491.24   8
  -3  -2  21 10405.5 8496.03  16
   2  -3  21 38954.6 11167.6   2
  -2  -3  21 25329.4 10539.9  16
   3  -2  21 29249.8 11540.1  16
   3  -2  21 25006.0 7728.78   2
  -2  -3  21 39808.9 11611.8   2
   3   2 -21 1049.65 2501.94   1
  -3  -2  21 29300.8 5519.01   5
  -3  -2  22 5603.22 6133.26  16
  -3  -2  22 2198.03 1126.23   2
   3   2 -22 4705.06 4548.35   1
   2  -3  22 3440.66 3911.46   2
  -2  -3  22-851.203 1351.19   2
   2  -3  22 3238.59 5191.98  16
   3  -2  22-1632.26 6209.83  16
  -2  -3  22 381.262 3633.80  16
   3  -2  22 177.768 972.544   2
   2  -3  23 930.106 3910.20   2
   3  -2  23 6087.10 5082.33   2
  -2  -3  23 13009.4 9706.24  16
   2  -3  23 1577.78 6439.73  16
  -3  -2  23 2113.41 4445.88   2
   3  -2  23 9582.05 8783.28  16
  -3  -2  23 1324.41 5761.95  16
  -2  -3  23 1485.52 4330.91   2
  -2  -3  24-7925.62 9410.77  16
   2  -3  24 1429.91 3551.95   2
   2  -3  24 2710.79 5993.94  16
  -3  -2  24 1856.50 6012.45   2
  -3  -2  24 3322.11 7386.02  16
   3  -2  24 1565.63 4117.48   2
   3  -2  24 296.111 3687.58  16
  -2  -3  24 37.9257 695.815   2
  -2  -3  25 444.991 6516.29  16
   3  -2  25-8859.06 6319.59  16
  -2  -3  25-3939.00 5077.79   2
   2  -3  25-1426.73 8980.15  16
   2  -3  25 2051.12 5481.74   2
   3  -2  25 2036.84 3111.38   2
   2  -3  26-1634.35 4972.79  16
   2  -3  26-3287.38 6673.57   2
  -2  -3  26-1482.08 5283.41   2
  -2  -3  26-3423.72 5077.76  16
   2  -3  27 2898.88 4933.51   2
  -2  -3  27 3403.17 6404.66  16
  -2  -3  27 1422.41 5383.06   2
   2  -3  27 2018.11 7087.42  16
  -2  -3  28-1150.15 6733.26   2
  -2  -3  28 3125.89 3188.96  16
   2  -3  28 10355.0 14071.1  16
   2  -3  28-3897.04 10511.2   2
   3  -3   3-932.807 2689.00  14
   3  -3   4 78533.5 12266.0   6
   3  -3   4 56582.2 8082.84  14
   3   3  -4 57170.8 11285.3  18
   3  -3   5-753.675 2355.84   6
  -3   3  -5 781.032 832.233   4
   3  -3   5-144.182 1290.18  14
   3   3  -5 2377.18 2876.35  18
  -3   3  -6 95695.4 12413.4   4
   3  -3   6 89766.5 15345.9   6
  -3  -3   6 47725.3 6269.23   6
   3  -3   6 69399.1 8956.61  14
   3   3  -6 85241.1 17362.3  18
   3  -3   6 49623.5 5011.86   1
  -3   3  -6 63306.1 6378.57   5
   3  -3   7-1755.00 3115.84  16
  -3  -3   7 1863.30 4360.46   2
   3  -3   7 377.685 1833.03   8
  -3   3  -7-703.813 390.050  18
  -3   3  -7-469.849 1560.63   5
  -3  -3   7-550.204 543.855  16
   3  -3   7-633.129 590.496  14
   3   3  -7-4097.74 5330.87  18
  -3   3  -7 2359.57 3401.87   4
   3  -3   7 1660.25 3296.99   6
  -3  -3   8 154281. 21130.1   2
   3  -3   8 245453. 19541.0   8
  -3  -3   8 219792. 22076.2  16
  -3   3  -8 248722. 16253.3  18
   3  -3   8 258913. 28441.8  16
  -3   3  -8 99729.6 9047.53   5
   3   3  -8 227829. 25899.7  18
   3  -3   8 265080. 19991.9  14
  -3   3  -8 169777. 18689.8   4
   3  -3   9 834.865 782.929  14
   3   3  -9-529.509 1203.95  18
  -3   3  -9-534.723 797.553   4
  -3   3  -9-1158.32 1932.06  11
   3  -3   9 391.558 1976.40  16
   3   3  -9-53.9670 1397.78   1
  -3  -3   9-411.895 996.219   2
   3   3  -9-3135.67 4188.08  11
   3  -3   9-300.849 1347.59   8
  -3  -3   9 1150.08 2336.56  16
   3  -3  10 8316.93 4359.02   2
   3  -3  10 13098.4 5593.72  16
  -3  -3  10 9082.04 5506.76   2
   3   3 -10 20654.9 9247.89  11
   3  -3  10 15574.7 4438.54   8
   3  -3  10 12558.1 4299.34  14
   3   3 -10 9194.17 5495.94   1
  -3  -3  10 9894.79 3393.55  16
   3  -3  11-1167.75 1054.66   8
  -3  -3  11-890.345 951.540   2
  -3  -3  11-1758.90 1483.04   5
   3  -3  11-2132.56 2490.77  16
   3   3 -11 1140.83 2125.32   1
   3  -3  11 678.725 2494.70   2
  -3  -3  11 2665.83 3956.88  16
   3   3 -12-811.875 4263.24   1
  -3  -3  12 1207.57 2724.71   5
   3  -3  12 1287.88 2686.91   2
  -3  -3  12 5985.65 4716.51  16
  -3  -3  12 1304.62 513.223   4
  -3  -3  12 4360.33 2887.00   2
   3  -3  12 4547.28 5068.51  16
   3  -3  12 5390.91 3217.81   8
  -3  -3  13-6376.83 2418.23   2
  -3  -3  13-2207.73 1063.13   5
  -3  -3  13 152.322 5612.51  16
   3   3 -13-5604.44 5072.74   1
  -3  -3  13-1407.46 1268.13   4
   3  -3  14 5821.48 2532.19   2
   3  -3  14 496.780 2190.78  16
  -3  -3  14 10558.1 7278.33  16
   3   3 -14 5590.50 5134.16   1
  -3  -3  14 4881.92 4410.16   2
   3  -3  14 3354.41 1687.81   8
  -3  -3  14 3551.67 1565.56   5
  -3  -3  14 3458.19 1611.90   4
   3   3 -15-1027.34 2441.45   1
  -3  -3  15 2453.45 3550.62   2
  -3  -3  15 186.239 1912.62   5
   3  -3  15 193.651 2837.75  16
   3  -3  15-10154.9 5043.74   2
   3  -3  15 2734.31 3179.94   8
  -3  -3  15 2252.33 4711.52  16
   3  -3  16 20794.0 10129.5  16
  -3  -3  16 16472.0 8875.47  16
   3  -3  16 12401.3 4283.73   2
  -3  -3  16 11484.5 2412.20   4
   3  -3  16 15305.2 4814.85   8
  -3  -3  16 16961.8 4966.81   5
  -3  -3  16 18852.0 9923.82   2
   3   3 -16 8623.15 5906.51   1
   3  -3  17 652.241 1578.75   8
   3  -3  17 1068.66 1328.24   2
   3  -3  17-1680.51 4386.01  16
  -3  -3  17-243.677 298.152   4
   3   3 -17-871.318 3011.29   1
  -3  -3  17 844.052 868.129   5
  -3  -3  17-173.280 2733.94   2
  -3  -3  17 2353.89 2561.27  16
   3  -3  18 60284.6 15170.7  16
  -3  -3  18 56383.0 9013.94   5
   3  -3  18 76516.4 14473.2   2
  -3  -3  18 81684.8 17262.2   2
  -3  -3  18 44375.3 15315.3  16
   3  -3  18 54459.7 11773.7   8
  -3  -3  19 1559.54 2672.24   2
  -3  -3  19-1350.63 2036.25  16
  -3  -3  19-2746.91 1828.22   5
   3  -3  19-142.872 1374.87   8
   3   3 -19 5034.64 5397.86   1
   3  -3  19-3064.72 4288.15   2
   3  -3  19-2986.47 4776.93  16
  -3  -3  20 59870.5 18520.9  16
  -3  -3  20 90344.5 20278.5   2
  -3  -3  20 69141.8 10173.3   5
   3  -3  20 80165.3 19712.9  16
   3  -3  20 108571. 17780.4   2
   3  -3  20 71924.1 13101.4   8
   3  -3  21-3158.28 2909.15   8
  -3  -3  21 3531.56 4707.60  16
   3  -3  21 3494.12 2436.10  16
  -3  -3  21-2261.97 4362.71   2
   3   3 -21-594.025 2550.95   1
   3  -3  21-2687.33 4445.86   2
  -3  -3  22 9851.04 9606.04  16
  -3  -3  22 10203.8 12526.6   2
   3  -3  22 28455.7 10406.8   8
   3  -3  22 40376.5 12320.0   2
   3  -3  22 31612.3 15690.1  16
   3  -3  23 8380.39 5015.56   2
   3  -3  23 2659.67 3144.39  16
  -3  -3  23-2327.58 6742.38  16
  -3  -3  23-122.527 3707.90   2
  -3  -3  24 955.320 2454.27   2
   3  -3  24-186.093 1504.11  16
  -3  -3  24 3071.81 1544.77  16
   3  -3  24 1505.78 1055.76   2
  -3  -3  25 2462.86 2058.90  16
  -3  -3  25 1041.26 4467.95   2
   3  -3  25-1077.36 5321.18  16
   3  -3  25-1506.96 5573.24   2
  -3  -3  26 9161.41 6138.52   2
   3  -3  26 2016.61 7106.89   2
   3  -3  26 3957.24 5489.75  16
  -3  -3  26 12057.4 7251.32  16
  -3  -3  27-1806.54 7429.05   2
   3  -3  27-630.531 3126.58   2
   3  -3  27-2885.02 3430.74  16
  -3  -3  27-735.045 5845.89  16
   3  -3  28-3443.31 2301.36   2
   3  -3  28 343.267 5130.88  16
   3  -3  29 2063.19 4702.16  16
   4   0   0 50521.9 10340.0   8
   4   0   0 36108.3 8490.80  14
   4   0   0 70270.9 15251.8   1
  -4   0   0 51236.0 12325.7   4
  -4   0   0 43945.3 7611.10   2
  -4   0   0 39689.8 10368.0   5
   4   0   0 30244.7 5656.25  18
   4   0   1 122.118 3347.18   1
   4   0   1 436.104 1814.09   8
   4   0   1 1301.10 2592.75  14
   4   0  -1 834.921 2111.17   8
  -4   0   1-14.0773 710.568   5
  -4   0  -1-229.188 1301.73   5
  -4   0   1 393.289 462.078   2
   4   0  -1-894.805 1797.16  14
   4   0   1-307.282 727.796  11
  -4   0   1 269.544 1734.74   4
  -4   0  -1 450.554 2444.32   4
   4   0  -1 307.383 2792.27   1
   4   0  -1-709.980 1115.03   6
   4   0   1 240.983 934.111  18
   4   0   2 1264.65 1428.32  16
   4   0   2 2625.78 1825.14  18
  -4   0   2 1154.16 2073.00   5
   4   0   2 1696.54 2666.28   8
   4   0  -2 978.027 1148.92  14
  -4   0  -2 1781.24 1801.63   4
  -4   0   2 178.033 1171.16   2
   4   0  -2 2423.54 1321.77   8
   4   0  -2 1479.47 2098.88   1
  -4   0   2 878.397 513.519   4
   4   0  -2 1048.42 988.363   6
   4   0   3-2150.81 2399.75   8
  -4   0   3 419.340 1119.37   2
  -4   0   3-1100.08 1490.89   4
   4   0   3 464.446 375.305  16
   4   0  -3-281.868 1277.02   1
  -4   0   3 44.4456 1366.99   5
   4   0   3 967.677 1176.64  18
   4   0  -3-309.421 1291.73  14
  -4   0   4 75718.7 9241.32   5
   4   0  -4 82027.0 9603.24  14
  -4   0   4 88842.2 9864.25   4
   4   0   4 52479.9 9955.59   8
   4   0  -4 89225.5 12338.2   1
  -4   0   4 48531.8 6964.99   2
  -4   0   5-646.368 832.618   2
   4   0  -5 763.932 570.212  14
   4   0  -5-61.6633 895.731   1
  -4   0   5 338.452 123.395   5
   0  -4   6 12438.5 4333.38   6
   4   0  -6 15157.6 5025.43   1
  -4   0   6 12459.1 3655.13   2
  -4   0   6 15985.7 3840.30   5
   4   0  -6 14825.6 3904.60  14
  -4   0   7 1470.54 1581.45   2
   4   0  -7 490.947 1184.20  14
   4   0  -7 273.582 719.096   1
   0   4  -7-242.187 1087.94  18
   0  -4   7 691.587 666.441   6
  -4   0   8 72483.7 9767.80   2
   4   0  -8 59646.2 9860.41   1
   4   0  -8 69286.8 8366.68  14
   0   4  -8 167705. 20798.5  18
   0  -4   8 152513. 17930.1   6
   4   0  -9-299.563 1062.33  14
   0  -4   9-1342.81 3508.87  16
   0  -4   9-807.702 4812.23   6
   0   4  -9-393.143 2454.06  18
  -4   0   9-437.173 992.670   2
   4   0  -9 545.484 1466.30   1
   0  -4  10 1875.34 2737.61  16
  -4   0  10 1091.41 1434.09   2
   4   0 -10 504.428 1092.82   1
   0   4 -10 2706.26 1565.38  18
   0  -4  11 289.279 1797.04   2
   0  -4  11 2861.85 4882.04  16
   4   0 -11-498.934 1106.64   1
   0   4 -11 1247.92 3768.72  11
   0   4 -11 1412.59 2283.64  18
  -4   0  11-430.962 1506.12   2
  -4   0  12 290.762 849.195   2
   0  -4  12-482.725 1647.77  16
   0   4 -12 1833.41 1628.44  18
   0   4 -12-767.722 935.694  11
   0  -4  12 234.970 1316.95   2
   0  -4  13 806.337 6796.34   2
   0  -4  13 11658.0 8582.94  16
   0  -4  14 2480.80 1097.10   8
  -4   0  14 912.208 2240.66   2
   0  -4  14 4651.47 3897.77   2
   0  -4  14-3183.96 4647.48  16
   0  -4  15-187.645 686.592   8
   0  -4  15-1642.20 2775.77  16
   0  -4  15-2404.89 2296.55   2
   0  -4  16 2211.75 1827.55   2
   0  -4  16 367.784 2640.75  16
   0  -4  16 1352.71 1243.98   8
   0  -4  17 2648.14 2325.17   8
   0  -4  17 2238.47 7712.54   2
   0  -4  17 14265.0 11021.2  16
   0  -4  18 23528.2 8646.47   2
   0  -4  18 40589.8 5729.45   8
   0  -4  18 40056.8 11746.3  16
   0  -4  19 8257.89 6226.01   2
   0  -4  19 12132.9 7130.69  16
   0  -4  20 50562.6 12346.0   2
   0  -4  20 47560.7 11582.4  16
   0  -4  21 2721.51 3886.26  16
   0  -4  21 994.432 3304.23   2
   0  -4  22 12422.2 8172.78  16
   0  -4  22 27715.0 10115.3   2
   0  -4  23-155.553 3845.16   2
   0  -4  23-1722.87 3906.84  16
   0  -4  24 676.093 3985.81   2
   0  -4  24-1408.23 4233.71  16
   0  -4  25 291.082 6287.88   2
   0  -4  25 1405.78 3940.81  16
   0  -4  26 1715.41 7161.04   2
   0  -4  26 483.120 7802.74  16
   0  -4  27 3267.08 6606.83  16
   0  -4  27-985.764 4024.84   2
   0  -4  28 1146.21 5632.98  16
   0  -4  28 2848.49 4920.58   2
   0  -4  29 3337.98 3949.22   2
   0  -4  29 883.415 6067.74  16
   0  -4  30 1685.32 4415.12   2
   0  -4  30 2167.79 5415.57  16
   0  -4  31 4968.81 8341.91  16
   0  -4  31 3261.14 3258.32   2
   4  -1   0 110922. 12702.0   1
  -4   1   0 128929. 13661.2   4
   4   1   0 91172.3 12091.1  18
   4  -1   0 116323. 12568.0   8
   4   1   0 67136.8 11008.4   8
   4  -1   0 108816. 11748.2  14
  -4   1   0 99436.2 10200.0   5
   4  -1   0 108962. 11104.7   6
   4   1  -1 8009.58 5307.07   1
  -4   1  -1 5829.96 3768.49   5
   4   1   1 2676.00 1184.77  18
   4  -1   1 9930.59 4704.15  14
   4   1  -1 9662.72 4816.37   8
   4  -1   1 12993.4 5434.43   6
   4   1  -1 6529.79 4232.23  18
   4  -1   1 9547.59 5351.44   8
  -4   1  -1 9313.66 4207.11   4
   4  -1   1 10322.6 5386.29   1
   4  -1  -1 4496.91 2333.72   1
  -4   1   1 4306.29 2126.66   5
  -4  -1   1 5561.79 4059.39   4
   4  -1  -1 4385.24 2515.41  14
  -4   1   1 7342.28 2883.14   4
   4   1  -2 5817.01 3593.52  18
   4  -1   2 6487.10 3283.49  14
  -4  -1   2 5360.07 3159.43   2
  -4  -1   2 5618.02 3920.42   4
   4   1  -2 9194.96 4938.24   1
   4  -1   2 10222.0 4993.81   6
   4  -1  -2 2396.22 1563.19   1
   4  -1  -2 2688.98 1581.88  14
   4  -1   2 12730.7 5165.24   1
  -4   1   2 4182.57 1728.46   5
   4  -1   2 10556.7 5600.36   8
  -4  -1   2 3641.14 3794.99   5
  -4   1  -2 5907.34 4389.86   4
  -4   1  -2 6098.38 3606.85   5
   4   1  -2 3265.42 2432.61   8
   4  -1   3 24616.6 5719.01  16
   4   1  -3 27288.4 6008.46   8
   4  -1   3 42166.7 10353.2   1
   4   1  -3 13146.1 4540.13  14
   4  -1   3 39493.8 9611.57   8
   4   1  -3 27458.3 7633.55  18
  -4   1  -3 29767.9 9265.94   4
  -4  -1   3 22775.7 7330.40   4
   4  -1   3 31550.5 7862.32  14
  -4  -1   3 23484.9 7170.56   2
  -4  -1   3 20380.1 7400.06   5
   4  -1  -3 9131.24 3395.99   1
   4   1  -3 26111.9 7655.18  11
   4   1  -3 34888.0 11101.3   1
   4  -1  -3 10256.2 3197.89  14
  -4   1  -3 21610.3 6629.93   5
   4  -1   4 2286.39 2158.14   1
  -4  -1   4 2156.10 1506.19  16
   4   1  -4 1199.71 3531.18  11
  -4  -1   4 1197.09 1981.40   4
   4  -1  -4-161.283 711.533   1
  -4   1  -4-408.951 2593.72   4
  -4   1  -4 461.398 669.164   5
   4   1  -4 243.971 1430.92  14
   4   1  -4 322.064 4320.73   1
  -4  -1   4 826.261 835.185   5
   4  -1   4 1306.54 2454.08  14
  -4  -1   4 3925.56 4430.34   2
   4  -1   4 1293.31 1595.62  16
   4   1  -4 300.371 1322.31   8
   4  -1  -4 711.323 1385.35  14
   4  -1   4-632.365 1597.89   8
   4  -1  -5 34289.3 6258.68  14
  -4  -1   5 80442.3 8767.69  16
  -4  -1   5 125829. 15904.8   5
   4   1  -5 83498.1 10677.3  14
   4  -1   5 181025. 22925.3   8
  -4  -1   5 157970. 15697.7   4
  -4  -1   5 139168. 18051.9   2
   4   1  -5 181416. 23220.0   1
   4  -1   5 173011. 20526.8  16
  -4   1  -5 57616.6 12213.7   4
   1  -4   6 21783.2 7014.07   6
  -4  -1   6 44340.5 9415.80   2
   4   1  -6 30578.8 6449.10  14
  -4  -1   6 42198.7 7199.08   4
   4   1  -6 43542.6 10392.4   1
   4  -1   6 46890.6 11502.3   8
   1   4  -6 11373.9 4553.92  18
   4  -1   6 37565.6 9361.74  16
  -4  -1   6 17113.7 3997.63  16
  -4  -1   6 37789.5 8049.56   5
  -4  -1   7 97400.3 11873.8   5
  -1   4  -7 34858.3 8308.55  18
   1   4  -7 59775.6 12435.2  18
  -4  -1   7 74267.8 12128.6   2
   4  -1   7 71308.0 13007.8   8
   4  -1   7 80391.0 13983.6  16
  -1  -4   7 52499.2 9017.73   6
   1  -4   7 79364.2 13283.0   6
   4   1  -7 66805.0 8891.61  14
   4   1  -7 103890. 15512.5   1
  -4  -1   7 95825.6 10119.5   4
   4  -1   7 68121.7 5493.96   2
   4   1  -8 5778.48 3798.06   1
   1   4  -8 4182.26 3156.62  18
  -1   4  -8 6691.12 1907.98   4
  -4  -1   8 6316.47 3020.20   5
   1  -4   8 3805.32 1027.20   6
   4  -1   8 8769.01 4636.12  16
   4  -1   8 3624.50 1486.70   2
  -1  -4   8 4614.11 2945.26   6
   4  -1   8 3223.65 2215.28   8
  -4  -1   8 2127.78 1582.06   2
   4   1  -8 4869.56 2277.90  14
  -1   4  -8 4289.85 3298.23  18
  -4  -1   9 18798.1 5798.32   2
   4  -1   9 16067.5 3035.74   2
   4  -1   9 17032.7 5822.05   8
   1   4  -9 37248.2 11703.4  18
  -1   4  -9 37919.2 9563.11  18
   4   1  -9 23214.0 7050.31   1
   1  -4   9 30332.4 4337.95  14
   4  -1   9 20015.0 6295.97  16
  -1   4  -9 53275.3 7366.00   4
  -1  -4   9 32994.1 9818.98  16
  -4  -1   9 23064.7 5159.18   5
   4   1  -9 20422.0 4436.01  14
   1  -4   9 45994.3 12961.6  16
   1  -4   9 43361.9 11597.2   6
  -4  -1  10 18409.5 4577.74   5
  -1  -4  10 11384.6 6524.23   2
  -1   4 -10 10948.2 2812.74   4
   4   1 -10 11193.2 3135.94  14
  -1   4 -10 29037.5 8198.06  18
  -4  -1  10 14269.1 4903.02   2
   1   4 -10 31019.2 9536.44  18
   4  -1  10 10201.2 4255.13  16
   1  -4  10 31001.9 10698.0  16
  -1  -4  10 23404.6 7548.11  16
   4   1 -10 7135.72 3287.49   1
   1  -4  10 30637.6 4338.92  14
   4  -1  10 11123.2 2492.53   2
  -1  -4  11 3331.28 3027.59   2
   4   1 -11-514.226 2545.36   1
   1   4 -11 2567.45 5040.35  11
  -4  -1  11 1720.70 1339.56   5
   1   4 -11-29.5873 1265.80  18
   4   1 -11 604.624 728.826  14
  -1  -4  11 3669.24 3928.49  16
   4  -1  11 756.565 853.764   2
  -1   4 -11-973.953 1464.41  11
   1  -4  11 1554.82 1035.57  16
  -1   4 -11-279.845 1055.23  18
  -4  -1  11 447.807 1627.79   2
   1  -4  11 1145.80 871.824  14
   4  -1  11 719.016 1804.67  16
  -4  -1  12 1666.03 907.130   5
   1  -4  12 2913.67 3367.93  16
   4   1 -12 661.655 1246.71   1
   4  -1  12 3957.75 3383.01  16
   1   4 -12 1128.38 2032.93  18
   4  -1  12 1137.46 1160.48   2
  -1   4 -12 3181.76 3803.47  11
  -1  -4  12 4529.76 4062.88   2
  -4  -1  12-45.7230 1305.64   2
   4   1 -12 571.674 893.963  14
  -1  -4  12-220.427 2524.45  16
   1  -4  12-2002.76 1485.01   2
   1   4 -12-245.208 2442.65  11
   1  -4  13 9107.66 11074.5  16
   1   4 -13 16464.4 8470.37  11
   4   1 -13-1324.34 1362.25   1
  -4  -1  13 123.919 1262.98   5
   1  -4  13 29276.8 12288.8   2
   1  -4  13 39859.4 6274.66   8
   4  -1  13 1517.65 1023.15   2
  -1  -4  13 2498.41 4566.81  16
   4  -1  13 510.259 2134.74  16
  -4  -1  13 3920.30 3162.16   2
  -1  -4  13-167.480 2419.97   2
  -1  -4  14 9336.39 2846.84  16
  -4  -1  14 12958.2 5290.26   2
  -1  -4  14 13438.6 5832.35   2
   4  -1  14 6733.59 3001.83  16
   1  -4  14 22299.8 3813.01   8
   1  -4  14 13904.5 5782.78   2
   4   1 -14 2680.26 1245.81  14
   1  -4  14 13399.7 5610.02  16
   4  -1  14 11859.1 3219.80   2
   4   1 -14 4423.34 3347.08   1
   4   1 -15 576.973 851.695  14
  -1  -4  15 1923.75 63.7483  16
   4  -1  15 797.528 1237.76   2
  -4  -1  15 3037.92 3045.42   2
   4   1 -15 701.290 1195.46   1
   4  -1  15 3248.17 2987.45  16
  -1  -4  15 1847.45 2824.44   2
   1  -4  15-383.794 2380.75  16
   1  -4  15 5036.49 2548.42   8
   1  -4  15 3893.60 4694.56   2
   4  -1  16 9327.43 5435.25  16
  -1  -4  16 16786.8 7390.63  16
  -1  -4  16 11081.4 5054.87   2
   1  -4  16 13957.7 7181.10  16
   4  -1  16 8248.25 2755.46   2
  -4  -1  16 14119.4 5366.71   2
  -1  -4  16 15316.7 2613.60   8
   1  -4  16 22125.7 4586.31   8
   4   1 -16 1152.22 2822.41   1
   1  -4  16 13719.4 5623.28   2
   1  -4  17 13756.6 7503.32  16
   4  -1  17 9244.29 6388.52  16
  -1  -4  17 8060.55 4495.52   2
  -1  -4  17 13756.0 2629.07   8
   1  -4  17 21185.2 5491.98   8
   4   1 -17 2488.50 3123.15   1
  -4  -1  17 13830.3 6665.96   2
   1   4 -17-540.545 1731.08   1
   1  -4  17 14823.4 5846.26   2
   4  -1  17 10062.1 4210.60   2
  -1  -4  17 16252.0 7203.70  16
   4  -1  18 11724.4 4371.82   2
  -1  -4  18 10730.1 4628.26   2
   4  -1  18 11287.8 6145.14  16
   4   1 -18 953.898 1489.66   1
   1  -4  18 27793.4 9064.41  16
   1  -4  18 18214.3 7064.21   2
  -1  -4  18 24800.4 10012.1  16
   1   4 -18 324.119 929.003   1
  -4  -1  18 7510.96 5156.69   2
   1  -4  18 25441.1 5928.52   8
  -1  -4  19 57465.5 14071.0   2
  -4  -1  19 32288.7 9544.45   2
   1  -4  19 38894.0 10743.3   2
   1  -4  19 41654.5 12943.7  16
  -1  -4  19 50654.8 14177.1  16
   4  -1  19 88381.6 17911.3  16
   1  -4  19 57679.4 8422.06   8
   1  -4  20 5881.73 5179.10   2
  -1  -4  20 452.633 4245.30   2
  -1  -4  20 6142.75 2371.37  16
  -4  -1  20-1830.97 2146.75   2
   1  -4  20 6468.29 7081.06  16
   4  -1  20 2958.12 2784.33   2
   4  -1  20 8459.61 6362.99  16
   1  -4  21 42432.6 12363.5   2
  -1  -4  21 42363.5 11428.4   2
   1  -4  21 32243.4 13562.6  16
  -1  -4  21 48330.1 13569.8  16
   4  -1  21 10629.9 6573.53  16
   1  -4  22 5259.76 6105.91  16
   4  -1  22 7956.66 6067.96  16
  -1  -4  22 10831.1 7671.15   2
  -1  -4  22 10164.7 7790.82  16
   1  -4  22 3296.86 3869.50   2
  -1  -4  23 5341.83 8071.38   2
  -1  -4  23 13202.2 9351.09  16
   1  -4  23 3371.65 7442.45   2
   1  -4  23 10983.8 7234.97  16
  -1  -4  24 2454.71 7399.85  16
  -1  -4  24 1904.55 4559.43   2
   1  -4  24-3059.47 3926.07   2
   1  -4  24 661.968 4629.09  16
   1  -4  25 4159.47 6848.06  16
  -1  -4  25 1636.38 4394.08   2
   1  -4  25 2778.95 5600.37   2
  -1  -4  25 322.557 5388.33  16
   1  -4  26 824.768 3466.96  16
  -1  -4  26 4046.15 8942.64   2
  -1  -4  26-531.203 2421.88  16
   1  -4  26-1909.76 5912.49   2
   1  -4  27 7617.12 7833.34  16
   1  -4  27-375.136 7222.23   2
  -1  -4  27-222.653 6919.89   2
  -1  -4  27-924.646 1987.78  16
   1  -4  28 8816.43 8700.20   2
  -1  -4  28 2761.77 7677.49   2
   1  -4  28 13447.4 12745.6  16
  -1  -4  28 4398.69 6406.49  16
  -1  -4  29 4688.82 6914.71   2
   1  -4  29 7585.47 10322.4   2
  -1  -4  29 6083.26 7808.73  16
   1  -4  29 10556.9 13725.4  16
   1  -4  30 14872.4 13328.4  16
   1  -4  30 7474.84 6614.16   2
  -1  -4  30 5383.36 7957.59   2
  -1  -4  30 1763.71 7057.48  16
   1  -4  31 9920.38 7771.68   2
   1  -4  31 19244.2 11096.6  16
  -1  -4  31 5827.90 9265.65  16
   4  -2   0 5143.36 2419.87  14
   4  -2  -1 30658.1 6314.17  14
   4  -2   1 48859.8 7554.38  14
   4  -2   1 40065.5 6617.39   1
   4   2  -1 26250.0 7082.33  18
  -4   2  -2 20968.6 5697.81   4
  -4   2  -2 16205.6 4052.89   5
   4  -2   2 19212.8 5275.97  14
   4  -2   2 18667.1 5392.74   6
   4   2  -2 14575.1 5790.06  18
   4  -2   2 17381.1 4642.60   1
   4  -2   3 94415.6 13227.0   6
   4   2  -3 55863.3 9077.67   8
   4  -2   3 90670.6 12281.3   8
   4   2  -3 82988.2 15205.5  18
   4  -2   3 76923.8 9318.13   1
  -4   2  -3 98947.1 12997.6   4
  -4   2  -3 72481.6 8771.57   5
   4  -2   3 76403.9 10263.3  14
   4  -2   4 99402.2 11993.6   1
   4   2  -4 86623.3 11833.7   8
  -4  -2   4 45276.2 10941.0   2
  -4   2  -4 83435.3 13756.7   4
   4   2  -4 99246.1 18697.8  18
   4  -2   4 97003.4 15421.3   6
   4  -2   4 82218.8 11459.8  14
   4  -2   4 87547.6 13241.3   8
  -4   2  -4 72870.4 10228.5   5
   4   2  -4 68715.6 16564.6   1
  -4  -2   5-870.902 2698.45   2
   4   2  -5 916.893 2454.77   1
  -4  -2   5-2.93459 1746.31  16
   4  -2   5-533.903 1196.55  16
  -4   2  -5-281.090 2882.55   4
  -4  -2   5-1502.42 3089.60   5
   4   2  -5 1291.41 2441.12  18
  -4  -2   5 1012.82 1827.84   4
   4   2  -5 1265.83 907.978   8
   4  -2   5 2038.66 2227.19   1
  -4   2  -5 4060.07 3805.12   5
   4  -2   5 2553.67 2593.43  14
   4  -2   5 3513.10 3450.33   8
   4  -2   5 1105.96 2299.94   6
   2   4  -6 84436.7 14866.3  18
  -4  -2   6 184201. 22805.0   2
  -4  -2   6 101425. 15023.0   5
  -4  -2   6 174045. 16077.7  16
   4  -2   6 236821. 22327.4   8
  -4  -2   6 84273.3 11376.3   4
   4  -2   6 151785. 15289.0   1
  -4   2  -6 105969. 12717.7   5
   4   2  -6 167127. 22745.9   1
   4   2  -6 178181. 11627.4   8
   4   2  -6 203133. 23428.5  18
  -4   2  -6 136237. 18516.5   4
   4  -2   6 239728. 22074.1  14
   2  -4   6 99618.5 14818.0   6
   4  -2   6 199194. 21622.0  16
   4   2  -6 217118. 25878.2  11
   2   4  -7 10186.7 5592.59  18
   2  -4   7 14286.7 6164.32   6
  -4  -2   7 15319.7 7523.90   2
   4  -2   7 15472.4 5841.00  14
  -4  -2   7 7853.13 3678.27   5
  -4  -2   7 11042.1 4093.67   4
   4   2  -7 9876.65 5751.53   1
   4  -2   7 14299.6 6089.78  16
   4  -2   7 17012.1 6144.71   8
  -4   2  -7 6093.91 3671.34   4
   4   2  -7 19273.9 7667.78  18
   2  -4   7 3895.25 746.635  14
   4   2  -7 14194.0 6585.65  11
  -2  -4   7 7106.00 3130.80   6
  -4  -2   7 15291.3 5447.96  16
   4  -2   8 62940.2 7770.55   2
   4  -2   8 98362.1 15792.5  16
  -2   4  -8 128615. 12245.7   4
   4   2  -8 116205. 20483.9   1
  -4  -2   8 120593. 21120.6   2
  -2   4  -8 61489.0 10099.9  18
  -4  -2   8 114553. 16626.2  16
   2  -4   8 73653.7 8492.81  14
  -2  -4   8 57494.4 9996.26   6
   2  -4   8 112657. 18054.8   6
  -4  -2   8 103574. 13363.5   4
   2   4  -8 114239. 20515.4  18
   4  -2   8 109940. 15565.9   8
  -4  -2   8 99716.3 15871.5   5
  -4  -2   9 11807.6 4418.69  16
   2  -4   9 14491.6 3807.18  14
   4   2  -9 11865.2 5839.63   1
   4  -2   9 15755.5 8311.07  16
   2  -4   9 16084.8 7588.10  16
  -4  -2   9 14596.3 6869.48   2
  -4  -2   9 11832.3 5531.88   5
  -2  -4   9 11725.0 5792.33  16
   2   4  -9 18004.2 8658.48  18
   2  -4   9 18171.5 8469.26   6
  -2   4  -9 12110.0 4326.47  18
  -2   4  -9 17822.7 4952.83   4
   4  -2   9 14457.8 4047.58   2
   4  -2   9 15490.0 6112.65   8
  -4  -2   9 15405.3 4618.76   4
   2  -4  10 36353.0 5776.86  14
   4  -2  10 33854.1 11237.5  16
   4  -2  10 36793.3 7373.50   2
  -2  -4  10 28318.3 9021.38  16
   2   4 -10 24476.8 8435.02  18
   4  -2  10 32253.5 9200.17   8
  -4  -2  10 29085.6 5584.10   4
  -4  -2  10 19965.5 5478.44   5
  -2   4 -10 22227.0 5379.17   4
  -2   4 -10 33488.8 8240.12  18
   2  -4  10 41889.5 12838.7  16
  -4  -2  10 21550.4 5944.52  16
  -4  -2  10 32797.9 10452.8   2
  -2  -4  10 16868.8 8537.14   2
   4   2 -10 27652.5 8447.22   1
   2   4 -11 39848.5 10015.1  18
   2  -4  11 50110.7 12823.9  16
  -2   4 -11 39044.1 7737.47  18
   4   2 -11 32268.0 9514.13   1
  -4  -2  11 34754.8 7316.58   5
  -4  -2  11 42949.8 6312.88   4
  -2  -4  11 35764.4 10391.1  16
   2  -4  11 48868.6 7133.58   8
   4  -2  11 46108.7 12677.0  16
  -4  -2  11 30770.5 8676.69  16
  -4  -2  11 42874.9 11265.6   2
  -2   4 -11 52185.8 11015.2  11
   4  -2  11 40721.6 10214.5   8
   2   4 -11 51155.7 13584.1  11
   4   2 -11 8305.85 2558.83  14
   2  -4  11 61764.0 8206.15  14
  -2  -4  11 23155.3 7998.67   2
   4  -2  11 52411.4 8994.71   2
  -2   4 -12-7213.18 13535.9  11
  -2  -4  12-3587.17 2363.82   2
   4  -2  12-3474.53 2016.54   2
   2   4 -12-540.130 1138.03  18
   4   2 -12 907.699 1148.85  14
  -4  -2  12-1039.19 1528.44   5
   4  -2  12-1857.05 5196.90  16
   4  -2  12-3178.70 4444.22   8
   2  -4  12-11318.2 7765.36  16
   2   4 -12-822.239 5334.14  11
   4   2 -12 4695.61 4435.87   1
  -4  -2  12 885.385 3221.30  16
  -4  -2  12 582.927 3849.94   2
  -2  -4  12-2428.37 5373.35  16
  -4  -2  12-910.275 952.918   4
   4  -2  13 12356.3 7454.53  16
  -4  -2  13 16079.3 4728.54   5
  -2  -4  13 8268.59 3624.09   2
   2  -4  13 14335.5 10541.8  16
   4  -2  13 15591.9 4938.13   2
  -4  -2  13 20237.8 7917.97   2
   2  -4  13 26054.3 9569.09   2
   4   2 -13 12280.0 6132.71   1
   2   4 -13 28335.3 9305.18  11
  -4  -2  13 10670.4 4949.83  16
   4  -2  13 14621.1 7287.04   8
  -2  -4  13 14109.1 5496.22  16
  -2  -4  14-2511.96 3649.97   2
   2  -4  14 572.700 1593.84   2
   4   2 -14-698.771 1316.15  14
   4  -2  14 652.886 4296.14  16
   2  -4  14-497.263 2581.02  16
  -4  -2  14 507.838 1350.14   5
   4   2 -14-2846.29 3130.74   1
  -4  -2  14 824.917 3552.81   2
  -2  -4  14-1204.60 2515.68  16
   4  -2  14 1562.78 1761.32   8
   2  -4  14-1918.71 2058.56   8
  -4  -2  14 4001.60 5021.30  16
   4  -2  14 916.895 1828.11   2
  -4  -2  15 22717.4 5188.31   5
  -4  -2  15 10508.2 5375.95  16
  -2  -4  15 19523.0 6691.55   2
   2  -4  15 25153.1 5548.82   8
   4  -2  15 15756.4 6612.34   8
  -4  -2  15 19325.4 7719.01   2
  -2  -4  15 27826.9 8409.93  16
   4  -2  15 30576.0 6812.28   2
   2  -4  15 18481.1 7000.58  16
   4   2 -15 3737.48 1543.58  14
   2  -4  15 17528.9 5668.05   2
   4   2 -15 6449.50 2792.43   1
   4  -2  15 12845.9 7389.50  16
  -4  -2  16 1570.07 1745.62   5
   4  -2  16 5275.04 3711.74   2
  -4  -2  16 2710.70 5858.35  16
  -4  -2  16 6728.73 5498.27   2
   4   2 -16 840.813 2341.69   1
   4  -2  16-319.424 3619.23  16
   2   4 -16 1544.14 2459.46   1
   2  -4  16-724.664 3000.10   2
   2  -4  16 3176.06 663.781   8
   2  -4  16 2307.42 1763.18  16
  -2  -4  16 2393.30 3848.57  16
   4  -2  16 3720.72 2572.06   8
  -2  -4  16-1989.78 2129.86   2
   4   2 -16-1152.49 1022.54  14
   2  -4  17 32391.6 10001.9  16
   4   2 -17 2506.88 2669.36   1
  -2  -4  17 25364.3 9204.59   2
   2  -4  17 39335.0 7200.73   8
   2  -4  17 31792.3 8696.19   2
  -4  -2  17 34557.3 11509.6   2
   4  -2  17 28919.8 9515.99  16
   4  -2  17 22894.6 7030.31   8
  -4  -2  17 31321.3 6082.49   5
   4  -2  17 38593.6 8604.21   2
  -2  -4  17 34563.5 11544.8  16
  -4  -2  17 17838.0 8836.33  16
  -2  -4  18 73722.7 14982.1  16
  -4  -2  18 33612.2 11004.4  16
   4   2 -18 6358.16 3765.63   1
   2  -4  18 62181.8 12171.6   2
  -4  -2  18 60000.6 8475.65   5
  -4  -2  18 61541.7 15266.6   2
   4  -2  18 37526.6 9400.32   8
  -2  -4  18 55490.0 12144.8   2
   2  -4  18 75712.5 9785.83   8
   4  -2  18 58693.9 14873.3  16
   2  -4  18 60255.0 15241.5  16
   4  -2  18 64647.1 11326.9   2
  -2  -4  19 21046.1 9029.20   2
  -4  -2  19 15699.0 4449.50   5
   4  -2  19 7419.44 6683.41  16
   4  -2  19 20289.4 6714.76   2
  -4  -2  19 12017.6 6615.75   2
   2  -4  19 17167.4 5377.59   8
   2  -4  19 8871.66 4827.15   2
  -2  -4  19 19625.7 9375.91  16
   4   2 -19 1663.50 2481.22   1
  -4  -2  19 8652.37 7065.50  16
   4  -2  19 7325.47 2640.08   8
   2  -4  19 21506.8 9669.44  16
  -2  -4  20 46838.3 12611.5  16
   2  -4  20 53719.4 12619.6   2
  -4  -2  20 49149.7 7857.51   5
   4  -2  20 30297.2 9012.78   8
   4  -2  20 60771.1 15318.4  16
   4  -2  20 59885.6 11744.3   2
   2  -4  20 51624.1 13549.6  16
   2  -4  20 59772.0 9204.08   8
  -4  -2  20 28425.2 11730.9  16
  -4  -2  20 61371.9 14779.3   2
  -2  -4  20 57309.2 14333.1   2
   4   2 -20 5876.14 4346.92   1
   2  -4  21 7707.46 7097.50  16
   2  -4  21 7366.23 5285.63   2
  -2  -4  21 7817.77 6349.51  16
   4  -2  21 7437.15 3969.69   2
  -4  -2  21 6441.51 4879.23  16
   4  -2  21 4544.44 3827.05   8
  -2  -4  21 8534.34 6667.85   2
  -4  -2  21 275.542 3072.24   2
  -4  -2  21 6324.44 2832.99   5
   4   2 -21 1641.80 3781.34   1
   4  -2  21-125.682 2032.92  16
   2  -4  22 17196.1 10793.4  16
   4  -2  22 18610.7 7311.57   8
   2  -4  22 26763.6 9328.44   2
   4  -2  22 19205.0 10200.0  16
   4  -2  22 34395.6 8762.71   2
  -2  -4  22 39909.5 14150.1  16
  -4  -2  22 30652.5 10678.3  16
   4   2 -22 1098.84 3468.75   1
  -2  -4  22 34542.3 10986.3   2
  -4  -2  22 7333.38 11730.7   2
  -2  -4  23 4876.46 7121.95  16
   4  -2  23 3442.70 6344.38  16
   2  -4  23 1706.63 3615.84   2
  -2  -4  23 5218.32 5448.39   2
   4  -2  23 3647.41 3383.06   8
  -4  -2  23 8349.32 5327.77  16
   2  -4  23 3595.16 5586.50  16
  -4  -2  23 13856.1 8088.73   2
   4  -2  23 10254.7 6093.55   2
   4   2 -23 2476.04 3247.93   1
   2  -4  24 1860.19 4679.96   2
   4  -2  24-1498.21 4347.85  16
   2  -4  24 5553.74 6326.03  16
  -4  -2  24 6339.91 7284.39  16
  -4  -2  24 18623.7 13233.4   2
   4  -2  24 1859.14 3546.06   2
  -2  -4  24 1368.23 2955.94  16
  -2  -4  24 1623.59 387.438   2
   4  -2  24 780.003 3688.93   8
  -2  -4  25 6706.53 6627.77   2
   2  -4  25 645.744 1625.29  16
   4  -2  25 3479.70 5772.32   2
  -2  -4  25 6034.65 5116.22  16
   2  -4  25 1474.12 3931.86   2
   2  -4  26 4015.68 1058.65   2
   2  -4  26 8657.97 8751.28  16
  -2  -4  26-926.694 2111.28   2
   4  -2  26 1009.68 3105.99  16
  -2  -4  26 1610.47 2082.55  16
  -2  -4  27 1617.60 6062.02   2
  -2  -4  27-999.851 2922.11  16
  -2  -4  28 1389.44 5134.54   2
  -2  -4  28 1342.20 2440.78  16
  -2  -4  29 1674.30 7560.20   2
  -2  -4  29 8539.71 10210.0  16
  -2  -4  30 4519.39 6038.16  16
  -2  -4  30 1782.18 6614.78   2
   2  -4  31 8734.81 11725.0  16
   2  -4  31-1321.32 2413.09   2
   4  -3   2 31887.5 6806.39  14
   4   3  -3 4561.62 3038.68  18
   4  -3   3 5654.40 3658.51   6
   4  -3   3 5028.29 3038.45  14
   4  -3   4 40917.7 9144.77   6
   4  -3   4 31876.8 6609.82  14
   4  -3   4 18520.6 3991.02   1
   4   3  -4 29195.8 9808.34  18
  -4   3  -4 47112.4 8328.25   4
   3  -4   5 75753.1 13772.9   6
  -4   3  -5 183609. 18396.8   4
   3   4  -5 49647.8 11825.6  18
   4  -3   5 144374. 14330.2  14
   4   3  -5 144739. 22011.7  18
  -4   3  -5 132460. 11162.7   5
   4  -3   5 123508. 10586.0   1
   4  -3   5 181711. 20971.7   6
   3  -4   6 991.871 3018.96   6
   4  -3   6 1028.52 2334.44   8
   4   3  -6 1077.37 2041.38   8
   4  -3   6 1818.82 2702.64  14
   3   4  -6 27.6321 1249.83  18
   4  -3   6 1160.77 1797.94   1
   4   3  -6 1364.86 4865.06  18
   4  -3   6-2234.05 3019.08   6
  -4   3  -6 2152.34 3225.15   4
  -4  -3   6 1733.86 2718.53   2
  -4   3  -6 267.969 1263.32   5
   3  -4   6-99.2773 1059.00  14
   4   3  -7 221591. 27001.6  18
   3  -4   7 202198. 23668.5   6
   4  -3   7 229303. 21123.1   8
  -4   3  -7 262264. 28116.5   4
   4   3  -7 227300. 12397.4   8
  -4  -3   7 133383. 21516.5   2
   4  -3   7 251284. 21436.6  14
   4  -3   7 355294. 36042.9   6
   4  -3   7 387692. 23945.8   1
  -4   3  -7 258893. 21801.8   5
   3  -4   7 143292. 13637.3  14
  -3  -4   7 86366.2 9346.71   6
   3   4  -7 171486. 24392.5  18
  -3   4  -7 227144. 17979.6   4
  -4  -3   7 149256. 16483.7  16
   4  -3   7 182507. 22270.6  16
  -3   4  -8 25591.4 5630.29  18
  -3  -4   8 24223.1 5521.32   6
   3  -4   8 39565.3 6830.58  14
  -4   3  -8 20624.0 4958.51   5
   3  -4   8 53304.6 12972.5   6
   4   3  -8 39451.0 10511.1  18
  -4   3  -8 35879.1 9278.12   4
  -3   4  -8 60007.7 10036.4   4
   4  -3   8 40508.0 10251.9  16
  -4  -3   8 38397.8 8753.03  16
   4   3  -8 23411.2 7302.28   1
  -4  -3   8 28677.6 9376.48   2
   4  -3   8 48437.1 9552.74   8
  -4   3  -8 56324.2 8677.06  11
   4   3  -8 48449.1 14015.1  11
  -3   4  -8 38122.6 4710.80   5
   4  -3   8 52815.3 9926.25  14
   3   4  -8 59306.6 16344.6  18
  -3   4  -9 94743.0 9206.11   5
   4  -3   9 84508.3 12657.6   8
  -3   4  -9 112052. 15953.6   4
  -3   4  -9 105455. 13792.4  18
   4   3  -9 82572.5 16541.7  11
   4  -3   9 89802.3 12444.6  14
   3  -4   9 77154.0 16430.9  16
   3   4  -9 114705. 21540.3  18
   3  -4   9 119059. 20520.1   6
  -4  -3   9 80208.4 12909.8  16
   4   3  -9 68414.0 13535.9  18
  -4  -3   9 61872.2 13214.8   2
   3  -4   9 89871.9 10584.1  14
   4   3  -9 45104.3 11232.2   1
  -4   3  -9 33568.2 7795.68   4
   4  -3   9 82453.6 15210.3  16
   4   3 -10 8699.53 8371.42  11
  -4  -3  10 4663.74 5182.40   2
   4  -3  10 4836.80 2760.00  14
  -4  -3  10 2374.86 2735.07   5
   4  -3  10 2553.43 2395.40  16
  -4  -3  10 3046.03 2594.29  16
   4   3 -10 5351.68 5049.47   1
   4  -3  10 7093.57 3689.01   8
  -3   4 -10 4929.67 2579.23  18
   3  -4  10 6431.82 3532.05  14
  -3  -4  10 2346.08 2156.45  16
   3   4 -10 5294.44 5177.94  18
  -3  -4  10 555.152 2665.40   2
   3  -4  10 12248.5 9632.67  16
  -3   4 -10 3358.00 2194.80   4
   3   4 -11 4887.76 3191.45  11
   3  -4  11 9536.99 5145.32  16
   4  -3  11 6945.58 2089.38   8
  -4  -3  11 3991.19 1899.16   5
  -3   4 -11 3823.00 3155.45   4
  -3   4 -11 10009.2 3713.95  11
  -4  -3  11 7218.95 3649.29  16
  -4  -3  11 1872.43 556.944   4
   4  -3  11 4611.50 3392.66  16
   3   4 -11 11714.3 5851.43  18
  -3  -4  11 3864.34 1206.01   2
  -3  -4  11 8807.68 4714.55  16
   3  -4  11 9580.58 3728.36  14
  -4  -3  11 13138.7 4975.77   2
   3  -4  11 9996.10 3532.03   8
   4  -3  11 4454.31 1518.17   2
   4   3 -11 4737.70 3900.93   1
  -4  -3  12 34215.9 9623.63  16
   3   4 -12 41772.0 13124.8  11
  -3  -4  12 32414.6 10753.2  16
  -4  -3  12 14955.1 4164.77   4
  -3  -4  12 31939.8 13490.3   2
   4   3 -12 15088.5 6973.45   1
  -4  -3  12 39430.0 12270.4   2
   3   4 -12 27961.9 9955.09  18
  -4  -3  12 20950.0 7256.13   5
   3  -4  13-1941.09 3997.32  16
  -4  -3  13 2914.70 3744.56   5
   4   3 -13-617.261 3635.78   1
  -3  -4  13 1468.48 1813.59   2
   4  -3  13 2495.17 3600.46  16
   3   4 -13 3040.34 3394.09  11
   4  -3  13 1934.09 2706.44   2
  -4  -3  13-2882.97 4684.31  16
  -4  -3  13 2399.23 4998.32   2
  -4  -3  13 958.986 1153.89   4
  -3  -4  13 4180.91 3856.37  16
   4  -3  13 2645.87 2783.36   8
   3  -4  13-728.013 1817.57   8
  -4  -3  14 14966.6 4489.29   5
  -4  -3  14 26135.8 9541.44   2
   3  -4  14 20675.4 5278.75   8
   3  -4  14 7194.64 3731.31   2
  -4  -3  14 17243.4 7076.33  16
   3  -4  14 16358.5 6382.04  16
   4  -3  14 18886.7 7353.15  16
  -3  -4  14 12746.5 5624.31  16
   4  -3  14 19482.3 5922.79   8
   3   4 -14 4076.65 2633.37   1
   4   3 -14 7193.49 3715.31   1
   4  -3  14 16810.5 5765.08   2
  -4  -3  14 16148.0 4135.27   4
  -3  -4  14 9269.11 3668.78   2
   3  -4  15 581.036 1211.71   2
  -3  -4  15 3665.46 3761.87  16
   4  -3  15 516.016 1926.08   2
   4  -3  15-7730.97 5198.24  16
   3   4 -15 3221.79 2518.72   1
  -4  -3  15 129.646 1243.80   2
   4  -3  15 1797.43 2727.68   8
  -4  -3  15 132.880 959.067   4
   3  -4  15 388.979 847.807  16
  -4  -3  15 1936.16 3012.15   5
   3  -4  15-49.5014 1042.71   8
  -3  -4  15 3894.17 2839.37   2
  -4  -3  15-365.316 2910.18  16
   4   3 -15-1020.55 3236.33   1
   4  -3  16 4733.26 2518.33   8
  -4  -3  16 2620.48 5513.15  16
  -4  -3  16 3051.66 1555.61   4
   3  -4  16 4507.33 4488.89  16
   3   4 -16-3152.62 3723.78   1
   3  -4  16-246.669 1858.75   2
  -4  -3  16 9156.88 8157.17   2
   4  -3  16 8138.43 6180.94   2
   4   3 -16-270.814 4466.65   1
   3  -4  16 5439.12 2879.77   8
  -4  -3  16 6310.39 5075.69   5
  -3  -4  16 1773.59 3516.87  16
  -3  -4  16 4532.93 3622.95   2
   4  -3  16 3052.30 3910.96  16
   3  -4  17 34379.2 7011.27   8
   3  -4  17 25903.5 7161.53   2
   3   4 -17 2881.74 2276.07   1
   4  -3  17 38696.9 10041.9   8
   4   3 -17 9122.50 5414.67   1
  -3  -4  17 20979.8 8475.06   2
  -4  -3  17 31816.2 12958.9   2
  -3  -4  17 22506.0 10152.3  16
   4  -3  17 41989.9 10360.7   2
   4  -3  17 30292.2 11330.7  16
  -4  -3  17 23584.8 12569.5  16
   3  -4  17 20254.9 8875.73  16
  -4  -3  17 38992.5 8865.36   5
  -4  -3  17 29162.5 4729.93   4
  -3  -4  18 27771.7 9857.10  16
   4   3 -18 1258.92 5804.05   1
   3  -4  18 32673.9 7046.01   8
  -3  -4  18 16749.3 6354.12   2
   3   4 -18 4262.17 3917.88   1
  -4  -3  18 27862.3 11198.5  16
   4  -3  18 19620.8 9416.63  16
  -4  -3  18 27001.0 11805.4   2
  -4  -3  18 24686.3 7268.97   5
   4  -3  18 24047.0 7259.17   8
   4  -3  18 32004.5 9334.04   2
   3  -4  18 32623.4 9526.15  16
   3  -4  18 11821.7 4406.75   2
   3  -4  19 64026.5 15092.6  16
  -3  -4  19 46910.2 13137.7   2
  -4  -3  19 73513.8 17015.5  16
  -4  -3  19 66971.2 11334.6   5
   3  -4  19 71286.3 10910.2   8
   4  -3  19 70714.1 20250.0  16
   4   3 -19 15240.1 6999.50   1
   4  -3  19 78494.6 15062.4   8
  -4  -3  19 78451.4 18065.2   2
   4  -3  19 109620. 17488.9   2
   3   4 -19 7546.16 3936.77   1
  -3  -4  19 62880.0 16285.2  16
   3  -4  19 59967.5 11575.7   2
   3  -4  20-5436.85 3169.29  16
   4  -3  20 7030.22 3627.84   2
   3  -4  20 2168.59 2366.63   8
   4  -3  20 2746.85 3838.34   8
  -3  -4  20 3490.65 6676.52  16
   4  -3  20 1007.24 3407.15  16
   3   4 -20 1183.49 1203.19   1
   3  -4  20 1068.44 2975.95   2
  -4  -3  20 4556.30 2840.33   5
   4   3 -20 1969.02 1827.52   1
  -4  -3  20 5391.45 3650.62   2
  -4  -3  20 2909.50 3183.20  16
  -3  -4  20 9497.80 7419.08   2
   3  -4  21 55544.9 9783.57   8
   3  -4  21 32154.9 9500.45   2
   3  -4  21 39804.3 13203.2  16
  -3  -4  21 46394.0 13568.4  16
  -3  -4  21 52443.9 14053.1   2
  -4  -3  21 63074.5 16776.6   2
  -4  -3  21 33869.7 14741.6  16
   4   3 -21 4303.61 6754.57   1
   4  -3  21 37362.1 15348.2  16
   4  -3  21 66107.1 14125.1   2
   4  -3  21 55560.4 12914.1   8
  -3  -4  22 1296.03 2831.21   2
   4  -3  22 755.962 4582.48   8
   4  -3  22 7173.52 5618.19   2
   4   3 -22 2234.86 1564.19   1
   3  -4  22-77.6109 2218.87   2
  -4  -3  22-1472.00 4244.28  16
  -4  -3  22 2254.14 5921.54   2
   4  -3  22-1225.92 2478.67  16
  -3  -4  22 7412.26 6765.23  16
   3  -4  22-1296.22 2280.31  16
  -3  -4  23 12948.7 9747.76  16
  -4  -3  23 8156.38 3410.65  16
   3  -4  23 9642.56 6587.92   2
   4  -3  23 8451.86 3442.06   8
   3  -4  23 17242.8 9371.74  16
  -3  -4  23 4812.78 2950.06   2
  -4  -3  23 21100.1 10679.3   2
   4  -3  23 1883.44 5672.41  16
   4  -3  23 10268.0 6698.36   2
  -4  -3  24-1822.29 4103.62  16
   4  -3  24-6595.69 7932.26   2
  -3  -4  24 8164.88 6352.62   2
   3  -4  24 738.373 2655.13   2
   4  -3  24-573.592 6676.25  16
  -3  -4  24 6188.66 5135.68  16
  -4  -3  24-368.011 4483.56   2
   3  -4  24 5428.69 7622.80  16
   3  -4  25 1623.74 5001.98  16
  -4  -3  25 1275.73 4447.44   2
   4  -3  25 1301.54 3586.46   2
  -3  -4  25-6381.54 1995.47  16
  -4  -3  25-2110.65 5179.25  16
   3  -4  25-441.870 400.836   2
  -3  -4  25-677.873 1893.98   2
   4  -3  25 15.9354 5151.08  16
   4  -3  26-3493.44 8193.45  16
   3  -4  26 14896.8 10213.1  16
   4  -3  26-1518.25 516.691   2
  -3  -4  26-88.8806 5204.96   2
  -4  -3  26 7493.15 6870.62  16
  -3  -4  26 291.399 3031.65  16
  -4  -3  26 3478.17 5267.68   2
   3  -4  26 2703.51 7324.03   2
  -4  -3  27-1926.53 4293.65   2
   3  -4  27 436.016 5728.20   2
  -4  -3  27 8959.12 7632.50  16
   4  -3  27-1312.46 7196.12   2
   4  -3  27-3182.87 6870.27  16
  -3  -4  27-6084.31 4848.68   2
  -3  -4  27 3060.26 6666.81  16
  -3  -4  28 1325.64 4622.34   2
  -3  -4  28 6472.21 7194.97  16
   3  -4  28 17311.6 17221.5   2
   4  -3  28-33.2666 3287.50  16
  -3  -4  29 4645.92 6991.84  16
  -3  -4  29 2369.98 6314.85   2
   4  -3  29-17443.8 9667.81  16
  -3  -4  30 9045.77 8567.37   2
  -3  -4  30-2254.05 4234.30  16
   3  -4  31 4039.34 4973.78  16
   4  -4   4 2078.24 1524.73  14
   4   4  -4 1782.46 2367.40  18
   4  -4   5 294.209 1791.52  14
   4   4  -5 1184.66 2746.81  18
   4  -4   5 1099.56 3197.56   6
   4  -4   6 80176.8 10884.2  14
   4  -4   6 101045. 16191.1   6
  -4   4  -6 132783. 14990.5   4
   4   4  -6 88383.5 17737.2  18
   4  -4   7 148.576 1060.42   1
  -4  -4   7 730.660 546.467   6
   4  -4   7-273.707 1087.90  14
  -4   4  -7-319.880 820.277   5
   4  -4   7-508.979 2075.64   6
   4   4  -7 2095.49 4327.29  18
  -4   4  -7 1455.13 1927.26   4
   4  -4   8 138119. 10181.0   1
   4   4  -8 152089. 12159.3   8
   4   4  -8 171284. 28309.6  18
  -4   4  -8 151340. 12568.1   5
   4  -4   8 149740. 15294.1  14
   4  -4   8 183467. 25059.5   6
  -4   4  -8 180287. 20299.2   4
  -4   4  -9-3055.86 4408.78   4
   4  -4   9 1087.40 3325.37   6
   4  -4   9 139.405 1412.90  14
  -4   4  -9-469.864 1676.99  18
   4   4  -9-2288.19 1647.68  18
  -4   4  -9-742.612 1461.44   5
   4  -4   9-104.331 216.716   1
  -4  -4  10 26265.7 7742.16   2
  -4   4 -10 42433.8 9918.25   4
   4   4 -10 50507.7 12599.9  18
  -4   4 -10 61189.3 7343.16  18
   4  -4  10 65667.5 10434.6  14
   4  -4  10 47346.1 11892.8  16
   4  -4  10 48857.0 8676.60   8
   4   4 -10 68411.9 16681.7  11
  -4  -4  10 31689.1 8719.85  16
  -4   4 -11 31499.5 8280.09  11
   4  -4  11 24005.5 6024.98  14
   4  -4  11 49077.6 15804.1  16
   4   4 -11 15516.5 11787.0  11
  -4  -4  11 39684.8 11782.7   2
  -4  -4  11 19021.6 9058.97  16
   4   4 -11 18428.2 10689.3  18
   4   4 -12 2284.88 3368.67  18
   4   4 -12 6227.13 6587.20  11
  -4  -4  12 4516.77 4003.71  16
  -4  -4  12 2754.38 4009.35   2
   4  -4  12-215.880 999.511  14
   4  -4  12 4301.43 3767.01  16
   4  -4  12 1642.30 2034.96   8
   4   4 -13-2660.31 3270.94  11
  -4  -4  13 2187.51 3789.01  16
   4  -4  13-1647.81 2393.85   8
   4  -4  13 2333.34 2714.86  16
  -4  -4  13 1820.77 4269.56   2
  -4  -4  14 5376.18 5332.24   2
   4  -4  14 2335.10 750.961   8
   4   4 -14 2142.00 2642.14   1
  -4  -4  14 7206.98 4852.18  16
   4  -4  14 2868.18 1620.36  16
   4   4 -15 977.498 1721.40   1
  -4  -4  15-452.403 4130.12   2
   4  -4  15-1781.93 2243.99  16
   4  -4  15-1528.70 2722.95   8
  -4  -4  15-3257.32 2643.60  16
   4  -4  15 839.859 729.066   2
   4  -4  16 2527.11 2912.27  16
   4  -4  16 564.892 1646.90   2
   4   4 -16-661.993 2415.98   1
   4  -4  16 2121.08 2173.72   8
  -4  -4  16 7604.27 4814.85  16
  -4  -4  16 1790.41 3582.34   2
   4  -4  17-1555.14 3824.32  16
   4   4 -17 1650.85 3351.69   1
  -4  -4  17-71.8650 1741.62   2
   4  -4  17-89.0795 1885.90   8
   4  -4  17 1898.97 3314.85   2
  -4  -4  17 89.6275 2212.26  16
  -4  -4  18 54333.1 15425.2   2
   4  -4  18 59321.7 10366.7   8
  -4  -4  18 39989.1 13366.8  16
   4   4 -18 9467.20 5845.86   1
   4  -4  18 48512.3 11640.5  16
   4  -4  18 37815.2 9145.41   2
   4  -4  19-1360.48 2494.59   2
  -4  -4  19 508.439 2217.89   2
   4  -4  19 470.792 1996.09   8
   4  -4  19 385.868 648.209  16
  -4  -4  19-714.264 1680.96   5
  -4  -4  19-2177.39 2609.63  16
   4   4 -19-1832.89 3461.90   1
   4  -4  20 36066.7 9244.30   2
  -4  -4  20 50766.8 14391.3   2
   4  -4  20 32261.8 10053.6  16
  -4  -4  20 49036.3 13575.0  16
   4  -4  20 48098.9 9632.42   8
  -4  -4  21-358.006 1831.06  16
   4  -4  21-95.6010 3250.05   8
   4  -4  21-1129.31 2510.24   2
  -4  -4  21 391.373 2084.50   2
   4   4 -21 2777.86 941.627   1
   4  -4  21-2554.44 3385.31  16
   4  -4  22 21610.7 8592.28   2
   4  -4  22 30933.6 8031.82   8
  -4  -4  22 11179.5 9996.31  16
   4  -4  22 17657.2 10904.2  16
  -4  -4  22 16877.8 10441.8   2
  -4  -4  23-3333.34 3464.25   2
   4  -4  23 399.987 1732.72   2
  -4  -4  23 343.630 2334.91  16
   4  -4  23-4290.24 6233.89  16
   4  -4  24-512.210 3208.89  16
  -4  -4  24-410.702 1823.64   2
   4  -4  24 1132.40 2775.24   2
  -4  -4  24 4775.60 6311.49  16
   4  -4  25 1348.55 3545.12   2
  -4  -4  25-1349.03 1618.56  16
   4  -4  25-9269.99 6070.97  16
  -4  -4  25 4140.14 4927.87   2
   4  -4  26 44.6855 3740.49  16
   4  -4  26-449.660 4222.64   2
  -4  -4  26 4392.90 5059.29  16
  -4  -4  26 2072.13 4218.99   2
   4  -4  27-306.562 7207.77  16
  -4  -4  27 749.480 4367.41   2
  -4  -4  27 8270.22 6502.89  16
   4  -4  28 1520.59 4731.12  16
  -4  -4  28 9884.94 7476.49  16
  -4  -4  28 1995.00 7777.88   2
  -4  -4  29 2672.22 2329.52   2
  -4  -4  29 3387.31 3889.87  16
  -4  -4  30 10777.2 6713.65  16
   4  -4  30 14761.0 11998.3  16
  -4  -4  30 5014.90 8195.53   2
   4  -4  31 1507.99 3815.53  16
   5   0   0-284.073 345.140  14
  -5   0   0-1044.60 3594.89   5
   5   0   0-30.1679 2454.54   1
  -5   0   0-238.357 1584.86   2
   5   0   0 874.314 1851.51   8
  -5   0   0 112.484 1256.28   4
   5   0  -1 18040.4 5991.26  14
  -5   0   1 31194.8 7944.64   2
  -5   0  -1 10925.3 5666.03   4
   5   0   1 17010.9 3731.64  11
  -5   0  -1 12756.4 6082.38   5
   5   0   1 18297.1 4709.55  18
   5   0   1 25219.2 7777.72   8
   5   0   1 24723.5 8739.87   1
   5   0  -1 32300.4 9960.93   1
   5   0   1 20450.0 7085.49  14
   5   0  -1 21925.1 6307.21   8
  -5   0   1 19843.5 7787.87   5
   5   0  -1 32647.8 6797.98   6
  -5   0   1 25944.4 8047.36   4
  -5   0   2-430.027 1206.19   2
  -5   0   2 183.877 1401.91   4
  -5   0  -2-147.174 3331.67   4
   5   0  -2-735.946 2193.43   8
  -5   0   2 60.4525 1805.32   5
   5   0   2-1519.05 1352.91   1
   5   0   2 1390.48 1690.11  16
   5   0  -2-106.067 1460.47  14
   5   0  -2 430.620 622.644   1
   5   0   2 1770.06 1777.32   8
   5   0  -2 181.529 1058.64   6
   5   0   2 334.625 384.974  18
  -5   0   3 2151.71 2147.88   5
   5   0   3-986.063 2100.83  16
   5   0   3-2833.24 3644.68   8
   5   0  -3 1426.30 2401.43  14
  -5   0   3 405.471 626.318   2
   5   0  -3-1487.66 876.388   1
  -5   0   3-547.590 2164.54   4
   5   0   3 302.884 318.786  18
  -5   0   4 1188.51 2010.91   5
  -5   0   4 1108.54 2021.69   4
   5   0   4 3360.42 2558.28  16
   5   0   4 1195.18 569.490  18
   5   0   4 2508.59 4888.71   8
  -5   0   4 1756.72 2321.15   2
   5   0  -4 1885.22 3157.85  14
   5   0  -4 2795.91 3715.73   1
   5   0   5 2104.40 2138.26  16
  -5   0   5 3235.63 2257.44   5
   5   0  -5 2861.70 2419.04  14
   5   0   5 4007.08 2462.24   8
  -5   0   5 2792.14 1455.03   2
  -5   0   5 4533.37 2118.80   4
   5   0  -5 3967.74 2680.65   1
  -5   0   6 924.204 1615.46   2
  -5   0   6 984.704 1859.59   5
   5   0  -6 452.777 1770.42   1
   5   0  -6 480.236 1186.49  14
   5   0  -7 121058. 15633.7   1
   5   0  -7 123480. 12745.4  14
  -5   0   7 139403. 13631.1   5
  -5   0   7 102921. 12225.7   2
   5   0  -8 33.6198 2287.53   1
   0   5  -8 3023.99 3033.32  18
  -5   0   8-837.277 435.550   2
   5   0  -8 6.67454 1326.27  14
  -5   0   8-518.532 1363.73   5
   0  -5   8 3222.18 3133.87   6
  -5   0   9 21719.5 5233.99   5
   0   5  -9 24021.0 8227.00  18
  -5   0   9 17117.9 5528.69   2
   5   0  -9 13985.3 4059.30  14
   5   0  -9 12111.3 5333.98   1
   0  -5   9 23681.1 7533.09   6
   0  -5  10 4138.30 4754.86   6
   0   5 -10-1234.68 1487.26  18
  -5   0  10 696.505 1619.57   2
   5   0 -10-1618.94 2534.94   1
   5   0 -10 350.432 669.897  14
   0   5 -11 1503.47 3523.65  18
   5   0 -11 1045.82 1283.94  14
  -5   0  11-716.790 2080.02   2
   5   0 -11-50.7252 1238.27   1
   0   5 -12-2767.77 5336.18  18
  -5   0  12 1651.58 1215.41   2
   0  -5  12 2331.86 1745.14  14
   5   0 -12 676.512 1725.72   1
  -5   0  13 15222.4 5449.81   2
   0   5 -13 41920.1 9553.63  18
   5   0 -13 7735.31 4710.50   1
   0   5 -13 43304.1 11782.7  11
   0  -5  13 27494.8 9574.90  16
   0   5 -14 4400.89 4555.47  11
   0  -5  14 2713.44 3991.48  16
   0   5 -14 3028.94 3284.02  18
  -5   0  14 155.816 1202.34   2
   0  -5  15 2575.28 1250.07  16
   0  -5  15-152.194 200.533   2
   0  -5  16-3749.81 4316.83  16
   0  -5  16-123.415 2518.87   2
   0  -5  17 125.965 3616.45   2
   0  -5  17 1581.75 1781.39  16
   0  -5  18-40.1977 2427.24  16
   0  -5  18 803.160 3102.38   2
   0  -5  19 28048.9 9323.26  16
   0  -5  19 24565.6 8408.78   2
   0  -5  20-196.206 2821.35   2
   0  -5  20 1245.84 2859.24  16
   0  -5  21 18507.5 9561.97  16
   0  -5  21 17886.1 6754.24   2
   0  -5  22-2589.56 2353.17  16
   0  -5  22-804.789 4910.51   2
   0  -5  23 1051.81 3079.07  16
   0  -5  23-557.871 2421.60   2
   0  -5  24 4914.88 6018.64   2
   0  -5  24-229.510 1466.20  16
   0  -5  25-1710.39 1756.47   2
   0  -5  25-712.915 1743.96  16
   0  -5  26 2127.66 5599.29  16
   0  -5  26-969.594 2447.15   2
   0  -5  27 2775.26 3152.10  16
   0  -5  27-2619.23 5032.82   2
   0  -5  28-1012.48 1246.74   2
   0  -5  28 1773.35 3144.73  16
   0  -5  29-494.996 6809.96  16
   0  -5  29-1255.45 2853.02   2
   0  -5  30 561.547 3641.32   2
   0  -5  30-3856.24 5678.42  16
   0  -5  31-5121.94 6329.15  16
   0  -5  31 1952.97 4264.88   2
   0  -5  32 1641.08 4270.49   2
   0  -5  32-3511.82 5955.88  16
   0  -5  33 4703.27 5253.25   2
   0  -5  33 384.533 5641.04  16
   5  -1   0 13196.2 4592.48  14
  -5   1   0 14980.7 5613.01   4
   5  -1   0 14447.0 5145.00   8
  -5   1   0 12520.4 4753.24   5
   5   1   0 14320.6 6185.42   8
   5  -1   0 16249.3 6199.40   1
   5   1   0 14880.0 5619.49  18
  -5   1   0 6616.92 1922.28   2
   5  -1   0 17089.9 4969.84   6
   5  -1   1 217698. 23058.5   1
   5  -1   1 164621. 17281.4  14
   5  -1  -1 123651. 12200.0   6
  -5   1  -1 189485. 21847.4   4
   5   1  -1 180820. 20773.5  18
   5   1   1 93294.9 14414.3   8
   5   1  -1 188697. 21259.6   8
  -5   1   1 160545. 16536.0   4
  -5   1  -1 135062. 16731.0   5
   5  -1  -1 151066. 16852.6   1
  -5  -1   1 76179.6 15407.2   4
   5   1   1 105628. 13473.8  18
   5  -1   1 215952. 19378.4   6
   5  -1   1 209578. 21637.5   8
   5   1  -1 184185. 27975.1   1
   5  -1  -1 137480. 14735.0  14
  -5   1   1 120540. 12872.4   5
  -5   1  -1 105840. 7606.54   2
   5  -1  -2 3226.89 2394.82  14
  -5  -1   2 394.119 313.639   5
   5  -1   2 5158.11 6479.90   8
   5  -1   2 5558.08 3974.75   6
   5   1  -2 3343.67 2525.59  18
  -5   1   2-102.563 909.443   2
   5   1   2 1832.98 2162.57  18
   5  -1  -2 2691.77 2122.20   1
   5   1  -2 3224.38 3185.67  11
  -5  -1   2 1838.53 3099.10   4
  -5   1  -2 5088.83 2808.20   5
  -5  -1   2 1791.85 1388.19   2
   5   1  -2 4977.58 2191.62   1
   5  -1   2 2209.36 2763.44  14
  -5   1  -2 5782.12 5665.98   4
  -5   1   2 1739.86 1452.43   5
  -5   1   2-516.890 2123.47   4
   5  -1   2 5323.81 4696.05   1
   5   1  -2 5078.63 3830.66   8
   5  -1   3 266.958 942.862  16
   5   1  -3 1756.29 3455.68   1
  -5   1   3-735.722 2021.10   5
   5   1  -3-690.776 2615.48  11
   5  -1  -3 603.863 1738.05  14
   5  -1   3 208.712 1617.32   1
  -5  -1   3 229.051 2151.00   2
   5   1  -3 1132.12 1495.44  18
  -5  -1   3 1166.41 736.335   4
  -5   1  -3 1045.24 2864.49   5
   5  -1  -3 766.525 2382.87   1
   5   1  -3 176.076 968.490   8
   5  -1   3 584.803 2351.58   8
  -5  -1   3 2324.86 3408.68   5
   5  -1   3 750.888 1382.09  14
  -5   1  -3 2057.69 2537.00   4
  -5  -1   4 50193.6 12390.4   4
  -5   1  -4 22948.2 6936.08   5
  -5   1  -4 33112.3 9563.14   4
   5   1  -4 90826.0 19695.4   1
   5  -1   4 56281.2 11596.5  14
  -5  -1   4 68225.1 14652.9   2
   5  -1   4 55369.7 9230.92  16
  -5   1   4 31723.5 5939.42   5
  -5  -1   4 53766.8 14552.6   5
  -5  -1   4 54680.9 6816.88  16
   5  -1  -4 26946.5 6732.38   1
   5   1  -4 49431.2 8343.32   8
   5  -1  -4 31808.4 6508.89  14
   5  -1   4 63128.1 12095.1   8
   5   1  -4 32334.1 7500.79  14
   5  -1   4 53616.3 11503.6   1
   5  -1   5 22070.8 8162.96   8
  -5  -1   5 17680.8 4325.93  16
   5   1  -5 12591.8 4613.25  14
   5   1  -5 33111.5 11267.5   1
   5  -1  -5 8389.00 3146.21  14
  -5  -1   5 26350.2 8198.93   4
  -5  -1   5 27461.6 9177.89   2
   5  -1  -5 8349.99 3883.06   1
   5  -1   5 21755.4 6990.84  16
  -5  -1   5 20749.9 7205.87   5
  -5   1  -5 8837.76 5278.20   4
  -5  -1   6 116422. 14753.8   4
   5  -1   6 124352. 17941.7  16
   5  -1  -6 34831.3 6791.61  14
   5   1  -6 133477. 21319.8   1
  -5  -1   6 49155.6 7017.62  16
  -5  -1   6 115490. 16853.2   2
   5  -1   6 133553. 20530.7   8
  -5  -1   6 91413.9 14178.8   5
   5  -1  -6 26584.0 6734.62   1
   5   1  -6 73865.6 10859.1  14
   5   1  -7 10423.0 3978.94  14
  -5  -1   7 4469.22 1733.17  16
   5   1  -7 18225.9 7492.16   1
   5  -1   7 15566.3 6109.44  16
   1  -5   7 6599.12 3835.62   6
  -5  -1   7 15579.4 5723.09   5
   5  -1  -7 4241.28 2512.71  14
   5  -1   7 24065.8 9002.87   8
   5  -1  -7 2811.75 1455.08   1
  -5  -1   7 14240.1 6558.71   2
  -5  -1   7 14991.9 4581.31   4
   5   1  -8 112906. 17446.9   1
   1  -5   8 68246.4 12919.5   6
   5   1  -8 73428.7 10271.9  14
  -5  -1   8 129105. 13242.8   4
  -5  -1   8 110798. 14052.2   5
  -1  -5   8 39599.3 8385.52   6
   1   5  -8 74481.6 15181.5  18
   5  -1   8 96188.7 16519.2   8
   5  -1   8 94575.4 15601.3  16
  -5  -1   8 92194.9 14305.3   2
   5  -1   8 80759.3 6011.00   2
   5  -1   9 25100.1 3461.61   2
  -5  -1   9 33036.3 6238.73   4
  -1   5  -9 24065.3 6901.28  18
   5   1  -9 32281.8 9269.50   1
   1  -5   9 33884.5 9542.11   6
  -5  -1   9 23483.5 7252.05   2
   5  -1   9 23854.6 7855.55   8
  -5  -1   9 35279.5 7618.95   5
   5   1  -9 21121.0 5556.68  14
   5  -1   9 29668.8 8548.46  16
  -1  -5   9 25891.9 7187.20   6
   1   5  -9 25532.3 8701.95  18
  -1   5 -10 5476.55 3101.17  18
   1   5 -10 6455.08 5735.45  18
  -5  -1  10 1872.19 597.780   2
   5  -1  10 6036.12 3876.39   8
   5  -1  10 6128.47 4515.49  16
   1  -5  10 12203.4 5903.75   6
   5  -1  10 3680.31 1479.27   2
   5   1 -10 6640.59 4189.64   1
  -1  -5  10 10492.3 5502.58   6
  -5  -1  10 4922.13 2756.24   5
   5   1 -10 5292.34 2968.86  14
  -1   5 -10 7992.09 2714.59   4
  -5  -1  11 15900.9 4995.15   5
  -1   5 -11 27167.8 9125.78  18
   5   1 -11 5943.62 2555.45  14
   5  -1  11 11116.3 2572.16   2
   5  -1  11 8101.92 4083.92  16
   1   5 -11 30439.0 12038.2  18
   5   1 -11 6854.21 3065.82   1
   1  -5  11 16349.6 2934.69  14
  -1   5 -11 24913.4 4835.49   4
   5  -1  11 8647.60 4176.29   8
  -5  -1  11 14366.7 5298.68   2
   1  -5  12 4765.20 1241.54  14
   5  -1  12 1677.65 694.698   2
   5   1 -12 1356.40 825.513  14
   1  -5  12 8126.42 10382.8  16
  -5  -1  12 3279.64 2191.48   5
   5  -1  12 747.816 1253.50  16
   5   1 -12 198.369 2910.26   1
   1   5 -12-281.468 2889.11  18
  -1   5 -12 9921.90 5871.15  18
  -5  -1  12 3398.50 1131.04   2
  -1  -5  12 4536.06 6881.86  16
   5  -1  13 14145.3 3164.46   2
   1   5 -13 26636.4 8195.09  18
   1  -5  13 27986.8 4360.59  14
  -1   5 -13 30452.4 10280.0  11
  -5  -1  13 21019.1 5169.29   5
   5   1 -13 6521.04 2372.43  14
  -1  -5  13 22585.2 8042.27  16
  -1   5 -13 25013.4 7859.68  18
   5  -1  13 17090.4 7299.09  16
  -5  -1  13 17772.4 6649.98   2
   1   5 -13 30741.6 11099.7  11
   1  -5  13 27406.4 9624.75  16
   5   1 -13 5833.58 3755.02   1
  -1  -5  14 11382.0 5749.93   2
  -5  -1  14 18439.1 6772.38   2
   1  -5  14 22118.2 7272.51  16
   5   1 -14 4356.79 3859.59   1
   5  -1  14 17379.8 3810.11   2
  -5  -1  14 15684.4 4153.90   5
   1   5 -14 21617.2 7056.18  18
   5   1 -14 6427.01 2655.68  14
  -1  -5  14 16553.1 6371.35  16
  -1   5 -14 24115.8 8662.86  11
   5  -1  14 14134.0 6152.67  16
   1   5 -14 35491.8 10142.1  11
   5   1 -15 2403.52 3393.72   1
  -5  -1  15 16566.8 4602.10   5
   1  -5  15 19106.9 7548.65  16
  -1   5 -15 18731.7 8545.59  11
  -5  -1  15 13373.9 5888.37   2
  -1  -5  15 15649.5 6723.94  16
   5  -1  15 14815.1 4019.28   2
   5  -1  15 15138.1 6243.32  16
   5   1 -15 2612.86 1643.00  14
   1   5 -15 16563.8 8138.60  11
  -1  -5  15 7577.89 4674.29   2
  -1  -5  16-4317.29 4081.33   2
   1  -5  16 14.8569 2818.68   2
   1  -5  16 5487.49 5018.98  16
   5  -1  16 1352.20 1700.52  16
   5   1 -16-1622.85 365.112   1
  -5  -1  16 2712.24 3141.20   2
  -1  -5  16 391.163 2949.77  16
  -5  -1  16 859.865 1169.54   5
   5   1 -16 522.745 1284.17  14
   5  -1  16 584.458 1679.57   2
  -1  -5  17 19576.9 7934.77  16
  -1  -5  17 10884.5 4778.70   2
  -5  -1  17 15805.1 7408.67   2
   5   1 -17 1777.45 3064.54   1
  -5  -1  17 18861.4 5375.41   5
   5  -1  17 18317.6 6892.04  16
   1  -5  17 8167.46 4834.93   2
   1  -5  17 16978.8 6934.79  16
   5  -1  17 18004.4 4671.44   2
   5   1 -17 3144.49 1573.63  14
   1  -5  18 14627.9 6657.06   2
   5  -1  18 8455.90 3267.18  16
   5   1 -18 3528.68 4246.62   1
   1  -5  18 17868.9 6182.01  16
   5  -1  18 13390.6 4401.14   2
  -5  -1  18 19594.6 8463.60   2
  -1  -5  18 13974.5 6140.14  16
  -1  -5  18 10335.9 5045.99   2
   5  -1  19-391.221 2218.40  16
  -1  -5  19 10186.7 6239.86   2
   1  -5  19 9682.05 5879.97  16
   1  -5  19 10594.9 6399.73   2
  -1  -5  19 8517.61 5436.65  16
   5  -1  19 8831.42 3376.16   2
  -5  -1  19 7979.95 5024.82   2
  -1  -5  20 44825.7 11357.3  16
  -5  -1  20 37761.4 11003.5   2
   5  -1  20 34673.8 7370.03   2
   1  -5  20 31279.4 9065.26   2
  -1  -5  20 36677.3 9981.80   2
   1  -5  20 44748.6 11097.2  16
   5  -1  20 9505.27 9022.09  16
   5  -1  21 2117.05 4234.96  16
  -1  -5  21 3744.53 4970.82  16
   1  -5  21 1250.93 3578.78   2
  -1  -5  21 3904.87 5908.36   2
   1  -5  21 3811.17 4406.45  16
   5  -1  21 7005.57 2705.10   2
  -1  -5  22 3147.03 4092.57  16
  -1  -5  22 12755.7 6077.69   2
   1  -5  22 4241.53 6668.13   2
   1  -5  22 4945.00 4361.36  16
   5  -1  22 10448.1 5781.64  16
   1  -5  23 110.269 1978.60  16
  -1  -5  23 412.095 2109.84   2
   1  -5  23 2656.89 4344.89   2
  -1  -5  23 4997.00 5039.11  16
  -1  -5  24-2460.50 5137.23   2
   1  -5  24 1439.47 6951.86   2
   1  -5  24-4225.02 5426.61  16
  -1  -5  24-4211.26 5246.50  16
  -1  -5  25 3935.12 5474.15  16
   1  -5  25 347.126 2839.94   2
   1  -5  25-2186.37 5389.18  16
  -1  -5  25 866.608 3242.60   2
   1  -5  26 1022.56 3627.30   2
  -1  -5  26 1329.04 2045.00   2
   1  -5  26-876.166 5573.57  16
  -1  -5  26-4761.76 5854.63  16
  -1  -5  27 2234.72 6480.89   2
   1  -5  27-488.638 2996.01   2
  -1  -5  27 401.421 2808.70  16
   1  -5  27-2853.40 5250.07  16
  -1  -5  28-1098.18 4105.66   2
   1  -5  28-2221.03 5397.53   2
  -1  -5  28-1065.83 2036.04  16
   1  -5  28 526.915 1949.58  16
  -1  -5  29-1654.16 1624.91  16
   1  -5  29-4226.78 5001.00  16
   1  -5  29 1021.75 3957.89   2
  -1  -5  29 1915.36 2977.02   2
   1  -5  30-829.415 3511.17   2
  -1  -5  30-1383.75 4913.25  16
   1  -5  30 4671.02 5566.80  16
  -1  -5  30 5319.68 7467.83   2
   1  -5  31-4338.21 6075.38  16
  -1  -5  31-1755.17 4499.66  16
   1  -5  31 1086.68 4199.60   2
  -1  -5  31-7900.76 7911.60   2
  -1  -5  32 772.933 4661.00  16
   1  -5  32-156.640 1260.08   2
   1  -5  32 739.261 3966.10  16
  -1  -5  32 785.085 3848.83   2
  -1  -5  33-221.152 2088.17   2
   1  -5  33 2116.53 7412.33   2
   1  -5  33-218.869 1792.12  16
  -1  -5  33 153.718 1576.42  16
   5  -2   0 153602. 14779.9  14
  -5   2   0 151664. 13027.2   5
   5  -2   0 130503. 13853.7   1
   5  -2  -1 9078.25 3522.43   1
   5  -2  -1 11098.5 3749.69  14
   5  -2   1 12647.5 4225.68   1
   5  -2   1 18756.0 5782.31  14
   5   2  -1 13102.2 5102.14  18
  -5   2  -1 17248.8 4267.20   5
  -5   2  -1 21569.0 6029.92   4
   5  -2   1 16879.1 5568.46   6
  -5   2  -2 131329. 16574.0   4
   5  -2  -2 37522.5 7379.05   1
   5  -2   2 106877. 13319.5  14
   5   2  -2 73002.0 11725.4   8
   5  -2  -2 49293.2 8540.98  14
  -5   2  -2 109231. 12122.8   5
   5  -2   2 126566. 15267.2   6
   5  -2   2 117118. 13539.2   1
   5   2  -2 98561.0 16483.1  18
  -5   2  -3 169528. 16812.1   5
   5  -2   3 208064. 21570.2   6
  -5   2  -3 206730. 22277.1   4
   5  -2   3 209776. 21667.1   8
   5   2  -3 191771. 26801.9  18
   5  -2   3 202687. 19365.5   1
   5   2  -3 174857. 21081.8   8
   5  -2   3 174546. 17859.1  14
   5  -2   4 89457.9 14993.6   1
  -5   2  -4 58220.1 14293.1   4
   5  -2   4 60463.6 10815.3  14
   5   2  -4 68968.8 14514.3  18
   5  -2   4 84897.4 15545.2   6
   5   2  -4 63128.5 10552.9   8
   5  -2   4 73972.4 14463.3   8
  -5  -2   4 33688.8 9359.38   2
   5   2  -4 50510.0 14152.5   1
  -5   2  -4 59807.7 10963.8   5
  -5  -2   5 48119.7 11509.4   2
  -5   2  -5 59791.9 11764.8   5
  -5  -2   5 24875.3 6661.47   4
  -5   2  -5 64739.0 13672.1   4
   5   2  -5 73373.7 15611.7  11
   5  -2   5 48972.4 9650.00  16
   5  -2   5 97766.8 16647.5   8
  -5  -2   5 26241.8 7376.72   5
   5   2  -5 63113.2 12690.1  18
   5  -2   5 82493.4 13389.3  14
   5  -2   5 102109. 16161.7   1
   5   2  -5 66592.7 9274.60   8
   5   2  -5 53233.5 13373.0   1
  -5   2  -6 43807.1 8870.31   5
  -5  -2   6 70305.4 13930.5   2
   5   2  -6 85874.5 15902.4  11
   5  -2   6 105585. 15550.4   8
   5   2  -6 83765.4 9448.41   8
  -5  -2   6 46444.8 10641.6   5
   5  -2   6 84887.2 13986.0  16
   5  -2   6 86820.4 13046.6   1
   5   2  -6 76837.6 13973.4  18
  -5  -2   6 39152.1 8106.79   4
  -5   2  -6 46182.2 10949.1   4
   5  -2   6 105962. 15913.4  14
   5   2  -6 80305.0 16520.0   1
  -5  -2   6 77221.6 10247.2  16
  -5  -2   7 166572. 15739.0  16
  -5   2  -7 66172.3 12655.0   4
  -5  -2   7 111559. 17048.5   5
   5   2  -7 171622. 24776.9   1
   2  -5   7 70081.3 13745.3   6
   5  -2   7 176838. 19870.6  16
   2   5  -7 63406.3 13490.6  18
   5  -2   7 188187. 20802.7  14
  -5  -2   7 105179. 14085.9   4
   5  -2   7 198673. 21122.9   8
  -5  -2   7 173221. 23162.5   2
   5   2  -7 201617. 25462.2  11
  -5  -2   8 35000.1 9934.19   5
  -5  -2   8 52286.9 10418.5  16
   5  -2   8 49729.9 11255.6  16
   5  -2   8 55561.8 11509.2   8
   2   5  -8 34644.9 10438.0  18
  -2  -5   8 10878.8 3756.58   6
   5   2  -8 63256.5 15023.5   1
  -5  -2   8 42516.3 8754.59   4
   2  -5   8 29473.8 8096.43   6
  -5  -2   8 61068.3 14878.9   2
  -5  -2   9 53684.1 12856.8   5
   5  -2   9 33515.5 5017.81   2
  -5  -2   9 65261.7 11323.3   4
   2  -5   9 37577.3 10246.8   6
   5  -2   9 59079.6 11902.6   8
  -2   5  -9 68847.3 8536.04   4
   2   5  -9 51229.8 12850.8  18
  -5  -2   9 57442.6 11625.9  16
  -2   5  -9 31748.2 7925.18  18
   5  -2   9 61555.7 13275.7  16
   2  -5   9 18507.4 3968.87  14
  -2  -5   9 25194.5 6589.29   6
  -5  -2   9 68220.2 15919.1   2
   5   2  -9 62526.6 16584.9   1
   5  -2  10 69384.9 8843.21   2
   5  -2  10 80617.4 15808.4   8
  -5  -2  10 69035.4 10534.5   4
   2   5 -10 81813.2 18735.8  18
   2  -5  10 50809.0 7003.24  14
  -5  -2  10 76250.1 16272.1   2
   2  -5  10 54869.0 13924.4   6
   5   2 -10 73323.9 16496.2   1
  -2   5 -10 97295.1 11428.1   4
  -5  -2  10 62868.1 12459.9   5
  -2   5 -10 57983.5 11560.9  18
   5  -2  10 75150.4 16623.4  16
  -5  -2  10 55946.3 11558.7  16
  -2  -5  10 48045.6 10305.7   6
  -2   5 -11 6176.39 6276.37  18
  -5  -2  11 6203.22 8213.27   2
  -2   5 -11 4162.54 2686.44   4
   2  -5  11 2769.90 2610.44  14
   5  -2  11 5205.17 11402.5  16
   5   2 -11 18788.9 10906.1   1
   5  -2  11 10607.9 11326.1   8
   2   5 -11 2632.04 6293.60  18
  -5  -2  11 4146.41 4779.86   5
  -5  -2  11 3738.04 5968.97  16
  -5  -2  11 4195.72 3293.63   4
   5   2 -11 3213.53 3224.74  14
   2   5 -12 92079.3 17366.0  18
  -5  -2  12 91289.6 10420.1   4
  -5  -2  12 55191.3 11020.3  16
   5  -2  12 107258. 12409.4   2
  -2   5 -12 94982.5 14385.8  18
   5  -2  12 85760.4 16671.2   8
   2  -5  12 90648.2 17795.4  16
   5   2 -12 64415.3 14132.5   1
  -5  -2  12 69728.2 11366.6   5
  -2   5 -12 40971.2 6818.95   4
   2  -5  12 117846. 10893.4  14
  -2  -5  12 62390.3 13714.4  16
   5  -2  12 84464.6 17672.9  16
  -5  -2  12 86611.3 16856.1   2
   5  -2  13 16590.9 4864.74   2
  -5  -2  13 15958.0 7905.29   2
   2  -5  13 7457.29 5169.98  16
   5   2 -13 1263.61 830.045  14
   2  -5  13 13378.9 3485.58  14
  -5  -2  13 15022.5 5557.02   5
   2   5 -13 18021.7 7925.97  11
  -2   5 -13 15411.1 5727.92  18
   5  -2  13 15127.1 6804.34   8
  -2   5 -13 12989.4 5744.69  11
  -5  -2  13 6992.90 3642.23  16
  -2  -5  13 8899.94 4746.04  16
   2   5 -13 14278.8 6925.76  18
  -5  -2  13 12361.5 3492.21   4
   5  -2  13 10972.7 5886.41  16
   5   2 -13 6736.23 4803.79   1
   5  -2  14 36583.6 11647.8  16
  -5  -2  14 39747.1 8210.82   5
   2   5 -14 49600.1 12372.4  11
   5   2 -14 13327.0 6032.92   1
  -2  -5  14 21942.6 7478.97   2
  -5  -2  14 32291.8 9199.76   2
   5  -2  14 35949.8 10287.3   8
  -5  -2  14 42351.5 6630.56   4
  -2   5 -14 39043.2 11203.0  11
   5  -2  14 49781.3 8486.76   2
   2   5 -14 36367.0 10136.2  18
  -2  -5  14 32362.9 9505.50  16
   2  -5  14 39201.3 9710.86  16
  -5  -2  14 23514.4 8479.40  16
  -5  -2  15 2314.89 1596.66   4
   2  -5  15 2912.20 3528.09  16
   5  -2  15 3709.93 3449.15   8
  -2  -5  15-944.347 3005.63   2
   5   2 -15 927.996 1074.33  14
  -5  -2  15 3972.42 4356.83  16
  -5  -2  15 3583.41 3357.05   5
  -5  -2  15 2864.48 4241.17   2
   5  -2  15-1072.78 1337.44   2
  -2  -5  15 1754.61 1412.17  16
   5  -2  15 11383.5 6885.63  16
   5   2 -15 6704.33 4634.21   1
   5   2 -16 16038.1 8638.07   1
   2  -5  16 48185.4 10939.8  16
  -2  -5  16 22629.5 7077.62   2
  -5  -2  16 37331.8 10141.4  16
   5  -2  16 55484.0 10070.9   2
  -5  -2  16 49223.6 9162.48   5
   5  -2  16 38484.8 10689.8   8
  -2  -5  16 45327.6 10696.3  16
  -5  -2  16 39016.1 12525.9   2
   5  -2  16 31547.9 13011.8  16
   5   2 -17 6500.07 6198.39   1
  -5  -2  17 7564.34 5916.56  16
   5  -2  17 12276.2 7014.41   8
   5  -2  17 11888.6 5250.23   2
  -2  -5  17 10496.4 4847.37  16
   5  -2  17 8977.82 5796.46  16
   2  -5  17 12256.4 6539.04  16
   2  -5  17 6418.24 4395.96   2
  -2  -5  17 7216.56 4104.93   2
  -5  -2  17 14986.6 8674.89   2
  -5  -2  17 10969.7 4154.12   5
   2  -5  17 10893.2 3914.02   8
  -2  -5  18 20803.0 8380.60   2
   5  -2  18 46368.2 13301.9  16
   5  -2  18 42268.6 8995.90   2
   2  -5  18 35205.7 6328.73   8
   5  -2  18 31662.1 8967.31   8
  -5  -2  18 20353.9 8927.22  16
   5   2 -18 9251.32 4638.31   1
  -5  -2  18 33566.0 10364.8   2
  -2  -5  18 26810.4 8214.65  16
  -5  -2  18 38812.5 7875.46   5
   2  -5  18 12460.1 5915.53   2
   2  -5  18 23538.1 8424.84  16
  -5  -2  19 54223.9 9311.99   5
   2  -5  19 30445.4 9004.64   2
   5  -2  19 66206.1 11449.3   2
   5   2 -19 5932.60 4639.60   1
  -5  -2  19 37943.7 10639.2  16
   2  -5  19 41960.6 11034.5  16
   2  -5  19 50022.6 7532.30   8
  -2  -5  19 28191.5 10923.0  16
   5  -2  19 34786.7 10282.9   8
   5  -2  19 12723.8 10471.4  16
  -5  -2  19 59663.4 15146.7   2
  -2  -5  19 16841.4 7200.82   2
   2  -5  20 27439.6 9525.49  16
  -5  -2  20 36172.5 7478.05   5
  -2  -5  20 30958.1 9473.92   2
  -2  -5  20 29730.6 8964.04  16
   5  -2  20 27232.9 10976.8  16
   5   2 -20 5812.35 4152.06   1
  -5  -2  20 37036.2 11770.7   2
  -5  -2  20 16456.8 7503.82  16
   5  -2  20 37968.9 9224.20   2
   5  -2  20 25122.4 8876.64   8
   2  -5  20 21058.7 8229.61   2
   5  -2  21 38989.0 9231.63   2
  -5  -2  21 34549.0 12012.4  16
   5  -2  21 39279.5 12282.0  16
   2  -5  21 17401.9 7934.70  16
   5   2 -21-92.1800 3142.93   1
  -2  -5  21 22624.6 8447.86   2
   5  -2  21 24873.2 8129.57   8
  -5  -2  21 24215.8 12970.2   2
   2  -5  21 18592.8 7445.01   2
  -2  -5  21 15054.7 8830.97  16
  -5  -2  21 32910.5 7533.62   5
   2  -5  22 4419.59 7009.11   2
   2  -5  22 2351.59 4341.12  16
  -5  -2  22 7021.54 7588.09  16
  -5  -2  22 16825.3 5279.20   5
  -2  -5  22 6169.66 4614.10   2
   5  -2  22 16655.5 6381.38   2
   5   2 -22 182.078 4151.41   1
  -2  -5  22 5678.88 5924.32  16
   5  -2  22 11298.6 6207.86   8
  -5  -2  22 5177.97 8736.92   2
   5  -2  22 6182.92 5259.59  16
  -5  -2  23 7219.82 5475.69  16
  -2  -5  23 2323.07 2634.93   2
   5  -2  23-484.043 2785.18   8
   2  -5  23-1366.70 3132.96   2
  -2  -5  23-703.769 3237.77  16
   5  -2  23 5602.37 3632.38   2
   5  -2  23 1375.63 2342.99  16
   5   2 -23-2411.57 1639.30   1
  -5  -2  23 535.182 5702.04   2
   2  -5  23-7811.51 5005.92  16
  -2  -5  24 10679.2 7446.88  16
   5  -2  24 1218.73 5468.65  16
  -5  -2  24 6363.03 4779.26  16
   5  -2  24 6954.39 6300.51   8
  -5  -2  24 6513.40 7751.45   2
   2  -5  24 1855.31 5719.04   2
  -2  -5  24 6960.82 6372.86   2
   2  -5  24 2279.27 1868.61  16
   5  -2  24 7673.48 4857.61   2
   5  -2  25-659.134 5307.49  16
   2  -5  25 3269.63 6880.02   2
   2  -5  25-3094.29 5582.99  16
  -2  -5  25-2935.64 3434.39   2
   5  -2  25-5173.29 4197.89   8
  -2  -5  25 4484.21 6245.69  16
  -2  -5  26-2213.53 2491.46  16
   2  -5  26 5886.53 6346.88   2
   2  -5  26 2560.66 1276.20  16
  -2  -5  26 4350.03 7597.89   2
   5  -2  26 1746.67 5363.64  16
  -2  -5  27-10488.7 6608.57  16
  -2  -5  27-480.290 4519.14   2
   2  -5  27-2824.63 4679.93   2
   2  -5  27-3844.60 5844.79  16
   2  -5  28-1835.14 5301.33  16
  -2  -5  28 5782.72 5193.40  16
   2  -5  28-2507.07 4892.55   2
  -2  -5  28 2420.29 1395.49   2
   2  -5  29-3668.54 4862.45   2
  -2  -5  29-9698.09 7764.68  16
   2  -5  29 281.180 858.377  16
  -2  -5  29-1083.30 2860.22   2
  -2  -5  30 4562.79 3143.06  16
   2  -5  30 921.183 3787.01   2
   2  -5  30 3137.67 6227.96  16
  -2  -5  30 2576.00 9389.11   2
   2  -5  31 2333.41 5454.22   2
  -2  -5  31-4114.19 1730.83   2
   2  -5  31-242.304 1460.78  16
  -2  -5  31 516.143 3209.92  16
  -2  -5  32-858.889 1974.04  16
   2  -5  32 564.990 4971.56  16
  -2  -5  32 10074.5 9362.30   2
  -2  -5  33 2513.38 1739.69   2
  -2  -5  33 401.209 2393.38  16
   2  -5  33-1483.76 5004.07  16
   2  -5  34-180.108 3927.38  16
   5  -3   0-288.038 511.450  14
   5  -3   1 31507.6 7435.96  14
   5  -3   2 7994.40 3021.19   1
   5  -3   2 7121.67 3156.09  14
   5   3  -2 6959.14 4340.63  18
   5  -3   3 60681.0 8878.41   1
  -5   3  -3 84321.1 9721.92   5
   5  -3   3 81284.6 11257.9  14
   5  -3   3 77719.8 12832.2   6
   5   3  -3 64187.1 13743.9  18
   5  -3   4 28236.9 8218.53   6
  -5   3  -4 29452.8 8596.30   4
  -5   3  -4 17764.4 4774.06   5
   5   3  -4 25779.4 9714.58  18
   5  -3   4 19769.6 5960.35   1
   5  -3   4 22313.3 7316.55  14
   5  -3   5 63959.7 13096.6   6
   5  -3   5 47416.8 8134.60   1
   5   3  -5 44602.7 9259.77   8
  -5   3  -5 63146.1 12179.1   4
   5  -3   5 48234.4 9230.76  14
  -5   3  -5 53521.6 8741.19   5
   5   3  -5 54441.9 13984.4  18
   5   3  -6 204408. 27721.0  18
   5  -3   6 249030. 28537.6   6
   5  -3   6 194884. 21110.8   8
  -5   3  -6 212921. 25047.6   4
   5  -3   6 248542. 20543.6   1
   3  -5   6 53364.8 12070.8   6
   5  -3   6 197480. 20133.5  14
   3   5  -6 41680.8 10045.1  18
   5   3  -6 182828. 15943.3   8
  -5   3  -6 157824. 16877.2   5
   5   3  -7 74261.2 8472.79   8
   5   3  -7 76304.0 15196.0  18
  -5   3  -7 73431.8 15080.9   4
   3   5  -7 32995.8 10588.7  18
   5  -3   7 107547. 14570.8   1
  -5   3  -7 64519.7 11906.3   5
   5  -3   7 79022.1 13559.3   8
   3  -5   7 30526.5 8723.52   6
  -5  -3   7 44249.7 12107.4   2
   5  -3   7 77258.2 12840.1  14
  -5   3  -8 125747. 9898.04  11
  -5  -3   8 107795. 14064.6  16
   3  -5   8 53435.8 9082.70  14
   5  -3   8 109984. 12529.9   1
  -5   3  -8 97407.8 16224.8   4
   5  -3   8 166106. 19061.5  14
   5  -3   8 153125. 18591.4   8
   5   3  -8 71820.0 14897.4   1
   5   3  -8 111838. 17708.1  18
   3   5  -8 97023.0 19051.6  18
  -5  -3   8 89431.2 16510.0   2
   3  -5   8 101864. 16929.5   6
   5  -3   8 121668. 18131.0  16
  -5   3  -8 79045.3 11482.9   5
   5   3  -8 155711. 22658.7  11
  -3  -5   8 29249.8 5759.10   6
   5   3  -9 77535.0 16110.0  11
   5   3  -9 65431.4 13671.6  18
   5  -3   9 72136.3 13944.7  16
  -3   5  -9 97436.5 12078.4   4
  -3   5  -9 34673.8 7860.14  18
  -5  -3   9 62541.4 10766.8  16
   5   3  -9 38359.7 10391.8   1
   3  -5   9 46518.3 7598.42  14
   5  -3   9 76352.8 12341.4  14
  -5   3  -9 30574.9 7869.73   4
   5  -3   9 89982.5 13620.9   8
   3  -5   9 49324.0 14586.0   6
   3   5  -9 71020.6 17364.1  18
  -5  -3   9 52247.6 12578.9   2
  -3  -5   9 27077.1 6508.24   6
  -3   5 -10 26090.0 6804.67   4
  -5  -3  10 13355.6 5508.02  16
   5   3 -10 10887.1 5552.19   1
   5   3 -10 22339.9 6837.54  11
   3  -5  10 19714.1 8965.28   6
  -5  -3  10 10264.4 5584.75   5
  -3   5 -10 21583.9 3371.04   5
   5  -3  10 19079.7 5755.40   8
   5  -3  10 21291.6 6927.49  14
   3  -5  10 14236.9 4130.43  14
  -3   5 -10 19615.1 5485.12  18
   3   5 -10 22165.9 6923.44  18
  -5  -3  10 9474.35 4590.95   2
   5  -3  10 17704.0 7485.16  16
  -5  -3  11 47013.7 10480.5  16
  -3   5 -11 49395.6 6189.96   5
   3  -5  11 72745.6 9076.67  14
  -5  -3  11 24155.5 7227.17   5
  -5  -3  11 37106.9 11410.2   2
  -5  -3  11 17695.7 4593.34   4
   5  -3  11 59819.4 13411.8  16
  -3   5 -11 63681.3 10621.1   4
  -3   5 -11 80130.0 13695.8  18
   5   3 -11 36102.6 10680.6   1
   3   5 -11 85674.3 22002.5  18
   5  -3  11 73773.3 12881.3   8
   3  -5  12 22.5071 2166.76  14
  -5  -3  12 1546.63 2038.83  16
  -5  -3  12 2200.52 3216.23   2
   3   5 -12-1704.55 3521.58  18
  -5  -3  12 1594.09 1491.49   4
   5  -3  12 853.060 1985.61   8
  -3   5 -12-78.7484 1657.55  18
   5  -3  12 879.541 2666.36  16
  -3   5 -12 2071.89 991.965   4
   5   3 -12 2576.95 4958.52   1
  -5  -3  12 2132.52 3824.43   5
   3  -5  13 76937.8 15126.2  16
  -3  -5  13 65076.6 13970.2  16
   3  -5  13 94528.0 10766.0  14
  -5  -3  13 84286.1 14714.9  16
  -5  -3  13 73650.2 16764.0   2
  -5  -3  13 45249.4 7443.89   4
   5  -3  13 66233.9 13661.7  16
   3   5 -13 96211.2 18327.2  11
   3   5 -13 84475.0 15625.5  18
   5  -3  13 54959.1 8230.87   2
   5   3 -13 62293.7 14694.0   1
   5  -3  13 88134.4 13536.3   8
  -5  -3  13 53973.0 10796.3   5
   5  -3  14 6086.42 3111.93   2
   5   3 -14 10327.0 5659.93   1
   5  -3  14 7247.76 4628.28  16
   3   5 -14 2559.44 1926.00  18
   3   5 -14 6977.47 5274.23  11
  -5  -3  14 5341.66 2650.64   5
  -5  -3  14 7364.09 2890.37   4
   5  -3  14 10089.9 5047.17   8
  -3   5 -14 12474.3 7104.47  11
  -5  -3  14 8892.98 5094.71  16
  -5  -3  14 8144.02 5599.70   2
  -3  -5  14-740.724 3338.92   2
   3  -5  14 5129.62 4043.31  16
  -3  -5  14 8074.97 5540.22  16
   3  -5  14 7573.25 3574.26  14
   5  -3  15 18013.0 4945.95   2
  -5  -3  15 12669.2 7075.52  16
   5   3 -15 6534.14 3286.69   1
  -5  -3  15 17963.7 4654.14   4
   3   5 -15 21427.7 8725.51  11
   3  -5  15 11081.0 5856.90  16
   5  -3  15 14568.1 7712.44  16
   5  -3  15 25637.9 8053.21   8
  -5  -3  15 27032.3 10193.6   2
  -5  -3  15 15471.6 5513.27   5
  -3  -5  15 12693.5 6117.48  16
  -3  -5  15 8530.61 4695.52   2
   5  -3  16 3544.59 4400.15  16
   5   3 -16 4013.71 4126.07   1
   5  -3  16 3560.21 2896.40   8
   5  -3  16-1594.65 3186.10   2
   3  -5  16-48.5520 662.574   8
  -5  -3  16 400.691 1734.45   5
  -5  -3  16-2717.65 6289.98   2
  -3  -5  16 1451.14 1626.08  16
  -5  -3  16-1439.79 2014.13   4
  -3  -5  16 1624.74 3301.48   2
  -5  -3  16-860.924 3829.93  16
   3  -5  16-18.7250 1749.45  16
   5  -3  17 44793.8 14162.6  16
  -5  -3  17 32998.5 8889.90   5
   5   3 -17 15136.0 7213.80   1
   3  -5  17 31679.9 6288.66   8
  -5  -3  17 38474.9 11809.0  16
  -5  -3  17 38843.1 6661.62   4
  -5  -3  17 35499.9 12857.0   2
   5  -3  17 42751.4 10661.8   8
  -3  -5  17 30203.2 9202.33   2
  -3  -5  17 26342.7 9169.35  16
   3  -5  17 28899.3 9795.28  16
   5  -3  17 34401.4 9011.49   2
  -5  -3  18 22510.8 12707.9  16
  -5  -3  18 35616.5 9884.41   5
   5  -3  18 28072.7 7490.68   2
   3  -5  18 34681.0 6792.41   8
  -5  -3  18 48636.0 16515.8   2
   5   3 -18 4182.06 6309.86   1
   5  -3  18 34133.4 9759.80   8
  -3  -5  18 10704.4 7283.52  16
   3  -5  18 32192.8 10365.1  16
  -3  -5  18 19866.4 8030.80   2
   5  -3  18 16579.6 12417.4  16
  -5  -3  19 30312.0 13088.8  16
  -5  -3  19 39293.4 10519.0   5
   3  -5  19 36138.8 7036.70   8
  -3  -5  19 21106.3 8245.65  16
   5  -3  19 41739.7 10382.5   2
   5  -3  19 36849.6 10913.3   8
   3  -5  19 18422.2 6061.74   2
   5  -3  19 45484.0 14693.3  16
   5   3 -19 2916.16 3681.87   1
  -3  -5  19 21734.2 8537.00   2
  -5  -3  19 44497.3 13580.4   2
   3  -5  19 27132.0 8307.64  16
  -3  -5  20 35516.0 10066.2   2
   5  -3  20 56646.2 12672.3   2
  -5  -3  20 57828.3 17686.5   2
   3  -5  20 52206.6 8942.60   8
   3  -5  20 23060.2 6687.89   2
   5  -3  20 46926.3 16467.2  16
   3  -5  20 43890.1 12204.6  16
  -5  -3  20 25430.9 14153.2  16
  -3  -5  20 32014.0 10585.2  16
   5  -3  20 60912.9 13729.5   8
  -5  -3  20 48999.7 10661.7   5
   5   3 -20 4526.54 4722.98   1
  -5  -3  21 2685.75 7772.04   2
   5  -3  21 10719.1 9102.63  16
  -3  -5  21 1791.74 4764.02   2
  -5  -3  21 26310.9 7835.41   5
   5  -3  21 20939.9 7509.91   2
   3  -5  21 6425.72 5475.89   2
   3  -5  21 9339.13 4888.26  16
   5   3 -21 582.245 4276.77   1
   5  -3  21 19870.0 7740.58   8
  -3  -5  21 12436.2 6390.23  16
  -5  -3  21 4844.34 5554.04  16
   3  -5  22 4897.75 3886.59   2
  -3  -5  22 9460.92 6943.47  16
   5   3 -22-2894.06 5330.61   1
  -5  -3  22 9707.01 13552.8   2
   5  -3  22 21696.1 7378.74   8
  -3  -5  22 5629.47 7060.31   2
  -5  -3  22 21343.1 12288.8  16
   5  -3  22 24058.5 7835.99   2
   5  -3  22 9811.93 11090.0  16
   3  -5  22 1031.53 3454.13  16
   5  -3  23 17832.3 6937.49   8
   3  -5  23 1826.32 3612.17  16
   5  -3  23 9874.23 7454.29  16
  -3  -5  23 3565.80 5592.67  16
  -5  -3  23 2655.85 8665.42   2
   3  -5  23 2303.22 5311.56   2
  -5  -3  23 3894.10 6716.91  16
  -3  -5  23 6153.13 5604.49   2
   5   3 -23 1775.52 4725.44   1
   5  -3  23 18190.1 7356.38   2
   5  -3  24 283.607 2773.49  16
   5  -3  24 2020.80 2055.58   2
  -3  -5  24-1367.76 3887.87  16
  -5  -3  24-4081.97 6222.74  16
  -3  -5  24 154.142 3349.38   2
  -5  -3  24-690.279 3295.71   2
   3  -5  24-812.062 1812.73   2
   3  -5  24-2869.00 5651.02  16
   5  -3  24-579.479 3457.78   8
  -3  -5  25 4208.48 2592.26  16
   5  -3  25-898.209 6556.94  16
  -3  -5  25 397.609 2033.90   2
  -5  -3  25-807.095 3072.39   2
   3  -5  25-1703.33 5960.89  16
   3  -5  25-164.931 3535.17   2
  -5  -3  25 4135.32 5161.72  16
   3  -5  26-606.598 5160.19  16
  -3  -5  26 4128.37 5650.18   2
  -5  -3  26 2900.33 3327.80   2
  -5  -3  26 6548.76 4772.72  16
   5  -3  26 36.6856 2805.28  16
   3  -5  26-514.968 1729.79   2
  -3  -5  26-905.598 3420.73  16
  -3  -5  27 4605.44 6291.98   2
   3  -5  27 3385.95 3977.39   2
  -5  -3  27 11822.5 11263.6   2
   3  -5  27 1374.91 3542.05  16
   5  -3  27 1210.98 8843.66  16
  -3  -5  27 13420.1 7330.85  16
  -5  -3  27 3357.10 3864.35  16
   3  -5  28-375.014 4476.56  16
  -3  -5  28-8248.34 7503.90  16
   5  -3  28 1613.65 5522.36  16
  -3  -5  28 131.229 3686.78   2
   3  -5  28-2975.74 2481.84   2
   3  -5  29 1027.53 3451.10  16
  -3  -5  29 6376.01 4596.09  16
  -3  -5  29 1477.75 1748.54   2
   5  -3  29-3476.45 3115.61  16
  -3  -5  30 1545.16 5441.43   2
  -3  -5  30 5782.41 5997.71  16
   3  -5  30-1118.21 3553.16  16
   3  -5  31 3369.93 8000.16  16
  -3  -5  31 2381.46 3668.10   2
  -3  -5  31-2498.45 4635.38  16
  -3  -5  32 6165.47 7456.40   2
   3  -5  32-5466.47 5610.74  16
  -3  -5  32 5908.90 5263.81  16
   3  -5  33-241.663 4844.59  16
  -3  -5  33 1053.75 4928.43   2
  -3  -5  33-7192.50 5340.04  16
   3  -5  34 3648.17 9013.12  16
   5  -4   3 4380.74 2702.62  14
   5   4  -3 2410.90 3586.19  18
   5  -4   4 10293.7 5884.66   6
   5   4  -4 9951.31 4879.91  18
   5  -4   4 4400.51 2227.03  14
   5  -4   5 19590.0 5740.73  14
   5  -4   5 9816.53 2778.11   1
   5  -4   5 21266.7 7595.06   6
   5   4  -5 23308.7 9621.29  18
  -5   4  -5 29369.1 7483.61   4
   4   5  -6 16935.3 7289.30  18
   5  -4   6 18403.3 4856.69   1
   4  -5   6 11424.8 5126.58   6
   5  -4   6 28106.0 7109.08  14
   5   4  -6 31810.5 10571.6  18
   5  -4   6 37065.0 11077.4   6
  -5   4  -6 29599.5 5924.81   5
  -5   4  -6 39052.3 9204.87   4
   5  -4   7 115410. 11720.8   1
   4  -5   7 47135.3 8937.58  14
   5   4  -7 90198.0 11684.3   8
  -5   4  -7 117681. 12552.5   5
   5   4  -7 110954. 21681.3  18
   5  -4   7 132501. 20478.9   6
   4   5  -7 69700.2 15996.7  18
   5  -4   7 112342. 14900.1  14
  -5   4  -7 133501. 18406.1   4
   4  -5   7 69431.5 14297.3   6
  -4  -5   8 3065.98 2270.23   6
   5   4  -8 15779.4 8214.26  18
   4  -5   8 11478.3 6576.13   6
   4  -5   8 6782.91 3455.00  14
  -5   4  -8 13213.2 7224.17   4
   5  -4   8 16231.4 7441.85   6
  -5   4  -8 5961.39 2516.10  18
   5   4  -8 13026.0 3717.57   8
  -4   5  -8 11630.3 4361.39   4
   5  -4   8 12225.1 5041.61  14
  -5   4  -8 8585.91 3447.76   5
   5  -4   8 16493.0 4894.13   1
   4   5  -8 6390.11 4014.87  18
  -5   4  -9 65360.2 13882.8   4
  -5   4  -9 56097.5 9678.10   5
   5   4  -9 62684.5 6609.12   8
  -4  -5   9 13898.6 4174.58   6
  -4   5  -9 22507.9 5410.92  18
  -4   5  -9 94939.4 13331.7   4
   4   5  -9 74879.3 18417.9  18
   5   4  -9 53024.1 13508.3  18
   4  -5   9 62004.0 15352.8   6
   5  -4   9 62153.3 11282.2   8
  -4   5  -9 59921.0 7043.05   5
   5  -4   9 76962.7 12283.9  14
   4  -5   9 48549.5 8250.44  14
   5  -4   9 92566.3 11839.4   1
  -5   4  -9 65074.5 7572.17  18
   4  -5  10 31087.0 4414.55   1
   5  -4  10 30855.3 10010.5  16
  -5   4 -10 36974.6 10881.3   4
  -5   4 -10 52675.9 8772.83  11
   4   5 -10 59775.7 17522.7  18
  -4   5 -10 28728.1 6914.06  18
  -5  -4  10 25978.6 11858.4   2
   5  -4  10 50466.2 10562.4   8
   5   4 -10 38212.1 11565.7  18
  -4   5 -10 43750.0 6589.98   5
  -4   5 -10 47423.7 10574.8   4
   5   4 -10 61640.3 16920.3  11
   4  -5  10 35248.9 11953.1   6
   5  -4  10 55156.9 10968.8  14
   4  -5  10 40348.7 7670.89  14
   5  -4  11 1265.89 2342.07  14
   4  -5  11 3783.27 2060.64  14
   4   5 -11-2733.00 4989.91  18
  -4   5 -11 3210.16 2597.47  18
   5  -4  11-5110.64 5565.84  16
   5  -4  11-477.403 1145.30   8
  -5  -4  11 2578.80 3969.16   2
  -4   5 -11 1731.54 1962.18   4
  -4   5 -11 1457.06 265.339   5
   5   4 -11 1467.21 2410.70  11
  -5   4 -11 425.413 492.661   4
  -5  -4  11 5001.01 3640.69  16
   5   4 -11 1437.81 2183.20  18
   5  -4  12 15716.0 4910.21  14
   4   5 -12 23308.0 9378.55  11
   4  -5  12 20016.0 5321.33  14
  -4   5 -12 20222.5 4496.83  18
   5  -4  12 9693.10 4697.39  16
  -4   5 -12 14495.0 5290.49   4
   5   4 -12 24539.2 10571.7  11
  -5  -4  12 9804.72 5312.99   2
   5  -4  12 16355.8 4964.64   8
  -5  -4  12 11740.2 5121.77  16
   4   5 -12 18517.3 8275.29  18
  -5  -4  13 8076.74 5957.99  16
  -4  -5  13 9756.71 6002.32   2
  -4   5 -13 7689.33 3808.82   4
   5  -4  13 18250.0 6546.85  16
  -4  -5  13 10705.3 5239.55  16
   5  -4  13 17216.9 5569.22   8
   4  -5  13 13460.4 7369.08  16
  -4   5 -13 22991.0 6492.81  11
  -5  -4  13 8909.48 6400.04   2
   4  -5  13 16040.0 4993.12  14
   4   5 -13 20699.9 7551.75  18
   4   5 -13 19010.2 6671.84  11
   5   4 -13 7646.19 5725.47   1
   4   5 -14 5869.84 4030.06  18
   5  -4  14 11284.1 5336.66  16
  -5  -4  14 9365.67 4354.10  16
  -5  -4  14 5057.57 4060.52   2
   4   5 -14 15969.8 8729.90  11
   5  -4  14 11564.7 4553.14   8
  -4  -5  14 3512.91 4732.24  16
   4  -5  14 7579.85 3572.60  14
  -4  -5  14 5357.58 3382.28   2
   5   4 -14 3515.39 3771.07   1
   4  -5  14 2481.43 2703.40  16
  -4  -5  15-774.710 1223.76   2
   4  -5  15 3761.78 2689.84   8
  -4  -5  15 5308.24 4717.53  16
   5   4 -15-3121.18 3151.11   1
   4  -5  15 3855.18 3830.17  16
   5  -4  15 4116.45 3898.22   8
   4   5 -15 3037.37 2879.28  11
   5  -4  15 2710.65 1844.25  16
  -5  -4  15-40.7279 992.502  16
  -5  -4  15-61.5003 4311.51   2
  -4  -5  16 4673.46 4867.83   2
  -5  -4  16 5244.29 3445.25   2
  -5  -4  16 4111.52 2679.70  16
   5  -4  16 5427.99 2962.34  16
   4  -5  16 5034.67 2590.34   8
   4  -5  16 6096.13 4387.02  16
   5  -4  16 6892.04 3184.65   8
   5   4 -16 1934.54 2418.34   1
  -4  -5  16 7765.71 4224.10  16
   5  -4  17 5421.30 3704.96  16
   4  -5  17 13560.1 4812.84   8
  -5  -4  17 10868.9 6417.54  16
   5   4 -17 3541.60 6156.96   1
  -4  -5  17 2188.25 3695.79   2
   5  -4  17 8010.95 3078.03   8
  -4  -5  17 13723.0 6998.94  16
   4  -5  17 9324.54 5518.26  16
  -5  -4  17 1003.12 1689.46   2
   5  -4  17 3787.97 2008.04   2
  -4  -5  18 6526.68 3054.35  16
   4  -5  18 6704.28 5613.22  16
  -5  -4  18 2777.46 2516.51   2
   5  -4  18 9751.49 6553.51  16
   5  -4  18 8076.07 4266.38   8
  -4  -5  18 5326.13 615.063   2
   5   4 -18-5859.69 5921.64   1
   4  -5  18 8058.75 3329.87   8
  -5  -4  18-2434.65 4085.82  16
   4  -5  19 30998.6 9148.18  16
  -4  -5  19 16275.5 7148.39   2
   5   4 -19 9059.14 6942.05   1
  -5  -4  19 35016.9 10474.2  16
   5  -4  19 30303.2 9847.94  16
   5  -4  19 22669.2 6648.39   2
   5  -4  19 46152.3 8806.64   8
   4  -5  19 34633.8 7487.92   8
  -4  -5  19 15049.4 9186.49  16
  -5  -4  19 29222.3 11353.6   2
  -5  -4  19 18343.5 5544.09   5
  -4  -5  20 6161.04 6027.47  16
  -4  -5  20 4684.78 5367.89   2
   5  -4  20 2033.90 2581.06   2
   4  -5  20 5426.00 4959.95  16
   5   4 -20-1601.60 6632.37   1
   5  -4  20 8367.11 3656.50   8
   4  -5  20 11574.2 3800.25   8
  -5  -4  20 243.976 3528.01  16
  -5  -4  20 1840.22 3209.60   2
   5  -4  20 4982.70 2167.44  16
  -5  -4  20 2785.99 2439.47   5
  -5  -4  21 17553.7 9224.26  16
   5   4 -21 3816.76 7866.29   1
   5  -4  21 21440.3 6762.67   2
   5  -4  21 20103.6 6863.26   8
   5  -4  21 14871.7 8521.67  16
  -5  -4  21 13751.3 10169.4   2
   4  -5  21 14581.3 5451.69   2
   4  -5  21 17670.3 7977.21  16
   4  -5  21 26881.2 6401.35   8
  -4  -5  21 11638.0 8062.98  16
  -4  -5  21 9052.97 8187.82   2
  -4  -5  22 3794.07 3963.93  16
   5  -4  22 3872.64 1850.73   2
   4  -5  22-948.247 1966.57  16
   5  -4  22 3164.51 1443.37   8
   5   4 -22 289.252 4010.44   1
  -4  -5  22 378.833 920.513   2
  -5  -4  22 1738.48 7322.96   2
   4  -5  22 791.628 2018.74   2
   5  -4  22 1343.75 2440.95  16
  -5  -4  22 8697.68 5421.19  16
   4  -5  23-760.582 2779.77  16
  -4  -5  23-12077.5 6081.56  16
   5  -4  23 3984.55 3562.56   2
  -4  -5  23 2866.92 5112.42   2
   5  -4  23 6230.81 7105.55  16
  -5  -4  23 1099.58 4371.51   2
   5  -4  23 5490.96 5057.53   8
   4  -5  23-327.094 3142.12   2
  -5  -4  23 11914.8 6854.82  16
  -5  -4  24-272.782 973.458   2
  -4  -5  24-962.973 2295.62  16
   4  -5  24-2746.14 3734.37  16
   5  -4  24 5677.45 6034.08  16
   4  -5  24 5270.83 5745.18   2
  -5  -4  24 1906.19 4403.25  16
  -4  -5  24 1361.09 3703.97   2
   4  -5  25-1303.18 4314.77  16
   4  -5  25-579.152 687.649   2
   5  -4  25-410.571 848.112  16
  -5  -4  25 2545.27 8916.89   2
  -4  -5  25 444.377 3178.30   2
  -4  -5  25-2141.70 3297.90  16
  -4  -5  26-3660.20 4555.71  16
  -5  -4  26 14276.8 7630.12  16
   4  -5  26 31.0647 1747.54  16
  -5  -4  26 3669.61 10838.1   2
   5  -4  26 9459.15 5672.88  16
  -4  -5  26 2429.65 3935.68   2
   4  -5  27-2857.99 5218.20  16
  -4  -5  27-97.8684 872.040  16
  -5  -4  27 1064.58 4020.63   2
  -5  -4  27 11174.0 7135.89  16
   5  -4  27 6014.57 2799.61  16
  -4  -5  27 1891.17 3048.94   2
   5  -4  28 4432.18 2728.33  16
   4  -5  28-1703.37 2387.74  16
  -4  -5  28-5510.99 3787.91  16
  -5  -4  28 11170.6 9446.46   2
  -4  -5  28 4585.40 2468.55   2
  -4  -5  29-558.856 3160.24  16
   5  -4  29-914.555 5029.38  16
  -5  -4  29-4665.90 4150.45   2
  -4  -5  29 1620.49 3968.77   2
  -5  -4  29 5219.48 4492.62  16
   4  -5  29 1.96614 3928.89  16
   5  -4  30 1184.60 6554.30  16
  -4  -5  30 1976.60 4423.27   2
  -5  -4  30-4240.83 7170.25   2
   4  -5  30-1273.25 5476.99  16
  -5  -4  30 17937.3 9862.27  16
  -4  -5  30-655.658 1768.11  16
   5  -4  31 2001.26 5221.33  16
   4  -5  31 1980.27 2917.43  16
  -4  -5  31 915.891 911.288   2
   4  -5  32 1476.18 2435.32  16
  -4  -5  32 6592.04 5310.46   2
   4  -5  33 900.090 2083.51  16
   4  -5  34-795.913 3606.69  16
   5   5  -5-552.087 1603.79  18
   5  -5   5-2470.90 4698.18   6
   5  -5   6 8753.59 4184.32  14
   5   5  -6 13749.6 7275.89  18
   5  -5   6 10315.4 5089.68   6
  -5   5  -7-1520.17 2987.53   4
   5  -5   7-1224.68 1587.19  14
   5  -5   7-3465.99 3570.27   6
   5   5  -7 854.959 2066.09  18
  -5   5  -8 69270.7 9081.98   5
   5  -5   8 67765.1 15787.4   6
  -5   5  -8 99538.7 15209.8   4
   5   5  -8 91677.6 20944.6  18
  -5  -5   8 14960.1 3995.75   6
   5  -5   8 39700.2 6532.16   1
   5  -5   8 61014.6 10468.4  14
  -5   5  -9 163.187 487.027   5
   5  -5   9-1446.30 2008.88   6
   5   5  -9-247.377 2212.29  18
   5  -5   9-81.4779 1370.54   1
  -5   5  -9-1364.01 2550.26  18
  -5   5  -9-1264.77 1769.17   4
   5  -5   9 1132.19 706.084  14
   5   5  -9-3442.86 3030.63   8
   5  -5  10-2196.38 3713.11   6
  -5   5 -10 3243.84 2244.99  18
   5  -5  10 1910.22 3012.15  14
   5   5 -10 2127.02 1448.21   8
  -5   5 -10 930.456 2514.89   4
  -5   5 -10-328.936 2871.46   5
   5  -5  10 3334.09 2284.55   1
   5   5 -10-1867.28 3487.52  18
  -5   5 -11-2476.09 1740.92   5
   5  -5  11 641.121 957.245   1
  -5   5 -11 2509.21 1542.41   4
  -5   5 -11-2198.36 2647.65  18
   5   5 -11-1851.34 4157.44  18
   5  -5  11-71.0271 987.469  14
   5  -5  12 11113.0 4688.47  14
   5   5 -12 5460.29 2099.12  11
   5   5 -12 12144.1 6212.14  18
  -5   5 -12 6150.39 3595.25   4
  -5   5 -12 12427.2 3822.17  11
  -5  -5  13-1044.19 1756.72   2
   5   5 -13 451.595 1204.25  11
  -5   5 -13 913.778 2304.13   4
   5   5 -13-3368.60 4685.19  18
  -5   5 -13 754.798 1832.87  11
   5  -5  13-1470.15 2535.50  14
  -5  -5  14 3504.10 4795.47   2
   5  -5  14 16668.4 5320.83   8
   5   5 -14 19136.6 9617.73  11
  -5  -5  14 8577.22 5885.72  16
   5  -5  14 13153.8 3849.17  14
   5  -5  14 11578.4 5418.28  16
  -5  -5  15 909.585 1820.78  16
  -5  -5  15-1336.12 882.824   2
   5  -5  15-1160.82 2383.90   8
  -5  -5  16-1943.65 2363.44   2
  -5  -5  16-4309.84 3385.92  16
   5  -5  16 4472.33 3960.86  16
   5  -5  16-906.018 1949.71   8
   5  -5  17-5224.04 2807.04  16
   5  -5  17-743.834 3011.30   8
  -5  -5  18 11636.2 6424.93   2
  -5  -5  18 9751.68 5667.44  16
   5  -5  18 12506.0 4857.86   8
   5  -5  18 6029.58 6306.21  16
   5  -5  19 3612.59 4847.80  16
  -5  -5  19-401.051 3024.10   2
  -5  -5  19-2387.30 3593.69  16
   5  -5  19-846.746 2270.23   8
   5  -5  20 23534.8 9110.98  16
  -5  -5  20 4545.25 6980.14   2
  -5  -5  20 15646.1 8892.20  16
   5  -5  20 22386.3 5847.07   8
  -5  -5  21 2074.95 3451.47   2
   5  -5  21-636.847 1604.79  16
   5  -5  21 2385.35 1357.82   8
  -5  -5  21-673.586 1686.78  16
  -5  -5  22 2541.76 954.450  16
  -5  -5  22 788.126 4150.64   2
   5  -5  22 2958.30 5237.80  16
   5  -5  22 1948.96 2506.27   8
   5  -5  23-4606.76 3996.98  16
  -5  -5  23-361.757 3548.05   2
  -5  -5  23-3111.79 3623.96  16
  -5  -5  24-2943.61 5301.20  16
  -5  -5  24 1890.48 5661.17   2
   5  -5  24-3275.87 4832.05  16
  -5  -5  25-3.81554 2854.39   2
   5  -5  25 415.383 1813.17  16
  -5  -5  25 596.247 1848.10  16
   5  -5  26 514.733 5735.21  16
  -5  -5  26-844.636 3262.77   2
  -5  -5  26 5498.66 1844.94  16
  -5  -5  27-840.887 2963.48   2
   5  -5  27-996.273 6567.62  16
  -5  -5  27 450.694 1652.35  16
   5  -5  28 424.785 3019.72  16
  -5  -5  28-1540.49 6342.63   2
  -5  -5  28 252.619 3072.13  16
  -5  -5  29 2152.85 2528.77  16
   5  -5  29-182.850 5413.99  16
  -5  -5  29-1536.20 6931.78   2
   5  -5  30-729.969 2392.81  16
  -5  -5  30 2014.60 7358.88   2
  -5  -5  30-9067.45 7184.06  16
   5  -5  31 197.349 2301.33  16
  -5  -5  31 2107.90 4519.60   2
  -5  -5  32 7943.40 6073.00  16
  -5  -5  32-1162.23 4055.84   2
   5  -5  32-411.721 2683.59  16
   5  -5  33 3729.48 7225.61  16
   5  -5  34 1420.22 5701.54  16
   6   0   0 23031.6 7759.36   8
  -6   0   0 12041.1 6591.21   5
   6   0   0 13213.0 5674.53  14
  -6   0   0 15176.1 6787.71   4
  -6   0   0 10278.0 4007.27   2
   6   0   0 17221.8 8115.39   1
   6   0  -1-732.823 2767.93  14
   6   0  -1 1796.21 1674.14   1
   6   0   1 729.142 1016.56  14
  -6   0   1 523.430 2229.49   2
  -6   0   1 634.220 2114.34   4
   6   0  -1 4703.96 3745.86   6
  -6   0  -1-935.966 997.425   4
   6   0   1 1920.04 2355.47   1
   6   0  -1 2690.22 2521.08   8
  -6   0  -1 1445.44 951.421   5
   6   0   1 529.637 2065.73   8
  -6   0   1-1730.23 2652.71   5
   6   0  -2 21429.6 5126.64   6
  -6   0  -2 5565.27 1876.33   4
  -6   0   2 17966.4 7613.28   5
   6   0  -2 10656.0 5158.97  14
   6   0   2 16854.0 3482.74  11
  -6   0   2 21207.5 6692.72   2
   6   0  -2 21265.7 9242.82   1
   6   0   2 13974.8 7568.48   1
   6   0   2 13150.0 5699.98   8
  -6   0   2 18921.8 7757.54   4
   6   0   2 12439.9 3895.89  18
   6   0   2 13655.2 3648.03  16
   6   0  -2 18087.1 5947.80   8
   6   0   3-909.740 1622.15  16
   6   0  -3 641.294 4334.28   1
   6   0  -3-1199.98 1314.23  14
   6   0   3 4362.97 4554.65   8
   6   0  -3 1602.69 1698.57   6
  -6   0   3 544.246 2672.03   4
   6   0   3-1392.36 2161.12  18
  -6   0   3-2758.86 3547.43   5
  -6   0   3 708.486 3510.50   2
  -6   0   4 1180.42 1013.87   4
   6   0  -4-968.535 2680.46   1
   6   0   4-942.531 1910.42  18
  -6   0   4-35.6770 1397.69   2
   6   0   4-881.653 2561.17  16
   6   0   4 43.4057 1396.24   8
  -6   0   4 674.906 2356.60   5
   6   0  -4-34.5365 2359.30  14
  -6   0   5 3452.47 4013.82   5
   6   0  -5 1062.62 2722.03  14
   6   0   5-1568.55 1155.47  16
   6   0   5-633.946 1813.06   8
   6   0   5 87.4212 748.233  18
   6   0  -5 111.044 5119.28   1
  -6   0   5-1049.53 2199.45   4
  -6   0   5 870.071 2943.51   2
   6   0   6 15022.0 4778.83  16
   6   0   6 25933.1 8999.23   8
   6   0  -6 28775.7 6807.57  14
  -6   0   6 31458.2 7169.51   4
  -6   0   6 20404.6 5455.58   2
   6   0  -6 33113.8 9050.64   1
  -6   0   6 24153.9 6343.40   5
  -6   0   7-390.937 532.316   5
   6   0   7 419.985 822.422  16
   6   0  -7 2422.95 2753.75   1
   6   0   7-110.377 1348.14   8
  -6   0   7 352.983 565.466   2
   6   0  -7-739.741 687.865  14
  -6   0   7-530.679 1981.91   4
  -6   0   8 14883.9 5258.25   2
   6   0   8 5102.58 2342.17  16
  -6   0   8 12332.3 4391.92   5
   6   0  -8 13156.2 5996.26   1
   6   0  -8 14007.9 4558.07  14
   0   6  -9-640.605 3667.52  18
   6   0  -9 144.441 1445.28  14
  -6   0   9-1118.17 1946.15   5
   6   0  -9 2195.38 2644.43   1
   0  -6   9-449.159 1478.56   6
  -6   0   9-602.478 1611.45   2
   6   0 -10 2815.10 2371.29  14
   6   0 -10 3797.42 3476.97   1
   0  -6  10 2266.26 2198.18   6
  -6   0  10 2697.02 2331.14   2
  -6   0  10-231.713 549.722   5
   0   6 -10 2638.80 3372.57  18
  -6   0  11 1183.66 1656.90   5
   6   0 -11-1058.49 234.688   1
  -6   0  11 19.5025 1147.69   2
   0   6 -11 2106.65 4780.82  18
   0  -6  11-1246.30 1795.37   6
   6   0 -11-853.344 1625.64  14
  -6   0  12 58897.0 9580.94   5
   6   0 -12 18076.2 6407.82   1
  -6   0  12 49998.4 10207.8   2
   6   0 -12 16006.2 4312.01  14
   0  -6  12 45693.7 11992.9   6
   0   6 -12 109395. 8549.04   4
   0   6 -12 96785.4 18657.2  18
   6   0 -13-798.412 1718.71  14
   6   0 -13-710.861 2266.41   1
   0   6 -13 1506.42 3803.78  18
   0  -6  13-134.520 1021.82  14
  -6   0  13-1365.40 2050.23   5
  -6   0  13-920.555 2881.79   2
   0  -6  14 20230.5 3286.59  14
  -6   0  14 11292.8 4595.37   2
   6   0 -14 2513.85 2832.78   1
   0   6 -14 20158.7 7991.01  18
   0   6 -15 392.229 1636.18  18
   0   6 -15-16.6040 2805.94  11
  -6   0  15 168.225 1418.59   2
   0  -6  16-1296.95 2626.28  16
   0   6 -16 7685.84 5560.37  11
   0   6 -17 164.110 2660.06  11
   0  -6  17 120.144 1821.63  16
   0  -6  18 10641.5 5514.40  16
   0  -6  19-1793.66 2449.56  16
   0  -6  20 7561.72 5835.36  16
   0  -6  21 1906.45 1345.19  16
   0  -6  21 24.4996 2778.69   2
   0  -6  22 2169.41 3289.76   2
   0  -6  22 7763.20 7157.95  16
   0  -6  23 1416.87 4125.74  16
   0  -6  23 20.4758 4027.35   2
   0  -6  24 119.452 1717.38  16
   0  -6  24-167.917 2422.49   2
   0  -6  25 48.3944 4045.54   2
   0  -6  25 1225.86 1708.46  16
   0  -6  26-186.351 4966.84   2
   0  -6  26 1508.37 4263.52  16
   0  -6  27 2333.54 5111.38  16
   0  -6  27 36.1224 2105.12   2
   0  -6  28 7196.61 7839.89  16
   0  -6  28 375.095 823.684   2
   0  -6  29 496.417 874.555  16
   0  -6  29 1750.01 2529.68   2
   0  -6  30 169.263 3428.73  16
   0  -6  30 2157.27 1294.14   2
   0  -6  31 900.437 3825.50   2
   0  -6  31 471.414 2100.45  16
   0  -6  32 1188.10 4145.92  16
   0  -6  32-757.817 2848.61   2
   0  -6  33 396.508 5540.18  16
   0  -6  33-1471.80 1474.43   2
   0  -6  34-1187.21 5518.57   2
   0  -6  34 125.916 3253.21  16
   0  -6  35-261.053 570.945   2
   0  -6  35 1779.73 2237.48  16
   6  -1   0 194768. 18369.8   6
   6  -1   0 203253. 23743.8   1
  -6   1   0 107955. 9612.57   2
   6   1   0 172600. 22837.4   8
   6   1   0 193511. 21921.4  18
   6  -1   0 150876. 17360.5  14
  -6   1   0 137301. 17217.3   5
  -6   1   0 183937. 22179.6   4
   6  -1   0 181535. 20429.8   8
  -6   1   1 33327.6 8720.13   4
   6   1  -1 26957.8 10888.1   1
  -6   1   1 24736.0 7010.29   5
  -6  -1   1 13995.7 5937.70   4
   6  -1  -1 29502.9 7509.77  14
   6  -1   1 31501.0 8428.32  14
   6  -1   1 44245.0 10726.4   8
  -6   1  -1 35648.7 10322.8   5
   6  -1  -1 36502.2 9464.38   1
   6   1  -1 38844.3 9407.52   8
  -6   1  -1 27396.4 5236.93   2
  -6   1   1 16584.1 3931.19   2
  -6   1  -1 35404.3 11154.3   4
   6   1   1 30831.0 7843.07  18
   6  -1   1 47064.8 12219.6   1
   6  -1  -1 27992.2 6576.53   6
   6  -1   1 43661.3 9343.88   6
   6   1  -1 28708.7 7576.58  18
   6   1   1 28222.7 8974.82   8
  -6  -1   2 17494.5 7616.73   5
   6   1   2 18331.4 5977.73  18
  -6  -1   2 17607.0 5175.03   2
   6  -1  -2 24545.7 6946.60  14
   6  -1   2 50936.6 13031.8   1
   6  -1   2 29181.6 8100.62  14
   6  -1  -2 20945.1 5226.71   6
   6   1  -2 33097.7 8398.86   8
   6  -1  -2 26801.6 8305.86   1
   6   1   2 18891.3 7477.98   8
  -6   1  -2 23678.1 4430.37   2
   6   1  -2 29195.1 10164.0   1
  -6   1  -2 33374.6 11327.7   4
   6  -1   2 38762.7 11200.9   8
  -6   1   2 25000.4 6494.09   5
  -6  -1   2 14132.1 5276.32   4
  -6   1   2 14043.9 3685.25   2
  -6   1   2 26167.7 7554.59   4
  -6   1  -2 24651.1 8819.67   5
   6   1  -2 33271.6 7477.12  11
   6   1  -2 28932.1 7712.35  18
  -6   1  -3 1438.46 2678.66   5
  -6  -1   3 1532.25 3285.00   5
   6   1  -3 1694.35 2554.68  11
   6  -1   3 353.512 885.011  14
   6  -1  -3-1184.72 2138.05  14
  -6  -1   3 4843.18 4399.90   2
  -6   1   3 230.517 696.674   5
   6   1   3 2645.25 2333.89   8
   6  -1  -3-454.894 1121.76   1
  -6  -1   3 2756.77 4391.35   4
  -6   1  -3 1788.54 2737.89   4
   6  -1   3 738.236 1159.85   8
   6   1   3 834.854 593.976  18
   6   1  -3 2434.98 4895.25   1
  -6   1   3-754.997 463.541   2
   6   1  -3 3409.43 3280.19  18
  -6   1   3 309.055 1600.96   4
   6  -1   3-1554.72 3392.58   1
   6   1  -3 2307.75 3675.08   8
  -6  -1   4 7346.38 4663.83   2
   6   1  -4 7419.45 3253.70  14
   6   1  -4 17362.3 9244.04   1
   6  -1  -4 9330.40 3899.57  14
  -6   1  -4 5676.79 3944.23   4
   6  -1   4 14209.9 6221.63   1
  -6  -1   4 10628.1 5235.10   4
  -6   1   4 5081.83 2437.18   2
   6  -1   4 6492.50 3927.39   8
  -6   1  -4 6116.48 3697.38   5
   6   1  -4 12446.7 4107.65   8
  -6  -1   4 7332.36 4577.79   5
   6  -1  -4 7925.53 4122.05   1
  -6   1   4 7922.12 3377.56   5
   6  -1   4 10719.9 4061.66  16
   6  -1   4 14833.0 6140.76  14
  -6  -1   5 37814.3 10764.0   2
   6   1  -5 37072.2 4775.84   6
   6  -1   5 38316.7 9975.43   8
   6   1  -5 22784.6 6594.58  14
   6   1  -5 50716.6 14808.8   1
  -6  -1   5 27994.6 10492.8   5
   6  -1   5 32772.0 7383.62  16
  -6   1  -5 11962.3 5760.66   4
  -6  -1   5 35212.5 6398.95  16
  -6  -1   5 28937.4 9985.16   4
   6  -1  -5 22159.9 5611.80  14
  -6   1   5 22071.9 5258.57   5
   6  -1  -5 16507.0 5800.49   1
  -6   1   5 9853.33 3148.43   2
   6   1  -6 8619.21 4445.76  14
  -6   1   6 4229.03 2023.22   2
   6  -1  -6 6350.87 3104.44   1
  -6  -1   6 18510.5 7506.47   5
   6   1  -6 11718.0 2434.60   6
  -6   1   6 8754.66 3426.97   5
   6  -1   6 17709.9 6128.90  16
   6  -1   6 12802.8 5885.68   8
   6   1  -6 28513.4 10477.8   1
  -6  -1   6 17677.4 6846.42   4
  -6  -1   6 12247.3 3797.70  16
   6  -1  -6 12039.3 3730.69  14
  -6  -1   6 21146.2 8708.78   2
   6  -1  -7 16056.0 5588.89   1
   6   1  -7 50514.5 13596.6   1
   6  -1  -7 18214.0 5026.24  14
   6  -1   7 48960.1 12643.8   8
   6  -1   7 48442.4 11588.9  16
  -6  -1   7 41193.2 10616.1   2
  -6  -1   7 49461.5 10240.7   4
  -6   1   7 13777.3 3864.76   2
  -6  -1   7 41981.1 9900.63   5
  -6  -1   7 22660.5 4915.39  16
   6   1  -7 35142.8 7670.06  14
   6  -1  -8 7937.84 2552.12  14
  -6  -1   8 34949.2 8446.91   4
   6   1  -8 31801.4 9490.13   1
  -6  -1   8 12117.1 4075.72  16
   6  -1  -8 7568.37 3604.49   1
  -6  -1   8 29231.9 8224.46   5
   6   1  -8 23505.0 6393.23  14
   6  -1   8 29531.8 9205.66   8
  -6   1   8 8504.69 3368.92   2
  -6  -1   8 29487.2 9153.74   2
   6  -1   8 28120.1 8066.13  16
   1  -6   8 373.808 2896.04   6
   6  -1   9 18596.7 2831.92   2
   6  -1   9 16357.4 4760.08  16
   1   6  -9 15050.4 7205.43  18
   6   1  -9 22936.6 8817.99   1
  -1  -6   9 3872.58 1971.29   6
  -6   1   9 4208.73 1728.68   2
   6   1  -9 15030.7 4674.96  14
   6  -1   9 23134.0 8252.78   8
  -6  -1   9 6297.55 2334.18  16
  -6  -1   9 26565.7 6877.94   4
  -6  -1   9 19084.1 7018.99   2
   1  -6   9 7205.99 4431.80   6
   6  -1  -9 3112.08 2914.09   1
  -6  -1   9 25152.2 7304.31   5
   1   6 -10 39596.9 12015.0  18
   6   1 -10 29309.5 7031.79  14
  -6  -1  10 56190.9 9596.96   4
   6  -1  10 30916.1 8569.73  16
   6   1 -10 42302.4 11972.5   1
  -1  -6  10 21764.3 6803.56   6
  -1   6 -10 28830.2 8701.21  18
   6  -1  10 38147.2 11205.5   8
   6  -1  10 34725.2 4335.78   2
  -6  -1  10 53079.9 10449.2   5
  -6  -1  10 37376.5 9542.31   2
   1  -6  10 28035.4 8985.09   6
  -6  -1  11 12256.6 4252.11   4
   6  -1  11 8473.82 1909.96   2
   6   1 -11 5265.40 2969.68  14
   6  -1  11 6990.98 4866.54  16
  -6  -1  11 9918.99 4381.19   5
  -1   6 -11 11325.5 6525.58  18
   6   1 -11 5043.87 1415.70   1
   6  -1  11 8854.35 4212.85   8
  -6  -1  11 7708.88 4943.33   2
   1   6 -11 17671.2 7650.37  18
  -1  -6  11 7892.83 4433.02   6
   6   1 -12 6927.21 3020.30  14
  -1  -6  12 19261.7 7424.93   6
  -6  -1  12 21804.4 6232.78   5
  -1   6 -12 41804.7 6579.36   4
   6  -1  12 16713.3 6615.57  16
   1  -6  12 13521.7 3310.18  14
   6  -1  12 19997.3 3612.83   2
   6  -1  12 13444.1 6605.65   8
  -1   6 -12 27202.6 9596.22  18
   6   1 -12 11993.5 5368.23   1
  -6  -1  12 16366.9 6161.16   2
   1   6 -12 32586.1 12294.4  18
   1  -6  12 18684.3 7825.17   6
   1   6 -13 60860.9 15917.6  18
   1  -6  13 34926.4 5159.17  14
  -1   6 -13 32566.2 5377.82   4
   6   1 -13 19960.8 7810.71   1
   6  -1  13 26371.6 9360.35   8
   6  -1  13 33560.1 9569.56  16
   6   1 -13 11424.0 4157.78  14
  -6  -1  13 29315.2 8538.94   2
  -6  -1  13 39434.6 8045.97   5
  -1   6 -13 66002.8 14578.3  18
   6  -1  13 28358.7 4842.94   2
   6   1 -14 4838.86 2666.56  14
   6   1 -14 963.820 2753.57   1
   1   6 -14 17956.6 6838.39  18
   6  -1  14 12899.3 7080.54  16
   1  -6  14 20530.9 4221.91  14
   6  -1  14 10571.0 3031.68   2
  -6  -1  14 7895.60 4205.05   2
  -6  -1  14 10623.6 4248.92   5
   6  -1  14 7040.82 4306.51   8
  -1   6 -14 19450.2 6667.17  18
   6   1 -15 2665.83 2602.53  14
   6  -1  15 8861.38 2970.60   2
  -6  -1  15 2900.41 2380.92   2
   1   6 -15 16648.2 6929.78  11
  -1   6 -15 11730.6 7101.53  11
   1  -6  15 6221.08 2018.49  14
   6  -1  15 5349.71 3103.37   8
  -1   6 -15 12380.6 6139.27  18
   1   6 -15 12829.8 6695.73  18
   6  -1  15 5719.49 4929.38  16
   6   1 -15 1368.24 1576.30   1
  -6  -1  15 9173.91 3729.40   5
   1   6 -16 18658.2 9607.95  11
   1   6 -16 18996.9 7511.87  18
   6  -1  16 5287.30 3828.92  16
   1  -6  16 13729.7 7018.45  16
  -1   6 -16 29295.9 9110.34  11
   6   1 -16 3625.86 1201.15  14
  -1  -6  16 11644.1 5441.89  16
   6  -1  16 13884.6 3856.26   2
   6   1 -16 8309.03 5178.07   1
  -6  -1  16 19431.3 5519.87   5
  -6  -1  16 13854.5 6267.07   2
   6  -1  17 2221.47 2367.78  16
   6  -1  17 1135.44 1539.34   2
  -6  -1  17-5732.35 4020.76   2
   6   1 -17-1032.31 1463.07  14
  -1  -6  17-1438.42 2582.42  16
   1  -6  17 3933.01 4187.03  16
   6   1 -17-3968.46 3877.04   1
   1   6 -17 1798.17 2675.83  11
  -6  -1  17 216.265 1029.02   5
   6   1 -18 406.811 765.358   1
   6  -1  18 8616.43 6224.05  16
  -6  -1  18 16674.6 5210.97   5
  -1  -6  18 19706.3 7676.82  16
  -6  -1  18 12680.0 6760.67   2
   1  -6  18 10249.8 5531.23  16
   6  -1  18 16477.3 4713.64   2
   6  -1  19 3699.69 5981.82  16
  -6  -1  19 2468.45 3337.95   2
  -1  -6  19 13404.6 6421.37  16
   6   1 -19 6069.53 4530.33   1
   6  -1  19 10253.7 3320.29   2
   1  -6  19 13482.2 6256.23  16
  -1  -6  20 4488.06 2313.94   2
   1  -6  20 4346.70 5201.72  16
   6  -1  20 8786.24 8206.87  16
  -1  -6  20 4012.80 4062.69  16
  -6  -1  20 1838.40 5206.36   2
   6  -1  20 12324.0 4368.12   2
   6  -1  21 1509.41 4313.58  16
   1  -6  21 11674.3 6730.04  16
   6  -1  21 10050.9 4327.99   2
  -1  -6  21 7468.95 4882.41  16
  -1  -6  21 9815.58 5196.17   2
   1  -6  22 243.124 3205.48  16
   6  -1  22 1001.47 5581.86  16
  -1  -6  22 2211.75 5109.49   2
  -1  -6  22 2836.22 5410.78  16
   1  -6  23-1339.05 2474.77  16
  -1  -6  23 4739.08 6261.29   2
   1  -6  23 2156.85 6756.62   2
  -1  -6  23 4172.21 5551.20  16
   1  -6  24 48.9072 2045.97  16
  -1  -6  24 4049.10 5752.77  16
   1  -6  24-198.974 1294.23   2
  -1  -6  24 1512.84 344.886   2
  -1  -6  25 1475.48 2720.42   2
   1  -6  25 2274.68 3726.67  16
  -1  -6  25 3009.08 4180.31  16
   1  -6  25-3087.97 3434.31   2
  -1  -6  26-889.831 2740.56   2
   1  -6  26 2160.55 5708.15  16
  -1  -6  26 2032.18 4719.82  16
   1  -6  26 1422.69 2757.10   2
  -1  -6  27 513.742 4410.55   2
   1  -6  27 1575.43 4921.16   2
   1  -6  27-314.219 4103.00  16
  -1  -6  27 2853.06 5872.62  16
  -1  -6  28 958.699 2106.94   2
  -1  -6  28 639.273 853.755  16
   1  -6  28 2235.91 4418.31  16
   1  -6  28-644.732 3368.11   2
   1  -6  29 2130.05 5914.56   2
  -1  -6  29 1264.91 2914.09  16
   1  -6  29 801.756 4851.43  16
  -1  -6  29 2961.44 6857.77   2
   1  -6  30-1918.64 5962.51   2
   1  -6  30 1523.10 4565.91  16
  -1  -6  30-354.795 5331.50   2
  -1  -6  30 3994.41 8727.82  16
  -1  -6  31-274.753 5646.47   2
   1  -6  31 290.338 4287.40   2
   1  -6  31 2918.18 6186.55  16
  -1  -6  31-565.498 2587.46  16
  -1  -6  32 2439.70 6442.34  16
   1  -6  32 517.349 2360.62  16
  -1  -6  32-1013.20 3310.68   2
   1  -6  32-1126.69 779.556   2
   1  -6  33-368.191 2341.40  16
  -1  -6  33-1771.94 4906.33   2
  -1  -6  33 326.073 4288.75  16
   1  -6  33 2787.60 6366.03   2
  -1  -6  34 495.772 2375.47   2
   1  -6  34-1232.41 1418.82  16
  -1  -6  34-3226.36 6372.43  16
   1  -6  35-2823.95 2764.05  16
  -1  -6  35-17.1308 3588.83   2
  -1  -6  35 2610.02 2787.30  16
   1  -6  36 7068.91 8328.96  16
  -6   2   0 45657.6 9709.76   4
  -6   2   0 34854.0 7237.86   5
   6  -2   0 40667.0 8614.53  14
   6  -2   0 33430.4 7676.53   6
   6   2   0 30010.3 8098.81  18
   6  -2   0 37398.7 8668.93   1
  -6   2  -1 222219. 22869.3   4
   6  -2   1 193931. 19051.8  14
   6   2  -1 132735. 18114.0   8
   6   2  -1 177502. 21495.3  18
   6  -2   1 209268. 19867.5   6
   6  -2   1 213453. 20765.6   1
   6  -2  -1 119328. 15065.8   1
   6   2   1 81655.5 12856.9  18
  -6   2   1 207704. 19924.0   4
   6  -2  -1 140640. 15525.6  14
  -6   2   1 141373. 14098.1   5
  -6   2  -1 179716. 16840.8   5
  -6   2   2 9906.73 3467.51   5
   6  -2  -2 6545.04 2977.85   1
  -6   2  -2 14653.0 6151.82   4
   6  -2   2 17051.4 6210.49  14
   6  -2  -2 7361.08 3137.82  14
   6   2  -2 13361.1 6530.67  18
   6   2  -2 10294.5 4288.82   8
   6  -2   2 13993.5 5633.84   1
  -6   2  -2 16439.3 5584.26   5
   6  -2   2 15680.5 5903.35   8
   6  -2   2 15828.7 5747.16   6
   6  -2  -3 18560.8 5671.48  14
   6   2  -3 51190.5 11264.8   8
  -6   2  -3 34940.9 8292.79   5
   6  -2  -3 17394.4 5617.31   1
  -6   2  -3 54853.6 12744.6   4
   6  -2   3 58600.0 13310.3   8
   6  -2   3 72667.1 13819.3   1
   6   2  -3 52918.5 12908.9  18
   6  -2   3 46888.2 10019.6  14
   6  -2   3 60048.0 12648.8   6
   6  -2   4 82095.4 16234.0   6
  -6   2  -4 57799.4 14915.0   4
   6  -2  -4 19383.5 5462.49  14
   6   2  -4 41568.7 11498.9   1
   6   2  -4 58752.7 10227.6   8
   6   2  -4 51503.4 11784.3  18
   6  -2   4 73538.7 15435.1   8
  -6  -2   4 26456.6 7640.25   2
   6  -2   4 52261.0 11021.6  14
   6  -2  -4 13739.0 4961.74   1
   6  -2   4 91181.5 16713.6   1
  -6   2  -4 58329.1 13490.0   5
   6  -2   5 60377.8 13036.9   8
  -6   2  -5 31283.0 9119.38   5
   6   2  -5 39619.3 10578.7  11
  -6  -2   5 17676.3 5692.26   4
   6   2  -5 36691.2 10285.2   1
   6   2  -5 41167.0 9498.55  18
   6   2  -5 46049.6 8545.78   8
  -6  -2   5 12749.4 5098.60   5
   6  -2   5 60695.4 13133.0   1
  -6   2  -5 39683.5 12077.8   4
  -6  -2   5 25939.7 9384.45   2
   6  -2   5 46742.4 10790.6  14
  -6  -2   6 39612.5 9919.79   5
   6  -2   6 98610.9 15643.1  14
  -6  -2   6 63284.2 13463.6   2
  -6  -2   6 38358.0 9265.01   4
   6   2  -6 77719.0 15822.1   1
  -6   2  -6 47492.7 11630.3   4
   6   2  -6 70575.5 13590.3  18
   6  -2   6 101002. 16112.5   8
   6   2  -6 95185.6 11154.1   8
  -6  -2   6 61747.3 8323.72  16
   6  -2   6 68588.7 11939.7  16
   6  -2   6 80461.8 13992.8   1
  -6   2  -6 37850.1 8978.84   5
   6   2  -6 95269.0 16588.5  11
   6  -2   7 83862.6 13664.6  16
  -6  -2   7 62757.0 12951.4   5
   6  -2   7 88455.6 14550.9  14
   6  -2   7 99390.1 15316.3   8
  -6   2  -7 37526.1 10438.6   4
  -6  -2   7 46823.5 10329.5   4
  -6  -2   7 78754.5 15625.4   2
  -6  -2   7 85936.4 10553.8  16
   6   2  -7 89028.1 18377.7   1
  -6  -2   8 50643.1 12455.2   2
   2   6  -8 15778.0 6064.53  18
   6  -2   8 57316.9 11476.2   8
  -6  -2   8 38511.3 9010.10   4
  -6  -2   8 35960.5 9445.88   5
   6   2  -8 58955.5 15246.3   1
   6  -2   8 53215.1 10942.2  16
  -6  -2   8 54453.2 9240.14  16
   2  -6   8 16090.8 6291.75   6
  -6  -2   9 54241.8 12360.5   5
   6  -2   9 87603.0 14075.5   8
  -6  -2   9 86723.3 17804.0   2
   6   2  -9 88061.7 18506.0   1
  -6  -2   9 68789.3 12293.6   4
   2   6  -9 42363.0 12375.1  18
   6  -2   9 71673.3 12504.9  16
  -6  -2   9 81510.3 12850.5  16
   2  -6   9 32183.3 8782.15   6
  -2   6 -10 4503.13 3781.09  18
  -6  -2  10 14247.3 5884.68   4
  -6  -2  10 18992.2 10011.9   5
  -6  -2  10 23567.5 8431.58  16
  -6  -2  10 29668.5 14558.3   2
   6  -2  10 41876.9 10726.5   8
   6  -2  10 26207.4 10530.1  16
  -2  -6  10 3213.07 3383.86   6
   2  -6  10 3289.77 4058.63   6
   2   6 -10 11118.0 6349.06  18
   6   2 -10 10008.1 7438.45   1
   6   2 -11 35463.8 7410.76  14
  -6  -2  11 145963. 16992.9   4
   2  -6  11 106502. 17236.1   6
  -2   6 -11 196890. 15900.5   4
   6   2 -11 135077. 24499.7   1
   6  -2  11 129688. 18667.8   8
   6  -2  11 126709. 19575.9  16
   6  -2  11 108343. 9756.01   2
  -6  -2  11 121596. 18233.0   5
  -2   6 -11 107183. 16904.3  18
   2   6 -11 151216. 25914.5  18
  -6  -2  11 150446. 23766.4   2
   2  -6  11 55118.7 8081.89  14
  -6  -2  11 130660. 17832.7  16
  -2  -6  11 48858.7 11581.4   6
   6  -2  12 28216.1 9778.65  16
   6   2 -12 23784.5 10830.3   1
  -6  -2  12 20595.4 6706.77   5
   6  -2  12 21822.1 4797.72   2
   2  -6  12 24144.4 10037.0   6
   6   2 -12 4480.33 2457.05  14
   6  -2  12 26998.2 8709.94   8
   2   6 -12 31750.8 12424.1  18
  -2   6 -12 29115.6 9081.91  18
  -6  -2  12 25945.9 9715.83   2
   2  -6  12 16269.0 4018.84  14
  -6  -2  12 19990.4 6477.10  16
  -2   6 -12 40528.1 7565.92   4
  -6  -2  12 26092.0 7076.70   4
   6  -2  13 45982.2 12103.5   8
   2   6 -13 61436.4 16152.6  18
   2  -6  13 49740.4 7010.35  14
   6  -2  13 49636.3 13686.3  16
  -6  -2  13 39988.8 8845.14   5
   6  -2  13 57362.4 8622.62   2
  -2   6 -13 35474.9 7578.61   4
  -6  -2  13 47314.8 8618.11   4
  -6  -2  13 26929.8 8013.65  16
   6   2 -13 36051.3 11683.5   1
  -6  -2  13 37697.2 11488.7   2
  -2   6 -13 62215.5 14064.2  18
   6   2 -13 6557.98 3105.77  14
   6  -2  14 27345.5 10477.7  16
  -2   6 -14 25804.9 7464.28  18
  -6  -2  14 26538.0 6304.28   4
  -6  -2  14 19862.7 6646.14  16
   6  -2  14 23421.1 5677.83   2
   6  -2  14 17014.9 5386.49   8
   6   2 -14 3009.63 1938.12  14
  -6  -2  14 22837.9 8210.24   2
   6   2 -14 21492.6 9267.36   1
   2   6 -14 26646.4 9345.13  18
  -6  -2  14 16502.3 5355.25   5
   2  -6  14 24148.5 5419.75  14
  -6  -2  15 41618.4 9141.55   5
   6  -2  15 57529.8 16355.6  16
  -6  -2  15 22870.3 9084.86  16
   2  -6  15 35553.8 5955.35  14
  -6  -2  15 56880.1 14719.1   2
   6  -2  15 46636.3 13430.9   8
   2   6 -15 59004.3 13706.6  11
   2   6 -15 56427.0 12794.3  18
  -6  -2  15 52455.7 8192.47   4
   6  -2  15 72295.9 11320.7   2
  -2   6 -15 49721.4 10414.1  18
  -2   6 -15 54446.0 12612.6  11
   6   2 -15 19725.5 9378.07   1
   6  -2  16 1335.24 5047.84  16
  -2  -6  16 3475.36 4126.03  16
  -6  -2  16 1914.63 1264.03   4
  -6  -2  16 3798.36 1345.82   5
   2   6 -16 4781.76 4099.53  11
  -6  -2  16 6252.14 4180.35  16
  -2   6 -16 6898.66 5874.49  11
  -6  -2  16-10905.8 6145.72   2
   6   2 -16 3583.70 4421.87   1
   6   2 -16 1319.70 1490.22  14
   6  -2  16 11979.0 7327.94   8
   2  -6  16 164.506 4328.05  16
   2   6 -16 21792.1 8953.93  18
   6  -2  16 1058.23 1357.76   2
   6   2 -17 9689.44 7894.57   1
   6  -2  17 39059.0 13096.7  16
  -6  -2  17 27865.7 9891.33  16
  -6  -2  17 44644.4 9940.70   5
   2  -6  17 35138.6 9913.86  16
   2   6 -17 60946.5 13853.7  11
  -6  -2  17 52331.6 7845.94   4
  -6  -2  17 42564.9 12671.1   2
  -2  -6  17 32799.3 8647.10  16
   6  -2  17 49104.4 9592.14   2
   6  -2  17 47241.4 12820.9   8
  -6  -2  18 8195.34 7342.14  16
  -6  -2  18 10182.4 3134.19   4
   2  -6  18 8502.69 3255.22  16
  -6  -2  18 13160.4 8529.61   2
   6  -2  18 8241.77 4116.51   8
   6  -2  18 9774.65 3493.92   2
  -2  -6  18 85.4937 1035.70  16
   6   2 -18 2361.72 5516.53   1
  -6  -2  18 13944.3 5711.59   5
   6  -2  18 3513.03 2628.76  16
  -6  -2  19 25644.2 9310.27  16
   2  -6  19 18534.7 8178.31  16
   6  -2  19 33342.9 10877.7   8
   6   2 -19 5601.48 6702.96   1
  -6  -2  19 44594.5 13586.3   2
   6  -2  19 17222.4 13618.8  16
  -2  -6  19 17362.8 7658.99   2
  -2  -6  19 32034.7 9906.29  16
   6  -2  19 50129.8 10321.5   2
  -6  -2  19 41953.0 9215.73   5
   2  -6  20 7807.47 5866.91  16
  -6  -2  20 18654.5 6814.33   5
  -6  -2  20 10801.9 7035.01  16
   6  -2  20 18624.1 7922.54   8
  -2  -6  20 3070.16 4190.60  16
  -6  -2  20 22938.3 10031.5   2
   6  -2  20 18990.1 6290.94   2
  -2  -6  20 5391.16 1542.58   2
   6  -2  20 6543.63 7759.52  16
   6   2 -20 1296.64 4350.90   1
  -6  -2  21 20251.7 8673.58  16
   6  -2  21 6677.91 7653.59  16
  -6  -2  21 34647.0 8525.09   5
   6  -2  21 29089.8 9380.71   8
   6  -2  21 31119.4 7781.38   2
  -6  -2  21 25054.2 12445.6   2
   2  -6  21 14218.4 7834.17  16
  -2  -6  21 12849.8 5424.44   2
  -2  -6  21 15485.2 8662.91  16
   6  -2  22 2837.29 4124.80  16
  -6  -2  22 13557.6 7340.69  16
  -6  -2  22 2449.33 5890.39   2
  -6  -2  22 8917.97 4611.28   5
   6  -2  22 8193.76 7000.24   8
  -2  -6  22-1391.87 2275.18  16
  -2  -6  22 8360.00 3748.96   2
   6   2 -22-2031.60 5460.11   1
   2  -6  22 377.808 1586.74  16
   6   2 -23 3902.50 5530.55   1
  -6  -2  23 12278.2 7932.77  16
  -2  -6  23 5643.15 5521.24   2
  -6  -2  23 6597.15 9233.27   2
   6  -2  23 5761.11 3764.61   8
   2  -6  23 2451.98 6487.32  16
   6  -2  23-2089.35 5176.14  16
  -2  -6  23 3095.55 4173.39  16
  -2  -6  24 655.535 1647.35   2
  -6  -2  24 4250.49 5884.66  16
   2  -6  24 2078.41 2893.17  16
   6  -2  24 1228.14 3897.15   8
  -6  -2  24-1008.07 4842.35   2
   6  -2  24-2795.51 4549.56  16
  -2  -6  24 872.749 1931.50  16
  -2  -6  25 1917.29 6430.71   2
   6  -2  25-1850.97 5757.25  16
  -2  -6  25 4881.40 5730.80  16
   6  -2  25 17906.1 6032.80   8
   2  -6  25 1556.02 6067.43  16
  -2  -6  26 471.094 2891.19   2
   6  -2  26 4438.87 9746.21  16
   6  -2  26 8562.65 5079.73   8
   2  -6  26-2246.53 3198.32   2
   2  -6  26 1638.73 4428.96  16
  -2  -6  26 7484.55 6250.61  16
  -2  -6  27 3727.91 4621.64   2
   2  -6  27-187.678 2455.57   2
  -2  -6  27 5282.07 6287.60  16
   2  -6  27-401.902 3483.59  16
  -2  -6  28 2316.20 3716.95   2
  -2  -6  28 3301.14 5300.30  16
   2  -6  28 92.3973 2150.12  16
   2  -6  28-933.728 5477.46   2
   2  -6  29 2803.47 8234.60  16
  -2  -6  29 3035.19 5557.26   2
  -2  -6  29 1026.38 4898.17  16
   2  -6  29 3309.70 6210.63   2
   2  -6  30 726.853 5363.53  16
  -2  -6  30-880.281 2385.45  16
  -2  -6  30 623.529 4403.43   2
   2  -6  30-571.282 3780.56   2
  -2  -6  31-3110.46 3410.04  16
  -2  -6  31-161.346 776.287   2
   2  -6  31 1571.51 3386.89  16
  -2  -6  32 1121.50 1840.61   2
   2  -6  32 2565.31 3427.18  16
  -2  -6  32-3272.01 4088.80  16
  -2  -6  33-595.590 3538.21   2
   2  -6  33 2387.36 6988.04  16
  -2  -6  33 8261.04 9611.22  16
   2  -6  34 957.849 4049.18  16
  -2  -6  34 1566.35 3173.92   2
  -2  -6  34-6393.52 4598.97  16
  -2  -6  35 2250.48 3708.63   2
   2  -6  35 2932.53 6129.88  16
  -2  -6  35 7920.60 7493.66  16
   2  -6  36 2848.35 4143.81  16
   6  -3   0 27258.6 7071.09  14
   6  -3   0 15202.6 4711.24   1
   6  -3   1 10135.7 4149.82  14
  -6   3  -1 8128.73 2575.60   5
   6  -3  -1 5638.74 3214.16  14
   6   3  -1 2671.59 2936.84  18
   6  -3   1 5099.73 2600.67   1
   6  -3   2 84884.5 12082.4   1
   6  -3   2 99862.3 13575.1  14
   6  -3   2 99342.2 14970.6   6
   6   3  -2 88092.4 15679.3  18
  -6   3  -2 103009. 12023.9   5
  -6   3  -2 146518. 18050.8   4
   6  -3   3 2296.38 1627.26   6
  -6   3  -3 5998.40 5117.60   4
   6   3  -3 1702.72 1671.17   8
   6  -3   3 2428.00 2826.50  14
   6   3  -3 1347.87 2994.16  18
   6  -3   3 2049.58 2799.99   1
  -6   3  -3 2734.88 1291.28   5
   6  -3   4 51078.0 9658.61   1
   6  -3   4 44282.6 9572.87  14
   6  -3   4 50355.3 11525.3   6
  -6   3  -4 58671.6 12898.5   4
  -6   3  -4 41159.2 8411.74   5
   6   3  -4 54587.0 14746.9  18
   6   3  -4 40497.0 9720.18   8
  -6   3  -5 82915.5 13297.0   5
   6   3  -5 90335.7 14440.1   8
   6  -3   5 106543. 17785.0   6
   6  -3   5 93400.2 15832.4   8
   6   3  -5 97692.4 20523.8  18
  -6   3  -5 96088.8 17497.4   4
   6  -3   5 109231. 15138.2   1
   6  -3   5 87195.5 13897.3  14
   6   3  -6 55540.3 13612.3  18
   6  -3   6 94399.9 17902.0   6
   6  -3   6 65226.5 13583.4   8
  -6   3  -6 66108.4 15402.5   4
   6  -3   6 59557.0 11935.9  14
   6  -3   6 89310.5 14942.1   1
   6   3  -6 66650.1 10137.3   8
  -6   3  -6 62443.5 12229.6   5
   6   3  -7 78425.0 9966.29   8
   6   3  -7 71577.9 15567.3  11
  -6   3  -7 71851.5 15268.9   4
   6  -3   7 87417.9 15333.5   8
   6  -3   7 112707. 16700.1   1
   3  -6   7 9945.69 5552.35   6
  -6   3  -7 59332.8 11837.6   5
   3   6  -7 12818.6 5514.53  18
   6   3  -7 60466.4 13615.2  18
   6  -3   7 83921.1 14560.3  14
  -6  -3   7 39445.3 10974.2   2
   6  -3   8 120007. 16622.5   8
   6   3  -8 69308.4 15237.9   1
   6  -3   8 123303. 16989.4  14
   6   3  -8 110591. 18633.8  11
   6  -3   8 85391.4 12250.4   1
  -6   3  -8 54029.5 10387.8   5
   6   3  -8 108912. 10889.3   8
   6   3  -8 105104. 16964.3  18
   6  -3   8 90430.3 15215.2  16
   3   6  -8 54733.5 14897.7  18
  -6  -3   8 64182.9 14089.9   2
   3  -6   8 18325.1 9901.76   6
  -6   3  -8 60758.5 12930.2   4
   3  -6   9 30248.0 9133.24   6
   6   3  -9 39972.4 11647.1   1
   6   3  -9 51487.5 14491.0  11
  -3  -6   9 2258.42 3148.07   6
   6  -3   9 60636.0 12858.5   8
  -6  -3   9 46420.2 14951.9   2
   6   3  -9 44795.5 11149.7  18
   3   6  -9 26492.5 9746.50  18
   6  -3   9 57667.8 12612.0  16
   6  -3   9 54136.0 10281.1  14
  -6  -3  10 38315.1 7390.63   4
   3  -6  10 44851.1 8672.08  14
   6   3 -10 82477.9 16435.0   1
  -6  -3  10 83241.2 15792.3   2
   6  -3  10 137367. 17284.6   8
  -6  -3  10 54931.3 10513.2   5
  -6  -3  10 115983. 14372.4  16
  -3  -6  10 20721.9 5350.12   6
  -3   6 -10 169794. 16084.8   4
  -3   6 -10 51801.3 9972.07  18
   3   6 -10 118301. 22464.9  18
   3  -6  10 71585.8 16511.9   6
   6  -3  10 116270. 17678.1  16
  -6  -3  11 2388.71 880.874  16
  -6  -3  11 9.39026 2310.38   2
  -3   6 -11 3706.93 1238.54   4
  -6  -3  11 452.226 1062.65   4
  -3  -6  11-2600.78 3684.77   6
   6   3 -11 6950.59 5293.44   1
   6  -3  11 1321.90 872.202   8
   3   6 -11 3405.41 8171.28  18
   6  -3  11 1872.99 1976.78  16
  -3   6 -11 2593.41 595.498  18
  -6  -3  11 3322.93 3319.44   5
   3  -6  11 1451.73 1687.46  14
   3  -6  11 2400.31 5468.23   6
  -3   6 -12 88461.3 6949.34   5
   3  -6  12 65330.5 9411.80  14
  -3   6 -12 105294. 16633.4  18
  -6  -3  12 37833.6 7428.53   4
  -3   6 -12 130141. 16533.9   4
  -6  -3  12 43910.6 9884.71   5
   6  -3  12 92060.1 13753.6   8
  -6  -3  12 77067.1 12457.1  16
   3  -6  12 63707.3 18819.1   6
   6  -3  12 70927.4 13354.1  16
   6   3 -12 51300.1 13223.5   1
   3   6 -12 127063. 25597.1  18
  -6  -3  12 66649.5 14639.6   2
   6   3 -13 15746.8 6930.84   1
   3   6 -13 36330.7 12458.8  18
  -6  -3  13 13761.4 6267.80   5
   6  -3  13 26036.1 6832.41   8
  -3   6 -13 19044.7 5705.84   4
   3  -6  13 33523.9 6826.88  14
  -6  -3  13 10420.2 3614.00   4
  -6  -3  13 22785.2 9247.51   2
  -3   6 -13 30773.7 9146.78  18
  -6  -3  13 24949.5 7957.07  16
   6  -3  13 23552.2 7585.90  16
   6  -3  14 47849.6 11769.4  16
  -6  -3  14 26208.3 8413.93   5
  -6  -3  14 39801.9 10640.8  16
   3   6 -14 65054.9 18106.6  11
   6  -3  14 23616.0 6317.82   2
  -3   6 -14 19213.8 5446.18   4
  -3   6 -14 52627.2 10675.4  18
   6  -3  14 51536.3 10433.1   8
   3   6 -14 58044.4 13708.0  18
   6   3 -14 31161.6 11190.3   1
  -6  -3  14 46155.1 14462.7   2
  -6  -3  14 33130.5 6808.30   4
   3  -6  14 52661.9 9037.58  14
   6   3 -15 4175.55 1020.74   1
   3   6 -15 8694.40 4354.10  18
   6  -3  15 9138.95 4894.79  16
  -6  -3  15 6417.77 5314.20  16
  -6  -3  15 5730.42 3440.18   5
   3  -6  15 7840.57 3130.06  14
   3   6 -15 9786.16 4764.24  11
  -6  -3  15 14759.9 7280.04   2
  -3   6 -15 16584.8 8311.43  11
   6  -3  15 13971.7 5322.10   8
  -6  -3  15 6572.64 2341.87   4
   6  -3  15 8078.72 3381.11   2
   6  -3  16 40819.9 12001.0  16
  -3   6 -16 42928.4 10943.2  11
   3  -6  16 29802.4 9765.90  16
  -6  -3  16 27571.6 7519.70   5
  -6  -3  16 30640.9 12051.3   2
   6  -3  16 37074.2 9223.72   8
  -6  -3  16 27009.8 6439.40   4
   6   3 -16 15572.9 8721.37   1
   6  -3  16 22697.4 6327.14   2
   3   6 -16 45988.2 12831.2  11
   3   6 -16 31381.1 10039.6  18
  -6  -3  16 33849.2 11655.2  16
   6  -3  17 646.764 3545.54  16
  -6  -3  17 568.126 1573.90   4
   6   3 -17-2760.52 4346.61   1
   6  -3  17 2410.25 5350.93   8
   3   6 -17 8715.81 9607.09  11
   6  -3  17 2328.29 2945.59   2
  -6  -3  17-1408.40 2685.23   5
  -3  -6  17 6359.20 8628.75  16
   3  -6  17-886.012 2905.34  16
  -6  -3  17 380.548 2495.87   2
  -6  -3  17-5488.79 819.363  16
   6  -3  18 17484.7 13228.9  16
  -6  -3  18 47241.9 11485.8   5
   6  -3  18 42869.6 8830.88   2
   6  -3  18 48553.5 11599.8   8
  -6  -3  18 35775.4 13350.3  16
  -6  -3  18 49039.4 15952.4   2
   3  -6  18 27401.1 9710.14  16
   6   3 -18 14520.4 9665.39   1
  -3  -6  18 16998.2 8860.23  16
   6  -3  19 21622.5 6745.48   2
   6  -3  19 5330.00 8628.08  16
  -3  -6  19 10511.1 6295.50   2
  -3  -6  19 9184.81 6061.06  16
  -6  -3  19 11304.2 9035.11   2
  -6  -3  19 12601.1 8768.56  16
   6   3 -19 2013.10 5876.62   1
   6  -3  19 19443.9 7972.25   8
   3  -6  19 16277.4 7970.11  16
  -6  -3  19 19716.9 6916.30   5
  -6  -3  20 24842.4 11902.3  16
  -6  -3  20 41759.8 11765.1   5
   6   3 -20 2272.60 2592.69   1
  -6  -3  20 10073.9 10686.3   2
   6  -3  20 32553.4 8674.11   8
  -3  -6  20 24788.3 9182.33  16
  -3  -6  20 2659.79 5731.07   2
   6  -3  20 14913.5 12649.5  16
   3  -6  20 12556.9 8919.17  16
   6  -3  20 32570.0 8195.15   2
  -6  -3  21 18318.4 7851.16   5
  -3  -6  21 10458.2 5809.90   2
  -6  -3  21 13996.8 6948.55  16
   3  -6  21 3519.87 5399.20  16
  -3  -6  21 6803.80 6258.33  16
  -6  -3  21 8594.17 11462.1   2
   6  -3  21 18693.9 8326.50   8
   6   3 -21-299.813 4941.63   1
   6  -3  21 5462.77 8498.50  16
   6  -3  22 24623.2 8308.86   8
   6  -3  22 9391.39 8881.07  16
   6   3 -22-2136.21 4417.50   1
  -3  -6  22 2135.43 4750.24   2
  -6  -3  22 13229.5 11288.2   2
  -3  -6  22 11728.5 7385.40  16
   3  -6  22 11426.1 8966.05  16
  -6  -3  22 13292.3 7298.57  16
   6  -3  23-2256.47 4810.41  16
  -3  -6  23-2198.64 2577.06  16
   6  -3  23 5345.16 5495.30   8
   6   3 -23-2383.09 1494.22   1
  -6  -3  23 2719.11 6621.91   2
   3  -6  23-1028.58 1539.84  16
  -6  -3  23 5646.43 4677.78  16
  -3  -6  23-1292.35 2011.95   2
  -3  -6  24 7438.56 5173.63  16
   6   3 -24-19983.3 9179.23   1
  -6  -3  24 13346.5 8468.48  16
  -6  -3  24 4627.05 8550.58   2
   6  -3  24 12524.0 5460.86   8
  -3  -6  24 7114.28 4566.27   2
   6  -3  24 15852.7 10078.4  16
   3  -6  24 4004.24 7595.95  16
  -6  -3  25-9237.57 7888.07  16
  -3  -6  25 4611.97 4875.88   2
  -6  -3  25-3291.01 8937.35   2
   6  -3  25 6998.28 4872.63   8
   3  -6  25 333.346 3901.92  16
   6  -3  25-2460.94 1450.68  16
  -3  -6  26 13423.7 8336.86   2
  -6  -3  26 16473.1 9511.64  16
  -6  -3  26 2266.14 7921.68   2
   6  -3  26 4868.54 11307.5  16
   3  -6  26 1698.21 5278.90  16
  -3  -6  26 10538.7 5660.12  16
   6  -3  27 1937.89 7051.81  16
  -6  -3  27-3456.67 5601.30  16
  -6  -3  27-1269.45 4594.29   2
   3  -6  27-2717.29 3648.33  16
  -3  -6  27-1445.36 1654.29   2
  -3  -6  27-2989.94 3301.72  16
   6  -3  28 11355.3 11993.7  16
   3  -6  28 2990.29 6502.33  16
  -3  -6  28 5041.31 5006.54   2
  -3  -6  28 12022.0 7526.18  16
  -3  -6  29-2874.37 5299.65   2
   6  -3  29 2533.16 8678.08  16
   3  -6  29-73.8141 1716.31  16
  -3  -6  29 10504.6 7008.30  16
  -3  -6  30-590.797 2817.70   2
   3  -6  30 2227.67 5171.43  16
  -3  -6  30 5739.38 4995.98  16
  -3  -6  31-1593.18 3540.31   2
   3  -6  31 260.194 1674.02  16
  -3  -6  31 1461.76 3777.12  16
  -3  -6  32 969.095 4461.59   2
  -3  -6  32 15899.9 8718.51  16
   3  -6  32 3115.43 5562.06  16
  -3  -6  33 1374.37 4134.37   2
  -3  -6  33 5329.80 6897.99  16
   3  -6  33-3086.60 4042.57  16
  -3  -6  34 4744.96 6929.58  16
  -3  -6  34-1996.20 5448.64   2
   3  -6  34 534.994 3247.03  16
   3  -6  35 1133.75 3651.45  16
  -3  -6  35 4736.03 6613.85  16
  -3  -6  35 7635.27 5859.61   2
   3  -6  36 3196.29 5903.17  16
   6  -4   2 1419.14 1960.10  14
   6   4  -2 2838.78 2681.54  18
   6   4  -3 23801.0 9212.32  18
   6  -4   3 18866.3 6679.21   6
   6  -4   3 12902.0 4349.90   1
   6  -4   3 20284.5 6735.39  14
  -6   4  -4 598.875 1812.52   4
  -6   4  -4-657.975 2261.39   5
   6  -4   4 1440.14 1101.99   1
   6   4  -4 1814.59 3884.09  18
   6  -4   4-941.600 1703.41   6
   6  -4   4-180.887 2324.47  14
  -6   4  -5 25354.9 6231.44   5
   6  -4   5 24467.9 7301.46  14
   6  -4   5 27346.0 8870.60   6
   6  -4   5 19403.8 5677.76   1
  -6   4  -5 36111.4 9235.14   4
   6   4  -5 21738.7 9151.42  18
   6  -4   6 54461.0 9208.97   1
   6  -4   6 46545.2 10208.0  14
   6   4  -6 50915.6 14856.2  18
  -6   4  -6 49876.8 9014.71   5
  -6   4  -6 67781.4 13715.6   4
   6   4  -6 39295.2 8665.51   8
   6  -4   6 53523.2 13110.5   6
   6  -4   7 59432.0 10014.0   1
   4  -6   7 9277.10 4779.22   6
   6   4  -7 56587.5 16600.0  18
   6  -4   7 60160.9 14856.6   6
  -6   4  -7 44288.2 9066.86   5
   4   6  -7 16170.4 8563.17  18
  -6   4  -7 45819.5 11962.3   4
   6  -4   7 41418.5 9484.28  14
   6   4  -7 44751.5 8762.11   8
   6  -4   8 57118.9 11399.4  14
   6  -4   8 92767.9 14679.0   1
   6   4  -8 58064.6 8831.40   8
   6  -4   8 68411.5 17074.4   6
  -6   4  -8 54779.9 13844.4   4
   4   6  -8 18812.7 8642.82  18
   6   4  -8 47601.8 13151.0  18
  -6   4  -8 43460.6 9852.34   5
   4  -6   8 21062.1 8748.45   6
  -6   4  -9 46027.6 9461.16   5
   6  -4   9 60889.8 11209.9   8
   4  -6   9 21150.6 6237.04  14
   6   4  -9 72480.3 17731.8  11
  -4   6  -9 71581.0 11336.9   4
   6   4  -9 64424.7 7721.23   8
   4   6  -9 44670.0 13758.2  18
   6   4  -9 51396.7 12784.8  18
  -6   4  -9 52986.0 13145.7   4
   4  -6   9 41212.6 12058.3   6
   6  -4   9 77711.2 12989.6  14
   6  -4   9 69771.2 11866.5   1
   6  -4  10 3327.57 1513.56  14
  -6  -4  10-1065.64 3456.98   2
   4  -6  10-2374.30 4356.25   6
   6   4 -10 5073.50 4890.68  18
   6   4 -10 4140.30 3197.15  11
   4  -6  10 890.258 2136.27  14
  -6   4 -10 1705.11 2925.47   4
  -4   6 -10-240.878 2914.98  18
   6  -4  10 2743.90 2968.07   8
   4   6 -10 5155.25 4928.52  18
  -4   6 -10 5373.94 3720.38   4
  -4  -6  10-1613.66 2052.18   6
  -4   6 -11 64985.6 7053.57   5
   4   6 -11 100457. 23119.3  18
   4  -6  11 51401.7 8963.52  14
   6   4 -11 59043.7 13475.6  18
  -4   6 -11 105325. 14989.7   4
   6   4 -11 75687.5 16233.6  11
   6  -4  11 81642.1 12763.9  14
   4  -6  11 52564.5 14514.2   6
  -6   4 -11 33774.1 8599.52   4
   6  -4  11 72947.6 12129.1   8
   6  -4  11 53916.1 12644.5  16
  -6  -4  11 33103.4 9359.43   2
  -4   6 -11 64088.8 10750.3  18
  -4  -6  11 12025.3 4736.01   6
   6   4 -12 27854.0 11173.3  11
  -6  -4  12 13689.5 6350.88   2
   6  -4  12 24016.4 7056.30  14
   4   6 -12 45778.3 15476.0  18
   6  -4  12 23662.6 6740.61   8
  -6  -4  12 18166.2 5821.89  16
   4  -6  12 25770.0 6631.98  14
  -4   6 -12 41437.0 9262.19  18
  -4   6 -12 36977.4 9826.90   4
   6  -4  12 24035.1 8120.45  16
   4  -6  12 29866.9 10140.5   6
  -4   6 -12 27900.0 5261.37   5
   4   6 -13 11803.6 7415.68  18
   6  -4  13 9061.98 5049.44  16
   4  -6  13 16776.9 6004.32  14
  -4   6 -13 12018.6 5797.41   4
  -6  -4  13 2923.95 2987.48   2
  -4   6 -13 16165.1 5634.12  18
   6  -4  13 10595.0 4157.50   8
  -6  -4  13 12878.9 4444.10  16
   6   4 -13 10446.8 5729.52   1
   6   4 -14 8961.81 4644.03   1
   4  -6  14 27220.4 6744.74  14
  -4   6 -14 32791.9 8760.96  11
   4   6 -14 36875.3 13451.4  11
  -4   6 -14 9443.15 3815.55   4
  -4   6 -14 30487.9 6536.83  18
   6  -4  14 25067.6 6841.96   8
   4   6 -14 31836.2 9967.27  18
   6  -4  14 21812.3 7281.67  16
  -6  -4  14 17659.9 7638.37   2
  -6  -4  14 15138.8 8712.64  16
  -4   6 -15 33649.2 9619.89  11
   6  -4  15 26529.7 9118.67  16
  -6  -4  15 22573.2 8517.66   2
   4   6 -15 26371.1 9035.16  11
   6   4 -15 12776.6 6969.06   1
   6  -4  15 23815.2 6827.54   8
   4   6 -15 16621.8 8118.25  18
   4  -6  15 20490.2 6214.12  14
  -6  -4  15 23530.6 7719.80  16
  -6  -4  16 18759.0 10369.8  16
  -6  -4  16 19528.6 12175.6   2
   6   4 -16 16875.7 13389.3   1
   4   6 -16-4138.01 3895.52  11
   6  -4  16 3460.57 4500.18  16
   6   4 -17-448.047 3737.90   1
   4   6 -17 18052.4 9781.51  11
  -4  -6  17 14260.9 6685.68  16
   6  -4  17 19524.3 6362.84   8
  -6  -4  17 15758.6 5917.18  16
   6  -4  17 7289.48 7097.51  16
   4  -6  17 5466.18 2563.59  16
  -6  -4  17 9447.73 5113.47   2
   6  -4  18-405.058 3072.47  16
  -6  -4  18 1948.81 4383.09  16
  -6  -4  18 6211.27 5340.57   2
   6   4 -18 7548.64 6016.40   1
   6  -4  18 8046.39 5051.76   8
  -4  -6  18 12491.5 7200.75  16
   4  -6  18 5206.94 2462.38  16
  -6  -4  19 5811.08 3560.26   5
   6  -4  19 2387.48 5685.11  16
  -4  -6  19 7849.17 6597.28  16
   4  -6  19 9620.75 5730.42  16
  -6  -4  19 12299.6 5151.96  16
  -6  -4  19 8635.55 7718.82   2
   6   4 -19-2250.00 4672.30   1
   6  -4  19 5925.32 5569.51   8
   6  -4  19 6795.33 3807.46   2
  -4  -6  19 13529.3 6123.81   2
  -6  -4  20 7446.59 4094.10   5
   6  -4  20 3386.79 5441.12  16
  -6  -4  20 3308.52 5618.30  16
  -4  -6  20 4309.99 4936.01  16
   6   4 -20 1260.90 3960.07   1
   6  -4  20 9148.89 6790.60   8
  -6  -4  20 2566.74 7117.47   2
   4  -6  20 1101.56 2583.88  16
  -4  -6  20 1310.88 3407.17   2
  -4  -6  21 16875.0 8134.22  16
  -6  -4  21 4122.38 6741.01   2
   6   4 -21 1527.17 6759.73   1
   6  -4  21 12329.4 7421.10   8
  -6  -4  21 16033.3 7957.72  16
   6  -4  21 7588.66 7602.68  16
   4  -6  21 8345.45 7971.50  16
  -4  -6  21 6177.33 5232.62   2
   6  -4  22-163.343 1795.58  16
  -6  -4  22 2395.68 5618.35  16
   4  -6  22 2751.79 4887.76  16
   6  -4  22 1196.09 2948.69   8
   6   4 -22 1211.27 1775.09   1
  -4  -6  22 1820.35 3796.98  16
  -6  -4  22 6994.53 5896.83   2
  -4  -6  22 294.004 2063.31   2
  -6  -4  23 5537.31 4745.66  16
  -6  -4  23 8324.94 5500.73   2
   6   4 -23 128.846 2219.15   1
   6  -4  23 23.8513 3754.78   8
  -4  -6  23-1006.45 3724.42   2
   6  -4  23 896.978 4110.07  16
   4  -6  23-672.741 3132.93  16
  -4  -6  23 8252.16 5400.78  16
  -6  -4  24-137.108 3168.11   2
   6  -4  24-576.696 1773.64   8
   4  -6  24-408.264 1405.06  16
   6  -4  24 711.239 3943.93  16
  -4  -6  24-4055.60 3251.22   2
  -6  -4  24 6298.51 6184.66  16
  -4  -6  24 8893.64 5481.98  16
  -4  -6  25 8558.28 5751.53  16
  -4  -6  25 10340.8 6690.86   2
  -6  -4  25 18178.9 8564.64   2
  -6  -4  25 20970.5 9755.42  16
   6  -4  25 6535.55 7791.70  16
   4  -6  25 3717.79 6702.99  16
   6  -4  26 1496.89 5174.23  16
  -6  -4  26 6628.57 5865.25   2
  -4  -6  26 2189.26 2498.70   2
  -6  -4  26 17179.6 9285.62  16
   4  -6  26 497.105 6201.05  16
  -4  -6  26 208.027 2404.52  16
  -4  -6  27 2219.83 4060.50   2
  -6  -4  27 18583.7 10105.2  16
   6  -4  27 3655.25 5664.41  16
  -4  -6  27 14721.1 7890.72  16
  -6  -4  27 4976.11 7165.83   2
   4  -6  27 341.777 5120.59  16
   6  -4  28 942.526 1703.41  16
  -4  -6  28 3105.59 4799.69   2
  -6  -4  28 8703.87 5442.97  16
  -6  -4  28 1289.56 3791.93   2
   4  -6  28-88.7446 3897.33  16
  -4  -6  28 2116.66 3213.28  16
  -4  -6  29 3840.01 6488.96   2
  -6  -4  29 7043.88 6729.04  16
  -6  -4  29 1146.98 6478.15   2
   4  -6  29 34.5131 5292.01  16
   6  -4  29 8540.85 8186.20  16
  -4  -6  29 2390.57 3618.97  16
   4  -6  30 466.645 2355.53  16
  -4  -6  30-347.996 1486.37   2
   6  -4  30-409.380 3249.81  16
  -6  -4  30 7378.28 7220.50  16
  -6  -4  30 330.699 3592.34   2
  -4  -6  30 972.000 4420.61  16
   6  -4  31-203.319 6079.97  16
  -4  -6  31 5030.68 5658.02   2
   4  -6  31 1231.07 5876.32  16
  -4  -6  31 8507.23 6371.73  16
   4  -6  32-389.470 2976.44  16
  -4  -6  32-1388.79 7056.62   2
  -4  -6  32 811.753 4823.32  16
  -4  -6  33 1844.34 2163.79   2
   4  -6  33 3087.15 6950.68  16
  -4  -6  33 8004.12 7390.38  16
  -4  -6  34 2691.17 3675.47  16
  -4  -6  34-1497.90 1893.93   2
   4  -6  34 4833.84 8559.55  16
   4  -6  35 574.039 2002.52  16
   4  -6  36 4114.83 6581.59  16
   6   5  -4 3761.44 3580.96  18
   6  -5   4 2124.36 1369.18   6
   6   5  -5 5620.73 3240.30  18
   6  -5   5 5947.97 3985.22  14
   6  -5   5 6710.22 5675.59   6
  -6   5  -6 1786.88 1559.16   5
   6  -5   6 692.179 1172.81   1
   6  -5   6 2401.52 1748.56  14
   6  -5   6 2329.10 4570.33   6
   5   6  -6-2599.37 3336.36  18
  -6   5  -6 4746.94 3680.11   4
   5  -6   6 2206.09 2961.22   6
   5   6  -7 13095.5 7445.69  18
  -6   5  -7 23277.5 5866.83   5
   6   5  -7 19468.4 8956.36  18
   6  -5   7 17778.2 6882.59  14
   6  -5   7 17460.3 5093.60   1
  -6   5  -7 28251.2 8671.97   4
   6  -5   7 12934.7 4417.24   6
   5  -6   7 5273.13 4066.29   6
   6   5  -8 13634.8 7506.80  18
   6  -5   8 9570.10 5838.62   6
   6  -5   8 14367.8 5342.29  14
   5  -6   8 8347.99 5006.54  14
   5   6  -8 8904.72 4327.59  18
   6   5  -8 10245.7 4269.31   8
   6  -5   8 14823.4 4634.87   1
  -5   6  -8 16593.4 5752.64   4
  -6   5  -8 13503.6 4445.02   5
  -6   5  -8 17647.4 7304.78   4
   5  -6   8 4916.34 3881.04   6
  -5   6  -9 11515.4 5382.78   4
   5  -6   9 1278.48 2255.04   6
   5  -6   9 8406.18 4512.32  14
   6   5  -9 12971.7 7666.60  18
  -6   5  -9 10791.2 4423.42   5
   6  -5   9 12689.5 5598.31  14
   6   5  -9 10536.8 3583.58   8
  -5  -6   9 1760.92 2129.06   6
   5   6  -9 8380.42 6597.40  18
  -6   5  -9 12475.5 5874.33   4
   6  -5   9 11920.8 3994.45   1
   6  -5   9 11682.8 4997.32   6
   5  -6  10 3435.16 1354.52   1
   6  -5  10 7643.61 3084.98  14
   6  -5  10 9022.39 3929.69   1
  -6   5 -10 10179.1 5308.67   5
   5  -6  10 4399.36 2135.23  14
  -5  -6  10 2981.63 1982.86   6
  -5   6 -10 10589.3 4818.55   4
   5  -6  10 6260.59 4875.80   6
   6   5 -10 8989.30 3044.74   8
  -6   5 -10 7920.94 4250.92   4
   6   5 -10 8697.95 6592.32  18
   6  -5  10 18515.0 8550.86   6
   5   6 -10 11787.8 6404.97  18
  -6   5 -10 8989.01 3982.38  18
  -5   6 -10 8138.40 2808.32   5
  -6   5 -11 5170.59 3286.86   5
   6  -5  11 6515.98 3256.09   1
   5  -6  11 9276.10 2754.40   1
   6  -5  11 15592.7 5869.99  14
  -5   6 -11 17572.8 5154.28   5
   5   6 -11 14363.3 8603.41  18
   5  -6  11 9371.81 4304.71  14
   6   5 -11 13990.9 8611.52  11
  -5   6 -11 11182.3 4681.90  18
   5   6 -11 8611.42 2867.01   8
  -6   5 -11 15914.7 8106.89   4
   5  -6  11 9951.16 3398.90   6
  -5   6 -11 14915.4 6738.85   4
  -6   5 -11 11039.9 2604.38  18
   6   5 -11 11774.3 6548.42  18
   5  -6  12 1378.10 766.116   1
   5  -6  12 4980.17 2643.37  14
  -5   6 -12 7362.18 3152.42   5
   5  -6  12 1363.89 5106.30   6
  -6   5 -12 5401.53 3210.55  11
  -5   6 -12 7608.33 4187.07  18
   6  -5  12 7728.01 3247.63  14
  -5   6 -12 1899.58 2599.05   4
   6   5 -12 548.677 3980.85  11
   5   6 -12 2699.21 2208.94  18
  -6   5 -12 3640.25 2163.11   4
   6   5 -12-1302.78 2152.99  18
   5  -6  13 25291.3 7454.73  14
   5   6 -13 25948.0 9999.70  18
   6   5 -13 22122.0 9261.49  11
   6   5 -13 22405.0 8494.03  18
  -5   6 -13 15977.1 6635.18   4
  -6   5 -13 4351.77 3232.80   4
   6  -5  13 18734.9 6203.74  14
  -5   6 -13 23894.2 5154.09  18
   6  -5  14-622.418 2886.21   8
   5  -6  14 608.399 1754.46  14
   6  -5  14-656.764 1562.28  14
   5   6 -14 3461.05 4563.90  11
  -5   6 -14 2942.67 2686.77  11
  -6  -5  14 758.554 2230.23   2
  -5   6 -14-1285.90 2494.22   4
   6  -5  14-62.0456 1950.36  16
   6   5 -14 7296.03 7291.55  11
   5   6 -14 2340.84 2006.46  18
   5  -6  15 10548.6 3318.26  14
   5   6 -15 9290.81 5256.14  18
   6  -5  15 13427.9 5953.66  16
  -5   6 -15 21343.4 6950.11  11
   6  -5  15 12789.6 3776.28   8
  -6  -5  15 5474.23 9117.35  16
   5   6 -15 13556.9 4481.93  11
  -6  -5  15-559.972 5677.52   2
   6  -5  16 1219.60 3982.37  16
   6  -5  16 6773.34 3060.79   8
   6  -5  17 372.338 1172.27  16
   6  -5  17 561.833 2666.22   8
  -6  -5  17-1473.25 2574.79   2
  -6  -5  17-145.045 3098.63  16
  -6  -5  18 5463.56 5209.49   2
   5  -6  18-2471.73 4040.42  16
   6  -5  18-780.515 2379.64   8
  -5  -6  18-5312.98 4363.30  16
   6  -5  18 493.210 2653.91  16
  -6  -5  18-2764.33 2125.28  16
  -6  -5  19 5006.35 6152.99   2
  -5  -6  19 8712.86 5749.25  16
  -5  -6  19 9678.57 6917.19   2
   6  -5  19 5574.05 4554.04   8
  -6  -5  19 14434.7 7359.64  16
   5  -6  19 15336.7 7049.55  16
   6  -5  19 7844.20 7132.98  16
   5  -6  20 814.758 926.109  16
  -6  -5  20 2297.16 4589.81   2
  -5  -6  20 1584.26 5145.83   2
  -5  -6  20 4638.12 4891.86  16
   6  -5  20 341.384 1737.22   8
   6  -5  20 3848.99 4080.22  16
  -6  -5  20 1537.53 2657.52  16
  -6  -5  21 727.633 2794.62   2
  -6  -5  21 11643.8 5618.62  16
  -5  -6  21-3580.51 4010.04   2
   5  -6  21 6607.07 4909.57  16
  -5  -6  21 1007.23 1921.05  16
   6  -5  21 4686.33 3778.27   8
   6  -5  21 5728.14 5518.60  16
  -6  -5  22 1332.51 2453.06   2
  -6  -5  22 3846.51 4002.20  16
   6  -5  22 1175.45 1254.08   8
  -5  -6  22-2113.71 2273.26  16
   6  -5  22 1864.46 3477.96  16
   5  -6  22-190.152 2916.41  16
  -5  -6  22-536.468 4463.08   2
   6  -5  23 3875.10 5599.83  16
  -6  -5  23 65.5128 2937.70   2
  -5  -6  23 2136.77 2407.05  16
  -6  -5  23-2856.57 3481.01  16
  -5  -6  23-472.608 2570.22   2
   6  -5  23 1586.00 3048.91   8
   5  -6  23 3093.93 3920.41  16
   6  -5  24 448.448 2538.38  16
  -6  -5  24 4860.09 3737.55  16
  -5  -6  24 83.3883 1238.92   2
  -5  -6  24-4114.84 4204.15  16
  -6  -5  24-999.896 3216.26   2
   5  -6  24 660.292 5170.22  16
  -6  -5  25 6789.52 5170.95  16
  -5  -6  25 4426.76 4768.69   2
  -6  -5  25 2104.68 6745.29   2
   6  -5  25-1286.26 3454.03  16
   5  -6  25 412.216 3495.36  16
  -5  -6  25 8235.26 4760.54  16
   6  -5  26-65.6499 3308.19  16
  -5  -6  26 9410.69 6167.31   2
  -6  -5  26-280.634 1693.99   2
  -6  -5  26-24.5448 2725.51  16
  -5  -6  26 3785.78 4690.37  16
   5  -6  26 11788.2 14030.0  16
   6  -5  27 685.720 4966.73  16
  -6  -5  27 10763.0 6225.32  16
  -5  -6  27 1935.58 4796.52   2
   5  -6  27 1812.07 1835.01  16
  -6  -5  27-910.559 5771.40   2
  -5  -6  27 8599.56 5083.65  16
  -5  -6  28 667.761 3802.94   2
  -6  -5  28-565.372 4710.54   2
  -6  -5  28 1083.96 1473.79  16
  -5  -6  28-2082.55 3387.36  16
   5  -6  28 2154.47 4426.11  16
   6  -5  28 875.300 2148.64  16
   6  -5  29 789.648 286.395  16
  -6  -5  29 8876.01 5908.71  16
  -5  -6  29-5882.03 5245.85   2
  -6  -5  29-275.985 1054.74   2
   5  -6  29-1005.05 4327.76  16
  -5  -6  29 4299.25 4331.94  16
  -6  -5  30 3306.64 4031.19  16
  -5  -6  30-5416.28 4840.70  16
  -5  -6  30-1249.18 2575.41   2
   6  -5  30 62.7628 3814.23  16
  -6  -5  30 5204.68 3852.16   2
   5  -6  30 2286.24 2921.63  16
  -6  -5  31-4322.89 5941.73  16
  -5  -6  31 3115.61 2767.99   2
  -6  -5  31 4093.40 5178.62   2
   6  -5  31 771.928 6020.13  16
  -5  -6  31 229.018 2335.93  16
   5  -6  31 1118.27 1621.63  16
  -5  -6  32 320.081 3151.85   2
   6  -5  32-3396.91 7296.38  16
  -6  -5  32-3046.12 7048.50   2
  -5  -6  32 4824.21 4629.36  16
  -6  -5  32-2001.48 2078.85  16
   5  -6  32 2347.57 4150.26  16
   6  -5  33 49.8206 2454.36  16
  -5  -6  33 140.844 3107.91   2
   5  -6  33 94.7232 3974.86  16
  -5  -6  33 4753.79 4337.33  16
  -5  -6  34 3278.34 6917.99   2
   6  -5  34 651.784 2533.12  16
   5  -6  34-1903.99 3710.48  16
  -5  -6  34-1406.01 3660.84  16
   5  -6  35-2804.30 6480.25  16
   5  -6  36 828.070 4484.95  16
   6   6  -5 1031.72 2772.30  18
   6   6  -6 13393.0 7050.43  18
   6  -6   6 4479.19 4393.28   6
  -6   6  -7-1939.24 3981.56   4
   6  -6   7 2232.81 3510.84  14
   6  -6   7 504.466 556.482   6
   6   6  -7-5338.53 5579.98  18
   6  -6   8 6997.68 4219.50  14
  -6   6  -8 7936.52 3223.78   5
   6   6  -8 4101.27 4587.66  18
   6  -6   8 1867.58 2019.94   6
  -6   6  -8 13653.5 6357.73   4
  -6   6  -9-561.840 2496.84   5
   6  -6   9-1412.12 1472.03   6
   6   6  -9 2963.62 4107.90  18
  -6   6  -9 925.879 713.702   4
   6  -6   9 499.632 2872.42  14
  -6  -6   9 709.367 2247.39   6
   6  -6   9-342.737 1155.56   1
  -6   6 -10 605.367 1390.90   5
   6  -6  10 796.572 1713.37   1
   6   6 -10-2382.31 2728.09   8
   6  -6  10 3026.92 3234.38   6
   6  -6  10 1886.83 454.603  14
  -6   6 -10-1113.94 3157.59   4
   6   6 -10-306.651 4384.03  18
   6  -6  11 3407.73 7257.86   6
  -6   6 -11-2577.97 3099.32   5
   6   6 -11 898.612 1175.77   8
  -6   6 -11 3773.07 4836.69   4
   6   6 -11-4440.29 6692.27  18
  -6   6 -11 1469.94 1153.78  18
   6  -6  11-157.664 1251.40  14
   6  -6  11-619.385 1064.72   1
  -6   6 -12 13595.9 4921.53   5
   6  -6  12 23682.5 8285.26  14
  -6   6 -12 20950.0 8059.62   4
   6  -6  12 12724.7 4670.60   1
  -6   6 -12 19173.9 5313.38  18
   6   6 -12 19605.7 9447.86  18
   6  -6  13 2235.26 1740.96  14
  -6   6 -13-2891.06 3850.24  11
  -6   6 -13 2337.05 1781.55   4
   6   6 -13-273.040 2182.34  18
   6   6 -13 3787.97 6069.15  11
  -6   6 -14 3320.37 1379.32   4
   6   6 -14 8415.97 5930.71  11
  -6   6 -14 20940.8 5619.01  11
   6   6 -14 15138.9 7451.51  18
   6  -6  14 14300.3 4852.11  14
   6   6 -15 13833.5 8936.62  11
   6  -6  15-207.493 897.206  14
   6   6 -16 6359.96 7325.06  11
  -6  -6  19 776.957 3658.42   2
   6  -6  19-4271.55 5574.50  16
  -6  -6  19-7232.53 4507.07  16
   6  -6  20 2723.03 4473.08  16
  -6  -6  20 2140.14 3728.24  16
  -6  -6  20 400.483 3300.05   2
   6  -6  21 1077.58 1970.14  16
  -6  -6  21-2034.23 4878.60   2
  -6  -6  21 8309.74 5795.31  16
   6  -6  22 4483.77 4778.63  16
  -6  -6  22 330.342 3941.50   2
  -6  -6  22 3665.55 4080.73  16
   6  -6  23 1199.07 3135.93  16
  -6  -6  23 772.638 2044.64  16
  -6  -6  23 3.41711 3122.81   2
  -6  -6  24 1177.52 647.884  16
  -6  -6  24 592.975 3658.22   2
   6  -6  24 357.967 3783.60  16
  -6  -6  25 621.687 2547.73   2
  -6  -6  25 1517.90 1878.17  16
  -6  -6  26 3430.45 6059.91   2
  -6  -6  26 8123.12 4716.50  16
   6  -6  26-1903.17 3833.18  16
  -6  -6  27-2522.34 924.977   2
  -6  -6  27-4072.56 3970.35  16
   6  -6  27 234.076 3694.21  16
  -6  -6  28 1953.54 3042.06   2
   6  -6  28-270.730 2160.40  16
  -6  -6  29 4091.12 5559.89   2
  -6  -6  29 6372.22 4845.73  16
   6  -6  29 226.713 5397.35  16
  -6  -6  30 4447.48 4067.40  16
  -6  -6  30 1965.52 3450.08   2
   6  -6  30-213.103 531.119  16
  -6  -6  31-458.894 2442.08   2
   6  -6  31-558.833 4025.16  16
  -6  -6  31-1083.18 3608.91  16
  -6  -6  32 3389.72 5465.57   2
   6  -6  32 3252.53 5339.33  16
  -6  -6  32 2957.30 2674.55  16
   6  -6  33-691.763 4018.36  16
  -6  -6  33-372.843 2523.91  16
  -6  -6  33-1031.59 3267.94   2
   6  -6  34 1740.13 2791.34  16
  -6  -6  34-2474.70 1822.44   2
   6  -6  35-1613.41 2902.50  16
   6  -6  36 6436.48 6992.27  16
  -7   0   0 549.842 478.441   2
   7   0   0 273.637 2682.84  14
  -7   0   0 786.228 1967.98   5
  -7   0   0 727.275 2390.82   4
   7   0   0-969.635 1980.38   8
   7   0   0 2778.16 2384.98   1
   7   0  -1 37586.7 13410.4   1
  -7   0  -1 8431.10 4695.52   5
   7   0   1 20781.1 7448.17   8
  -7   0   1 18934.2 7425.75   5
   7   0   1 27253.3 10044.2   1
   7   0  -1 21271.4 7388.66  14
  -7   0  -1 10436.9 4724.99   4
  -7   0   1 17964.3 7972.14   4
   7   0  -1 29576.3 8660.12   8
  -7   0   1 22272.1 6924.98   2
   7   0   2 1604.21 3074.01   8
   7   0   2 579.941 2809.34   1
  -7   0   2 643.737 3991.09   5
   7   0  -2 241.737 1437.94  14
   7   0  -2-805.845 3099.36   1
   7   0   2-370.448 770.458  18
   7   0  -2 917.722 2692.86   8
  -7   0  -2 1464.43 3016.76   4
  -7   0   2-1817.86 3772.48   4
  -7   0   2-706.338 1984.92   2
   7   0  -2-466.749 457.296   6
   7   0  -3 70085.5 16054.2   1
   7   0   3 38616.0 4964.46  11
   7   0  -3 39957.5 9507.36  14
  -7   0   3 32716.4 10491.7   5
   7   0  -3 43093.7 7072.04   6
  -7   0   3 39891.7 9577.78   2
   7   0   3 29368.9 5738.05  18
  -7   0   3 41088.9 11517.5   4
   7   0   3 38614.7 10594.0   8
   7   0   3 34424.7 6367.99  16
   7   0   4 2340.85 1650.67  16
   7   0  -4 1453.31 1142.28  14
   7   0   4-527.406 1383.77  18
   7   0   4 913.736 2925.30   8
  -7   0   4-3194.77 4693.69   5
  -7   0   4 198.257 1691.44   2
  -7   0   4-912.804 1692.93   4
   7   0  -4 6231.05 6723.39   1
   7   0  -4-1002.26 1180.94   6
   7   0   5 3569.67 1729.79   8
   7   0  -5 1741.42 2034.45  14
   7   0   5 6013.86 4445.08  16
   7   0  -5 778.608 783.630   1
  -7   0   5 4690.47 3176.90   5
   7   0   5 3008.62 2171.08  18
  -7   0   5 1702.89 2380.47   2
  -7   0   5 3074.68 3381.54   4
   7   0  -5 846.098 1353.96   6
   7   0   6 275.404 1048.42  16
  -7   0   6 2145.90 2907.11   5
   7   0  -6 1266.18 2235.58  14
   7   0  -6 1926.90 2110.07   1
   7   0   6 904.354 1799.76   8
   7   0   6-640.272 1805.04  18
  -7   0   6-219.587 844.996   2
  -7   0   6-1047.07 1218.22   4
   7   0   7 1893.49 830.804  16
   7   0  -7 4203.84 2319.13  14
  -7   0   7 11555.8 4740.05   5
   7   0   7 3331.65 3269.31   8
   7   0  -7 7519.95 4926.17   1
  -7   0   7 9658.70 3379.16   2
   7   0   7 4330.75 1667.26  18
  -7   0   7 9141.68 3644.80   4
  -7   0   8 2878.32 2800.79   4
   7   0   8 1776.62 2856.57  16
  -7   0   8 1144.74 2438.14   5
   7   0  -8 3485.53 3046.66  14
   7   0   8 1757.33 4685.13   8
   7   0  -8 1986.38 3532.57   1
  -7   0   8 2078.31 2723.58   2
  -7   0   9-227.837 1055.18   5
   7   0   9-454.929 677.919  16
  -7   0   9-4861.46 2903.20   4
   7   0  -9-4139.32 4704.45   1
   7   0  -9 2504.88 2263.94  14
   7   0   9 1648.67 1861.51   8
  -7   0   9 589.219 2459.02   2
   7   0  10 1144.04 695.744  16
  -7   0  10 2584.31 2237.87   2
   7   0 -10-1328.57 1602.13  14
   7   0 -10-933.936 1020.28   1
   0   7 -10-4849.06 6402.99  18
   7   0  10-592.822 916.361   8
  -7   0  10-722.188 528.346   5
   0  -7  10-2703.62 3739.07   6
  -7   0  11 37197.8 8035.27   5
   7   0  11 19069.3 6378.31  16
   7   0 -11 16555.0 6564.08   1
  -7   0  11 24109.9 7477.91   2
   0   7 -11 32840.0 11355.3  18
   0  -7  11 9790.94 4884.19   6
   7   0 -11 20332.5 5697.16  14
   0   7 -12-592.535 2135.12  18
   7   0  12-59.8951 958.130  16
  -7   0  12-528.365 2468.11   5
   7   0 -12 852.737 603.316   1
   0  -7  12-5397.42 5871.83   6
  -7   0  12-727.154 1674.18   2
   7   0 -12-5.91241 523.793  14
  -7   0  13 52409.0 9765.41   5
   7   0  13 26700.0 7927.08  16
   7   0 -13 16492.9 4369.69  14
   0   7 -13 72843.1 7422.92   4
   7   0 -13 10051.6 4844.20   1
  -7   0  13 40588.9 10025.7   2
   0   7 -13 74892.8 17940.0  18
   0  -7  13 15593.6 7474.86   6
   0   7 -14 547.333 5439.24  18
   7   0 -14-1323.27 1624.65  14
  -7   0  14-1802.85 2451.41   5
  -7   0  14 978.172 2822.37   2
   7   0 -14-144.326 2297.36   1
   7   0  14-296.397 337.019  16
   0  -7  15 12495.2 3279.95  14
   7   0  15 8539.43 3084.66  16
   7   0 -15 3704.87 3114.80  14
   7   0 -15-735.893 2809.85   1
  -7   0  15 14325.0 6774.34   2
   7   0  16 408.112 789.233  16
   0   7 -16-1845.02 4934.02  11
   0   7 -16-4344.61 5166.13  18
   7   0  17-2833.64 3384.19  16
   0   7 -17 10012.2 6135.65  18
   0   7 -17 5324.91 5066.19  11
   7   0  18-191.796 4205.43  16
   0   7 -18 3224.41 3482.44  11
   7   0  19 1725.06 3071.55  16
   0  -7  21 2345.23 3393.78  16
   0  -7  22-390.706 1947.37  16
   0  -7  23-869.450 3911.00  16
   0  -7  24 2805.30 5846.97  16
   0  -7  25 1436.51 3268.19  16
   0  -7  26-4487.53 4116.75  16
   0  -7  27 5897.91 7130.83  16
   0  -7  28 1484.24 4541.15  16
   0  -7  29 1793.87 1382.09  16
   0  -7  30 1557.53 7560.19  16
   0  -7  31-106.509 1427.54  16
   0  -7  32-758.211 345.848  16
   0  -7  33-1774.57 5156.72  16
   0  -7  34-214.280 2770.96  16
   0  -7  35-1912.65 2703.25  16
   0  -7  36-5434.88 5928.40  16
   0  -7  37-1704.76 4120.15  16
   7  -1   0 119469. 20062.5   1
   7  -1   0 87657.8 14968.8  14
   7  -1   0 121951. 15885.2   6
   7   1   0 84587.5 15333.5   8
  -7   1   0 101917. 18570.0   4
   7   1   0 79177.4 12711.6  18
  -7   1   0 85273.9 10460.7   2
   7  -1   0 105004. 16559.3   8
  -7   1   0 76497.4 15002.7   5
  -7   1  -1 39878.5 7840.13   2
   7  -1   1 33846.1 9025.96   8
   7  -1   1 43803.2 10384.0   6
   7  -1  -1 29258.5 8077.43  14
   7  -1   1 31061.6 8779.64  14
  -7   1   1 21278.1 6820.55   5
   7   1  -1 27746.9 10401.5   1
   7  -1   1 50048.7 14007.8   1
   7  -1  -1 34559.1 8009.42   6
   7  -1  -1 39419.9 11745.2   1
  -7   1  -1 30509.5 10919.7   5
   7   1  -1 27208.1 7175.64  18
   7   1   1 31304.3 9953.15   8
   7   1   1 33227.4 8680.43  18
   7   1  -1 29573.6 8080.16   8
  -7  -1   1 12674.3 6130.10   4
   7   1  -1 31442.9 6868.06  11
  -7   1  -1 18608.3 8175.71   4
  -7   1   1 20803.3 4883.63   2
  -7   1   1 24130.5 8633.93   4
  -7   1  -2 11791.7 3114.18   2
   7   1  -2 29617.1 7946.37   8
   7   1   2 12237.6 3268.30  16
  -7   1  -2 17963.9 8154.50   5
  -7   1   2 19010.2 6740.10   5
   7  -1  -2 16069.1 5513.70  14
   7  -1   2 19590.5 6609.28  14
   7   1  -2 18739.5 6294.99  18
   7   1  -2 22852.8 5973.15  11
  -7   1   2 15563.4 6614.29   4
   7  -1   2 32211.5 10703.5   1
   7  -1  -2 21264.7 8208.66   1
   7   1  -2 24765.1 9053.93   1
   7   1   2 8087.51 5026.91   8
   7   1   2 17106.5 6460.15  18
  -7   1  -2 17197.2 8334.82   4
   7  -1   2 24099.2 8335.39   8
  -7  -1   2 8827.98 5472.18   5
  -7   1   2 8710.22 3709.71   2
  -7  -1   2 9607.52 4227.82   4
   7  -1  -2 21900.0 5879.75   6
  -7  -1   2 10294.5 4683.87   2
  -7   1   3 10925.1 4719.10   5
  -7   1   3 7575.99 3228.67   2
   7  -1  -3 13504.7 5695.47  14
  -7   1   3 12615.6 5328.49   4
  -7  -1   3 11498.0 5644.23   4
  -7   1  -3 5832.41 3672.05   4
   7  -1   3 15275.3 5782.61   8
   7  -1   3 17867.3 6066.34   1
   7  -1  -3 18037.7 6648.85   1
  -7  -1   3 6412.06 4694.21   5
   7   1  -3 19310.2 6368.78   8
   7  -1  -3 12921.1 4464.61   6
   7   1  -3 21697.2 8662.47   1
   7   1   3 11145.4 4934.90  18
   7   1   3 9622.23 5716.27   8
  -7  -1   3 9374.10 4928.00   2
   7  -1   3 11808.0 5444.94  14
  -7   1  -3 5601.21 3110.65   5
   7  -1  -4-5038.61 3553.86   1
   7  -1   4 3006.86 2254.37   1
   7   1  -4 3162.95 4029.78   1
  -7   1   4 33.3404 430.832   2
   7  -1  -4-713.670 280.417  14
  -7  -1   4 70.5338 2246.89   5
   7   1   4 4476.57 4136.19   8
  -7  -1   4 61.3622 736.046   2
  -7  -1   4 2153.73 1618.98   4
  -7   1   4-636.275 2000.62   4
  -7   1  -4-317.846 1712.47   4
   7   1   4 1439.77 1534.52  18
   7  -1   4 85.4884 3259.94   8
   7   1  -4 4989.56 3783.77  14
   7   1  -4 578.489 841.495   8
   7  -1   4-723.147 758.891  16
   7  -1   4-1936.65 3116.37  14
  -7   1   4 1859.75 1865.85   5
  -7  -1   5 8553.30 2455.30  16
   7  -1   5 10022.8 4522.25  16
  -7  -1   5 11112.1 5352.22   5
   7   1  -5 25085.6 10003.6   1
   7  -1   5 8972.32 3439.03   8
   7  -1  -5 4253.63 2076.97  14
  -7   1  -5 5469.62 4473.39   4
  -7  -1   5 13413.5 5327.39   2
   7   1   5 5785.89 5142.89   8
   7  -1  -5 9525.42 5199.83   1
  -7  -1   5 9848.82 5800.15   4
  -7   1   5 9051.29 3469.27   4
   7   1  -5 5404.48 3375.09  14
  -7   1   5 3689.24 2511.90   2
  -7   1   5 8232.97 3910.60   5
   7   1  -6 13746.0 3074.88   6
  -7  -1   6 14117.0 7207.92   5
  -7  -1   6 9178.15 5284.46   2
   7  -1  -6 5988.84 3345.40  14
  -7   1   6 8481.23 4001.04   5
   7  -1   6 6065.45 2940.57  16
   7   1  -6 13568.0 7229.42   1
   7   1  -6 7802.44 3895.42  14
  -7  -1   6 6764.77 4334.11   4
   7  -1  -6 4245.38 3731.00   1
  -7   1   6 3639.08 1947.31   2
   7  -1   6 7721.56 4971.50   8
  -7  -1   6 10401.8 3499.48  16
  -7  -1   7 9878.51 6492.23   5
   7   1  -7 4211.29 2169.22  14
  -7   1   7 4138.64 2576.86   2
  -7  -1   7 8254.03 2817.55  16
  -7   1   7 7670.74 3882.57   5
   7  -1  -7 4017.62 3432.92   1
   7  -1   7 8166.91 4740.42   8
  -7  -1   7 8082.29 5461.26   2
   7   1  -7 14514.8 6814.48   1
   7  -1   7 11626.4 4793.57  16
  -7  -1   7 8004.68 3656.99   4
   7  -1  -7 7603.30 3697.80  14
   7   1  -7 9190.93 2265.74   6
  -7  -1   8 19066.1 5601.16  16
   7  -1  -8 5891.76 3912.88   1
   7  -1   8 25813.8 9999.96  16
  -7  -1   8 21060.8 8619.57   5
   7  -1  -8 9341.28 4127.70  14
  -7   1   8 14599.0 5030.53   5
   7  -1   8 32782.4 12583.3   8
   7   1  -8 20074.1 6212.83  14
  -7  -1   8 32182.4 11149.6   2
  -7  -1   8 28117.8 8055.53   4
   7   1  -8 29490.5 12918.1   1
  -7   1   8 10160.6 4225.81   2
  -7   1   9 33113.7 7645.28   5
   1  -7   9 2083.85 2797.82   6
   7  -1   9 47326.5 12268.5  16
   7  -1   9 46927.6 13680.6   8
  -7  -1   9 20657.7 5218.61  16
  -7  -1   9 33606.0 9315.52   5
   7   1  -9 31233.7 7539.95  14
   7  -1  -9 16924.1 5005.98  14
  -7  -1   9 46881.1 10597.0   4
   7   1  -9 36077.4 11609.4   1
  -7  -1   9 47246.8 11800.7   2
   7  -1  -9 6264.82 3561.97   1
  -7   1   9 11121.9 4920.19   2
   7   1 -10 25280.3 9580.96   1
   7  -1  10 18483.9 3090.91   2
  -7  -1  10 19796.3 7056.23   5
   7  -1 -10 7089.04 3175.26  14
  -7   1  10 10913.6 4919.39   5
   1   7 -10 13457.1 7208.79  18
   7  -1  10 19977.2 8023.96   8
   7   1 -10 11411.9 4585.63  14
  -7  -1  10 26979.6 7314.58   4
  -7  -1  10 10081.9 3789.78  16
  -1  -7  10 2827.61 3056.42   6
  -7  -1  10 22497.1 7969.98   2
  -7   1  10 9086.35 4190.76   2
   7  -1 -10 4425.95 3029.73   1
   7  -1  10 19633.6 7189.55  16
   1  -7  10 5859.32 5198.05   6
   7   1 -11 20894.5 8833.47   1
   7  -1  11 18244.6 3325.00   2
  -7  -1  11 8226.96 3421.46  16
   7  -1  11 14936.4 6184.76  16
   7  -1  11 19681.5 9214.78   8
   1  -7  11 7845.49 5389.18   6
  -1  -7  11 5875.53 3906.59   6
  -7  -1  11 27023.9 7803.22   4
  -1   7 -11 12714.0 7437.77  18
  -7  -1  11 24229.7 9073.86   2
   1   7 -11 15196.8 8715.13  18
   7   1 -11 7542.76 3792.93  14
  -7  -1  11 23857.8 7483.57   5
  -7  -1  12 10499.1 3867.61  16
   7  -1  12 35049.6 9993.04  16
   7   1 -12 18280.9 6777.31   1
  -7  -1  12 54779.7 10318.6   4
   7   1 -12 15440.7 5628.70  14
  -1   7 -12 38072.0 11977.1  18
   7  -1  12 37694.8 11522.3   8
   7  -1  12 34984.4 4860.92   2
  -1  -7  12 6150.00 3287.23   6
   1  -7  12 16189.4 7598.61   6
   1   7 -12 43756.0 12491.9  18
  -7  -1  12 45373.5 10140.0   5
  -7  -1  12 43886.0 11378.4   2
   7  -1  13 14232.3 6799.43  16
   7   1 -13 4222.46 2730.39  14
   7   1 -13 2343.07 1656.89   1
   7  -1  13 8868.57 5174.40   8
   7  -1  13 11020.0 2826.23   2
  -1  -7  13-1733.51 4744.70   6
   1   7 -13 15493.0 7678.41  18
  -7  -1  13 12171.6 6585.82   2
  -7  -1  13 13163.7 5529.48   5
  -1   7 -13 23068.7 4850.95   4
   1  -7  13 4296.30 2388.91   6
  -1   7 -13 14873.7 5748.64  18
  -7  -1  13 18282.7 5338.97   4
  -7  -1  14 51031.7 10372.3   5
   7  -1  14 41881.9 12017.9  16
   1  -7  14 22949.4 5013.30  14
   7  -1  14 34164.3 10249.1   8
   7   1 -14 12844.1 4378.76  14
  -7  -1  14 60411.7 10218.7   4
   7   1 -14 23549.5 8685.75   1
  -1   7 -14 75544.8 17823.7  18
   7  -1  14 39190.2 5794.90   2
  -7  -1  14 39963.1 11633.2   2
   1   7 -14 82544.1 20028.2  18
  -1   7 -14 61229.1 9048.19   4
   1   7 -15 17683.2 8333.87  18
   7  -1  15 8706.90 5203.94  16
   1  -7  15 8905.30 2989.76  14
  -7  -1  15 8372.73 2472.99   4
   7  -1  15 6092.37 3507.56   8
  -7  -1  15 13255.7 5440.35   5
   7   1 -15-1976.44 1787.03   1
  -1   7 -15 14573.8 7049.92  18
  -7  -1  15 4513.59 5088.80   2
   7  -1  15 6725.01 2700.19   2
   7  -1  16 5145.99 6017.75  16
  -7  -1  16 13050.4 6294.08   5
  -1   7 -16 27354.7 10006.5  11
   1   7 -16 19892.5 10007.9  11
   7   1 -16-126.605 1400.40  14
  -7  -1  16 6433.32 4962.74   2
   7  -1  16 6884.44 1709.88   8
   7  -1  16 8594.58 2891.87   2
   7   1 -16 2141.80 2964.71   1
   1   7 -16 19149.4 8702.31  18
  -1   7 -16 17799.1 6981.01  18
  -7  -1  17 13992.4 4978.83   5
   7  -1  17 13549.8 6594.33  16
   1   7 -17 16280.9 8106.89  18
  -7  -1  17 4547.18 4563.19  16
  -1   7 -17 11144.2 4712.66  18
   1   7 -17 11728.2 7110.73  11
   7  -1  17 8467.46 6410.52   8
   7   1 -17 1199.55 955.183  14
   7   1 -17 821.622 1559.34   1
  -7  -1  17 6565.13 5130.07   2
   7  -1  17 11248.0 3901.95   2
  -1   7 -17 11806.0 6669.38  11
  -7  -1  18-5163.69 4290.48   2
  -7  -1  18-1341.84 1393.07  16
  -7  -1  18 287.605 1375.93   5
   1   7 -18-811.273 4290.25  11
  -1   7 -18 448.776 2533.93  11
   7  -1  18-4354.88 4757.01   8
   7  -1  18 2326.36 3172.78  16
   7   1 -18 126.925 1976.62   1
   7  -1  18 190.839 791.753   2
   7  -1  19 4269.60 5385.25  16
  -7  -1  19 8221.71 5532.65  16
  -7  -1  19 9280.42 3571.20   5
   7  -1  19 11989.4 4561.59   8
   7   1 -19 3041.59 1011.19   1
  -7  -1  19 7391.85 4927.30   2
   7  -1  20 1862.85 5461.38  16
   7  -1  20 10872.8 7489.61   8
  -7  -1  20 1287.00 3822.71   2
   7  -1  21 3114.78 4680.37  16
   1  -7  21 302.500 1652.39  16
   7  -1  21 2831.22 3981.76   8
  -1  -7  21 8252.58 5849.41  16
   7  -1  22-2818.88 8031.28  16
   1  -7  22 4950.34 9498.80  16
   7  -1  22 1125.84 5333.07   8
  -1  -7  22 4171.15 6284.63  16
  -1  -7  23 347.799 1261.95  16
   7  -1  23-254.645 6723.28  16
   1  -7  23 2474.48 280.324  16
   7  -1  23 6738.59 7055.30   8
  -1  -7  24 552.680 3753.54  16
   1  -7  24-233.977 4245.34  16
  -1  -7  25 3285.24 5777.72  16
   1  -7  25 2161.70 3966.88  16
  -1  -7  26 4802.14 5609.19  16
   1  -7  26 730.102 3776.30  16
   1  -7  27-5187.21 5077.45  16
  -1  -7  27 4575.00 4951.77  16
   1  -7  28 358.823 5478.72  16
  -1  -7  28 5499.31 6000.63  16
   1  -7  29-470.225 5056.77  16
  -1  -7  29 2850.36 4114.03  16
  -1  -7  30 1826.83 4144.86  16
   1  -7  30-2028.26 4129.99  16
  -1  -7  31 126.230 1744.15  16
   1  -7  31 1018.17 5256.56  16
  -1  -7  32 2254.11 5780.55  16
   1  -7  32 873.045 3226.66  16
  -1  -7  33-1379.39 4214.75  16
   1  -7  33-577.813 1906.84  16
  -1  -7  34 4409.66 4655.90  16
   1  -7  34 184.965 1549.26  16
  -1  -7  35 5795.90 7136.61  16
   1  -7  35 11349.0 8000.63  16
   1  -7  36-681.141 3229.26  16
  -1  -7  36-6063.87 5127.59  16
   1  -7  37-2765.31 6125.69  16
  -1  -7  37 2474.84 4216.42  16
   7   2   0 61621.6 12904.2   8
   7  -2   0 99341.8 15050.7  14
  -7   2   0 106143. 16578.6   4
   7  -2   0 100549. 15694.6   1
   7  -2   0 88606.5 13196.6   6
   7   2   0 80023.3 14168.9  18
  -7   2   0 84072.4 13009.8   5
  -7   2  -1 93152.3 16087.2   4
   7  -2  -1 66065.0 12252.9   1
   7   2  -1 84287.6 16134.0   8
   7  -2   1 104326. 16274.9   1
   7  -2  -1 63860.0 11739.7  14
  -7   2  -1 84472.6 13641.0   5
  -7   2   1 84590.1 14508.4   4
  -7   2   1 67295.5 11220.0   5
   7   2   1 51577.4 10950.7  18
   7   2   1 46003.0 10819.1   8
   7   2  -1 88385.4 17376.0  18
   7  -2   1 92233.6 14666.2  14
   7  -2   1 100565. 14513.9   6
  -7   2  -1 33313.5 4554.17   2
   7  -2  -1 59399.8 10697.3   6
  -7   2   2 30564.7 7226.94   5
   7  -2   2 60060.0 13076.2   1
   7  -2   2 42213.6 10094.9  14
  -7   2  -2 39352.7 10198.0   5
   7  -2  -2 27633.6 7506.54  14
  -7   2  -2 54158.8 13835.1   4
  -7   2   2 42377.6 9807.37   4
   7   2  -2 52864.5 12890.8   8
   7  -2   2 52627.3 12544.1   8
   7  -2   2 58470.2 11751.6   6
   7   2   2 21990.4 7034.71  18
   7   2  -2 45159.8 11775.1  18
  -7   2  -2 22581.7 3455.81   2
   7  -2  -2 27247.6 8227.78   1
  -7   2   3 1455.71 1337.22   5
   7  -2  -3 2343.30 2444.49  14
  -7   2  -3 3609.80 3924.35   5
   7  -2   3 2740.42 3748.36  14
   7  -2   3 6160.84 2565.33   8
   7  -2  -3 106.494 2649.94   1
   7  -2   3 5510.82 5641.31   1
   7   2  -3 1311.75 316.904   8
   7  -2   3 3872.32 2598.38   6
  -7   2  -3 2028.45 1269.32   2
  -7   2  -3 5077.05 5179.12   4
   7   2  -3 1307.66 1232.15  18
   7  -2   4 40579.8 11544.8   1
  -7   2  -4 25023.8 8730.90   5
   7   2  -4 27751.0 9380.56   1
  -7   2   4 16273.6 5356.50   5
   7   2  -4 24484.9 7527.89  11
   7   2  -4 27033.0 6935.38   8
  -7   2  -4 19874.9 7948.00   4
   7   2  -4 18332.8 6322.58  18
   7  -2   4 47122.3 13717.0   8
   7  -2  -4 12933.2 4652.34  14
   7  -2  -4 12572.4 4935.03   1
  -7  -2   4 12079.5 5620.47   2
   7  -2   4 33927.9 9714.60  14
  -7  -2   5 8243.97 4795.55   2
  -7   2  -5 4873.89 4207.33   5
  -7  -2   5 959.113 1969.24   4
   7  -2  -5 1584.71 1885.30   1
   7  -2  -5 4389.55 3000.21  14
  -7   2   5-725.640 2418.50   5
   7   2  -5 4403.73 3802.23   1
   7   2  -5 4280.61 4169.37  11
  -7   2  -5 3145.92 3099.03   4
   7  -2   5 8545.91 5693.40   1
   7   2  -5 10646.4 4882.25   8
   7  -2   5 4951.10 1429.93   8
   7   2  -5 5622.24 4444.84  18
   7  -2   5 6205.08 3774.26  14
  -7   2  -6 19647.2 6088.31   5
   7  -2  -6 6931.38 5090.12   1
  -7  -2   6 22777.3 7263.12   5
   7   2  -6 42762.4 11656.4   1
  -7  -2   6 22535.6 7741.65   2
   7  -2  -6 13880.4 4819.14  14
   7   2  -6 43936.5 10242.8  11
   7   2  -6 49864.3 8149.74   8
  -7  -2   6 19959.8 6303.28   4
  -7   2  -6 19735.9 8061.20   4
   7  -2   6 42775.6 10271.4   8
   7  -2   6 43647.5 9865.13   1
   7  -2   6 44926.0 10723.3  14
  -7  -2   7 17991.8 10541.9   2
  -7  -2   7 16890.3 9887.83   5
   7   2  -7 32842.1 10253.5   1
   7  -2   7 40757.6 11161.1  14
   7  -2   7 28878.7 9543.32  16
  -7   2  -7 10472.3 6985.08   4
  -7  -2   7 16642.2 7719.98   4
  -7  -2   7 23486.1 6577.80  16
   7  -2   7 38669.2 9806.28   8
   7  -2   8 83540.4 14535.5   8
  -7  -2   8 75319.3 17445.9   2
   7  -2   8 72798.6 12410.6  16
  -7  -2   8 57788.4 12630.7   4
  -7  -2   8 63316.4 8927.83  16
   7   2  -8 92128.7 20198.9   1
   7  -2   9 321.284 967.985  16
   7  -2   9 2462.44 2848.78   8
  -7  -2   9 699.233 455.844  16
  -7  -2   9 1846.34 3217.43   5
  -7  -2   9-4852.71 4877.86   2
   2  -7   9-127.084 2674.51   6
  -7  -2   9 1754.17 3049.89   4
   7   2  -9-2166.64 2743.54   1
   2   7  -9-8347.66 8071.12  18
   7  -2  10 80203.9 14102.2  16
  -7  -2  10 109536. 21108.1   2
   2  -7  10 8539.27 6623.61   6
  -7  -2  10 76224.5 15731.9   5
   7  -2  10 87605.1 14859.0   8
   2   7 -10 56983.1 16142.6  18
  -7  -2  10 100929. 14627.2  16
  -7  -2  10 79760.1 14006.4   4
   7   2 -10 96368.7 19456.4   1
   2   7 -11 26606.0 11563.9  18
   7  -2  11 24456.8 8456.14  16
  -7  -2  11 24387.4 9182.36   5
  -7  -2  11 35451.4 12101.2   2
   7   2 -11 27592.3 11173.9   1
   7  -2  11 25407.2 8032.00   8
  -2   7 -11 16228.0 6553.83  18
  -7  -2  11 24752.3 7879.75  16
  -7  -2  11 27682.4 7723.83   4
   2  -7  11 15894.7 7488.15   6
  -2  -7  11 1115.45 1612.97   6
  -2   7 -12 57587.4 9019.47   4
  -7  -2  12 39133.1 10129.4  16
   7   2 -12 6280.05 3465.66  14
  -7  -2  12 48795.8 10794.0   4
  -7  -2  12 45444.2 12259.3   5
   7   2 -12 32612.1 11487.1   1
  -7  -2  12 47257.0 14322.5   2
   7  -2  12 35796.9 10398.3   8
   7  -2  12 23267.0 4572.41   2
   2  -7  12 22943.8 9213.58   6
   2   7 -12 44202.0 15070.2  18
  -2   7 -12 32149.4 9678.26  18
   7  -2  12 39092.2 10677.4  16
  -2  -7  12 8413.84 3875.04   6
   7  -2  13 53077.1 13288.3  16
  -7  -2  13 44860.4 11311.7   5
  -7  -2  13 45582.1 10984.8  16
   7   2 -13 24549.6 9605.78   1
  -7  -2  13 59946.1 11279.2   4
   2  -7  13 16191.4 4486.18  14
   7  -2  13 32298.1 5688.56   2
   7  -2  13 56181.8 13548.6   8
   2  -7  13 32328.5 11847.6   6
  -2   7 -13 52017.4 12712.3  18
  -7  -2  13 54194.4 13575.7   2
   7   2 -13 10469.6 4689.43  14
  -2  -7  13 12213.8 5015.48   6
   2   7 -13 54375.5 14295.0  18
  -2   7 -13 67047.6 10310.5   4
   7  -2  14 34526.5 10583.0  16
   2   7 -14 63010.9 17091.8  18
  -7  -2  14 35393.6 12190.2   2
  -7  -2  14 23224.7 7416.58  16
   7  -2  14 26617.3 5539.72   2
   7   2 -14 4072.54 2736.85  14
   2  -7  14 19424.1 4521.27  14
   7  -2  14 34477.1 10718.6   8
  -2   7 -14 47401.7 13520.3  18
  -7  -2  14 27908.6 8348.49   5
  -2   7 -14 35996.7 7886.56   4
   7   2 -14 22338.0 10259.5   1
  -7  -2  14 34256.3 8158.67   4
   7  -2  15 48822.2 13194.1  16
  -7  -2  15 23470.5 8761.90  16
   7  -2  15 44692.6 7813.64   2
  -7  -2  15 56542.9 15309.1   2
  -7  -2  15 39385.0 9714.11   5
  -7  -2  15 49447.0 9488.99   4
  -2   7 -15 20421.0 5046.33   4
   2  -7  15 37565.5 6848.65  14
   2   7 -15 56799.4 15734.9  18
   7  -2  15 42314.2 11362.6   8
   7   2 -15 27994.8 11065.1   1
  -2   7 -15 51693.8 12169.4  18
   2  -7  16 27084.6 5673.36  14
   7  -2  16 45617.6 15720.6  16
   7  -2  16 38824.8 7540.02   2
  -2   7 -16 42510.3 10200.0  18
  -7  -2  16 19771.1 8524.69  16
  -2   7 -16 58052.8 14927.5  11
   2   7 -16 47088.1 11643.8  11
  -7  -2  16 41783.3 8573.01   4
  -7  -2  16 26779.1 8010.43   5
   7  -2  16 46144.6 14755.3   8
  -7  -2  16 27657.5 11231.9   2
   7   2 -16 2945.46 2517.83  14
   7   2 -16 14721.5 8940.40   1
   2   7 -16 39799.2 10950.0  18
  -7  -2  17-822.890 1401.73  16
  -7  -2  17 743.677 1948.00   5
   2   7 -17-6503.15 4369.56  18
   7  -2  17-1890.23 3902.98   2
  -2   7 -17 391.890 2313.76  11
   7  -2  17-582.048 7168.24   8
   7   2 -17-5043.90 5282.16   1
  -7  -2  17 1750.83 2150.17   2
  -7  -2  17 3544.02 3013.23   4
   2   7 -17-1525.93 273.551  11
   7  -2  17-276.704 4963.58  16
  -7  -2  18 30629.7 7832.36   5
  -7  -2  18 21796.2 8282.53  16
  -7  -2  18 36882.3 7294.61   4
   2   7 -18 25653.9 12474.6  11
  -2   7 -18 26628.1 9441.06  11
   7  -2  18 17053.3 13650.7  16
  -7  -2  18 37428.6 12502.3   2
   7  -2  18 34194.4 10417.6   8
   7   2 -18 9677.70 6555.80   1
   7  -2  19-124.026 1947.55  16
  -7  -2  19 3200.47 4092.50  16
  -7  -2  19 397.634 3118.44   5
   2   7 -19-2114.04 1019.39  11
   7  -2  19 748.880 5263.64   8
  -7  -2  19 2914.59 3418.20   2
   7   2 -19-505.764 823.935   1
   7  -2  20 13330.3 12618.4  16
  -7  -2  20 9364.84 6472.75  16
   7  -2  20 23840.9 8894.45   8
  -7  -2  20 12915.5 9239.20   2
   7   2 -20 49.0295 2990.54   1
  -7  -2  20 19250.3 6317.29   5
   7  -2  21-932.688 5355.25  16
  -7  -2  21 1380.72 3713.71  16
  -7  -2  21-1036.44 3578.72   5
  -2  -7  21-547.961 1202.11  16
   7  -2  21 8306.47 8819.52   8
  -7  -2  21-148.470 1263.41   2
   2  -7  21-2067.92 3809.72  16
   7   2 -21 1726.22 2742.21   1
   7  -2  22 646.106 7307.94  16
  -7  -2  22 3191.48 5181.77  16
   7   2 -22 2267.09 4367.99   1
  -7  -2  22 12435.5 4774.57   5
   7  -2  22 13817.8 7569.67   8
  -2  -7  22-178.004 1512.43  16
  -7  -2  22 7952.78 10139.2   2
   2  -7  22 9125.81 8021.50  16
   7  -2  23 2078.50 8565.46  16
   7  -2  23-1274.00 4920.83   8
   2  -7  23 524.871 1132.36  16
  -7  -2  23-533.862 3672.81   2
  -7  -2  23-1042.86 2052.17  16
   7   2 -23 1843.16 4167.36   1
  -2  -7  23-2000.10 4512.52  16
   7  -2  24 19236.8 7458.24   8
  -2  -7  24 1718.53 3886.84  16
   7  -2  24 12523.7 11521.8  16
  -7  -2  24 4701.62 6096.33  16
   2  -7  24 3963.13 5955.38  16
  -2  -7  25 2838.89 5498.11  16
   7  -2  25 3168.95 2769.64   8
   7  -2  25 4052.83 8526.29  16
   2  -7  25 1436.75 5172.47  16
   7  -2  26 7006.75 5874.93  16
   7  -2  26 14061.9 5753.02   8
  -2  -7  26 4035.59 5780.88  16
   2  -7  26 3077.35 3924.31  16
  -2  -7  27 7033.44 6447.87  16
   2  -7  27 3818.99 3749.42  16
  -2  -7  28 5667.04 4206.61  16
   2  -7  28 252.030 1131.80  16
   2  -7  29 1380.29 3688.80  16
  -2  -7  29 1897.54 2316.71  16
  -2  -7  30 1811.33 3031.42  16
   2  -7  30 3156.99 5056.70  16
  -2  -7  31 1423.70 2631.46  16
   2  -7  31 118.807 672.748  16
  -2  -7  32 5025.12 5587.88  16
   2  -7  32 887.039 2307.95  16
  -2  -7  33 7989.82 7863.45  16
   2  -7  33 1033.40 2970.97  16
  -2  -7  34-3268.66 3580.42  16
   2  -7  34-712.620 1948.63  16
   2  -7  35 4104.38 8001.82  16
  -2  -7  35 6128.72 6538.80  16
  -2  -7  36-372.656 3723.85  16
   2  -7  36 1366.43 3663.62  16
   2  -7  37 762.732 2265.79  16
  -2  -7  37 1974.42 3082.31  16
   2  -7  38 944.379 4173.06  16
  -7   3   0 78426.2 11508.9   5
   7  -3   0 56593.2 10784.3  14
   7  -3   0 53483.7 10837.7   1
   7   3   0 53067.8 11867.2  18
   7  -3   1 19943.7 5986.07   1
  -7   3  -1 18858.9 5275.45   5
   7  -3   1 18401.2 6534.69  14
   7  -3  -1 15386.6 5243.50  14
  -7   3   1 14423.5 4617.43   5
   7   3  -1 16511.0 7376.82  18
   7  -3  -1 11017.1 5049.53   1
  -7   3  -1 31370.6 9108.18   4
   7  -3   1 20915.2 6659.19   6
  -7   3  -2 41042.6 8549.72   5
   7   3  -2 38154.0 11426.0  18
   7  -3  -2 19459.7 5990.71  14
   7   3  -2 25975.3 6923.55   8
   7  -3   2 36448.8 9002.52   1
   7  -3  -2 12120.1 5443.46   1
  -7   3  -2 52588.0 11962.4   4
   7  -3   2 37236.2 8964.12  14
   7  -3   2 33885.8 9128.78   6
  -7   3  -3 72592.2 14246.1   4
   7  -3   3 65373.5 12166.0   1
   7   3  -3 55234.1 11886.9   8
   7  -3   3 67557.4 13860.5   6
   7   3  -3 61327.3 14621.1  18
  -7   3  -3 65195.1 11405.5   5
   7  -3   3 64103.1 12279.7  14
   7  -3   4 1691.65 2587.97  14
  -7   3  -4 1343.84 2545.75   5
   7  -3   4 1359.73 2622.58   1
   7   3  -4-7086.01 7191.98  18
   7  -3   4-948.345 2756.42   6
  -7   3  -4-537.415 1368.37   4
   7   3  -4-146.271 2028.13   8
   7   3  -5 21505.7 8234.66  18
   7  -3   5 26492.5 8283.50   8
   7  -3   5 26202.8 7619.46  14
  -7   3  -5 28741.5 9195.81   5
   7   3  -5 23987.6 6955.84   8
  -7   3  -5 27439.4 10784.8   4
   7  -3   5 33497.5 9533.06   1
   7  -3   5 30362.7 9647.87   6
   7   3  -6 14058.9 6068.61  18
  -7   3  -6 21802.2 8934.04   5
   7  -3   6 39950.4 11764.7   1
   7  -3   6 36659.0 11426.6   6
   7  -3   6 32764.3 11525.2   8
   7   3  -6 21102.7 6458.24   8
  -7   3  -6 21018.6 8046.50   4
   7  -3   6 20915.9 9096.85  14
   7  -3   7 64075.3 13415.5  14
   7  -3   7 80887.5 14425.7   1
   7   3  -7 61031.4 13580.4  11
   7   3  -7 75305.1 10883.0   8
   7  -3   7 61385.0 12801.2   8
   7   3  -7 49188.7 11571.9  18
  -7   3  -7 43624.9 13125.4   4
  -7  -3   7 68944.4 17465.0   2
  -7   3  -7 45258.7 11244.4   5
  -7   3  -8 4331.64 775.900   5
   7   3  -8 9904.40 4857.88   1
   7  -3   8 10312.9 4359.44  14
  -7   3  -8 6697.34 3399.44   4
   7   3  -8 12373.4 5809.88  18
   7   3  -8 13951.2 3778.84  11
   7  -3   8 12871.1 5876.52   8
   7  -3   8 13310.6 5398.66   1
   7   3  -8 14833.8 4543.00   8
  -7  -3   8 11039.6 6307.94   2
   3  -7   8 1180.21 2937.96   6
  -7   3  -9 51005.1 11847.0   4
   7   3  -9 82489.8 16646.1   1
   7  -3   9 142468. 18731.5  14
   7   3  -9 131651. 20926.2  11
   7  -3   9 137196. 18261.7   8
  -7  -3   9 85744.4 16540.9   2
   3   7  -9 61194.6 16567.4  18
   7  -3   9 102039. 16383.9  16
   3  -7   9 10238.3 7456.86   6
   3   7 -10-4363.11 6007.68  18
  -7  -3  10 7028.95 5105.41   2
  -3  -7  10 1542.19 2893.94   6
  -7  -3  10 2836.11 3767.07   4
  -7  -3  10 1870.23 1861.10   5
   7  -3  10 2856.96 1714.95  16
   7  -3  10 6401.86 3010.53   8
   7   3 -10 3246.47 2285.66   1
  -7  -3  10 3922.42 2830.93  16
   3  -7  10-763.113 3363.96   6
  -7  -3  11 18944.3 6646.32   5
   7  -3  11 32862.7 9543.90  16
  -7  -3  11 30705.9 10190.1   2
  -7  -3  11 19639.6 6102.64   4
   7  -3  11 49167.5 10260.6   8
   7   3 -11 28483.6 9678.06   1
  -3   7 -11 21577.4 7070.18  18
   3   7 -11 40129.9 14048.2  18
  -3  -7  11 4196.04 4014.66   6
  -7  -3  11 38707.2 8672.00  16
   3  -7  11 8982.72 7819.35   6
  -3   7 -12 37711.9 9295.67  18
  -3  -7  12 4747.23 4104.64   6
   3  -7  12 15898.5 5053.85  14
  -7  -3  12 17227.9 5447.47   4
  -3   7 -12 79238.4 11824.9   4
   7  -3  12 53136.8 11258.7   8
  -7  -3  12 44336.2 9407.54  16
   7  -3  12 40621.8 10675.8  16
   3   7 -12 56007.8 16453.6  18
   7   3 -12 35198.0 11741.3   1
  -7  -3  12 34107.9 10406.6   2
   3  -7  12 12299.3 10438.2   6
  -7  -3  12 25117.7 7622.02   5
   7  -3  13 38428.6 10523.4  16
  -7  -3  13 39446.4 9148.86  16
  -7  -3  13 24785.4 8226.61   5
  -3   7 -13 48789.6 11549.2  18
  -3   7 -13 63223.7 11540.6   4
  -7  -3  13 32318.5 10081.9   2
  -7  -3  13 17983.7 5192.87   4
   3  -7  13 25240.9 6252.08  14
   3   7 -13 44690.0 13146.3  18
   7  -3  13 38390.5 8596.42   8
   7   3 -13 23534.6 8625.34   1
   3  -7  13 10099.5 9415.82   6
  -3   7 -13 36184.2 4088.96   5
   7  -3  14 38326.8 9930.09  16
  -7  -3  14 28252.8 8665.49   5
  -3   7 -14 67469.6 12009.4   4
  -7  -3  14 43711.1 13466.7   2
  -7  -3  14 28867.2 6783.67   4
  -7  -3  14 47040.7 10206.1  16
   3  -7  14 37747.0 7412.07  14
   7   3 -14 27717.4 11299.6   1
   3   7 -14 76673.2 20164.8  18
   7  -3  14 50955.1 10673.5   8
  -3   7 -14 74626.0 15528.3  18
   7  -3  15 16143.7 6565.77  16
  -7  -3  15 21264.9 7078.06  16
  -7  -3  15 16574.9 6967.99   5
  -7  -3  15 22576.7 9077.42   2
   3   7 -15 29675.5 10751.1  18
   7  -3  15 26286.8 7904.66   8
  -3   7 -15 11895.6 3642.38   4
  -7  -3  15 12876.5 4886.18   4
  -3   7 -15 22375.2 7242.13  18
   3  -7  15 21529.3 5704.10  14
   7   3 -15 11132.8 5215.34   1
   7  -3  16 24340.3 9421.75  16
  -7  -3  16 20248.8 6587.21  16
  -7  -3  16 10791.2 4492.60   5
   3  -7  16 11644.6 3649.73  14
   3   7 -16 18589.3 7387.30  11
  -3   7 -16 21794.8 8354.67  11
  -7  -3  16 8844.16 6369.19   2
  -7  -3  16 10939.5 4934.64   4
  -3   7 -16 21085.9 7147.70  18
   7  -3  16 31544.6 9900.20   8
   7   3 -16 12517.7 7579.20   1
   3   7 -16 29637.3 10902.0  18
   7  -3  16 16457.0 6098.15   2
   7   3 -17 17951.7 8783.84   1
   7  -3  17 10551.4 10229.9  16
  -7  -3  17 16581.1 9420.21  16
  -3   7 -17 42035.6 11979.5  11
  -7  -3  17 28264.2 8631.90   5
  -7  -3  17 34451.9 11526.8   2
  -7  -3  17 25135.0 6653.37   4
   7  -3  17 37522.6 9458.59   8
   3   7 -17 27863.5 9320.29  18
   3   7 -17 33963.2 12320.7  11
   7   3 -18-1552.49 3841.48   1
   7  -3  18 3223.77 5888.36  16
  -7  -3  18-121.761 2173.95   2
  -7  -3  18 2276.40 2534.20   5
   3   7 -18 2813.07 1492.31  11
  -3   7 -18 5543.10 5258.48  11
   7  -3  18 4066.86 778.260   8
  -7  -3  18-2071.55 2925.24  16
   7  -3  19 16628.9 11824.8  16
  -7  -3  19 27749.4 11371.1  16
  -7  -3  19 28588.7 9065.76   5
   7  -3  19 30728.0 9155.18   8
   7   3 -19 3952.36 6650.71   1
  -7  -3  19 12838.7 15534.6   2
   7  -3  20 3831.92 6848.15  16
  -7  -3  20 2487.55 4279.43   5
   7   3 -20 1851.26 7358.34   1
  -7  -3  20 1451.79 6153.65   2
  -7  -3  20 12018.5 6866.76  16
   7  -3  20 4927.95 4703.24   8
   7  -3  21 6619.60 8587.16  16
  -7  -3  21 6998.00 5986.90  16
   7   3 -21 886.919 6357.30   1
   7  -3  21 12713.4 6141.34   8
   3  -7  21 2211.30 5039.33  16
  -7  -3  21 11598.8 4616.09   5
  -7  -3  21 5533.08 8628.89   2
   3  -7  22 197.945 1741.36  16
   7  -3  22 2994.47 6328.54  16
  -7  -3  22 3973.85 4864.87  16
   7   3 -22 643.347 5067.65   1
  -7  -3  22 1320.08 3509.59   2
  -3  -7  22 4114.36 5748.59  16
   7  -3  22 752.082 522.496   8
   7  -3  23 8734.35 10539.6  16
  -7  -3  23 16675.5 10057.2   2
  -7  -3  23 19968.9 10283.6  16
   7  -3  23 18643.5 7223.98   8
   7   3 -23 4108.31 1625.32   1
   3  -7  23 3313.28 5227.25  16
  -3  -7  23 5734.40 4801.39  16
  -3  -7  24 9102.44 5055.62  16
   7  -3  24 2041.01 7245.21  16
  -7  -3  24 2846.76 3887.24  16
   7   3 -24-1480.29 4637.69   1
   7  -3  24 6492.00 6572.14   8
   3  -7  24 4717.49 4175.07  16
  -7  -3  24-3653.46 4826.48   2
   7  -3  25 6956.62 10467.2  16
  -7  -3  25 2918.02 4887.19  16
  -7  -3  25 704.099 5122.43   2
  -3  -7  25 8387.28 4673.07  16
   7  -3  25 15674.5 5676.28   8
   3  -7  25 1473.27 3022.75  16
   7  -3  26 5771.93 9497.77  16
  -7  -3  26 9473.91 5374.11  16
   7  -3  26 19760.5 6749.25   8
  -7  -3  26-2786.90 8898.89   2
   3  -7  26 19614.5 16984.6  16
  -3  -7  26 5308.35 4728.35  16
   7  -3  27 2758.31 6591.55  16
  -7  -3  27 7574.88 7070.24  16
  -7  -3  27 91.7121 2201.63   2
  -3  -7  27 13751.3 7429.46  16
   3  -7  27 1156.11 2449.13  16
   7  -3  28 8312.36 8913.09  16
   3  -7  28 4865.74 6362.61  16
  -3  -7  28 4186.44 2309.36  16
   7  -3  29-1815.28 8214.23  16
   3  -7  29 3963.92 5550.39  16
  -3  -7  29 1721.55 2660.17  16
   3  -7  30 4676.39 5628.36  16
  -3  -7  30 31458.8 12628.1  16
  -3  -7  31 6818.86 5272.94  16
   3  -7  31-120.312 2782.81  16
   3  -7  32 331.720 3417.88  16
  -3  -7  32 2242.31 3120.17  16
  -3  -7  33 1019.29 6732.51  16
   3  -7  33 754.800 2013.10  16
   3  -7  34 35.1059 2072.19  16
  -3  -7  34-809.486 3428.80  16
  -3  -7  35-1229.12 2763.05  16
   3  -7  35-14596.9 7466.83  16
   3  -7  36 1843.65 2117.62  16
  -3  -7  36 2665.52 4280.68  16
  -3  -7  37 5622.22 8819.85  16
   3  -7  37-1440.25 4970.88  16
   7  -4   1 28419.6 7757.96  14
   7   4  -1 24574.6 7490.00  18
   7  -4   2 4986.32 2492.73   1
   7  -4   2 4200.38 2774.99  14
  -7   4  -2 7235.75 2211.31   5
   7  -4   2 952.846 2692.36   6
   7  -4   3 8467.36 5130.24   6
   7   4  -3 9128.60 5888.03  18
  -7   4  -3 7091.60 3275.51   4
   7  -4   3 5581.04 3561.14   1
  -7   4  -3 9876.72 3770.62   5
   7  -4   3 6296.36 3400.10  14
   7   4  -4 21742.9 9163.48  18
  -7   4  -4 24147.9 8256.14   4
   7  -4   4 19654.0 7289.93  14
   7  -4   4 18942.4 8241.37   6
  -7   4  -4 19728.3 5504.22   5
   7  -4   4 22003.4 7299.04   1
   7   4  -4 12032.1 5176.15   8
   7   4  -5 4193.71 6519.56  18
   7  -4   5 8024.99 6737.84   6
   7  -4   5 1143.79 2537.19   1
  -7   4  -5 793.166 2307.65   5
   7  -4   5 2179.69 4028.58  14
  -7   4  -5-2432.06 4342.34   4
   7   4  -5 2881.41 3477.99   8
  -7   4  -6 22565.2 7637.89   5
   7  -4   6 15893.0 6123.84  14
   7  -4   6 18296.8 6604.37   1
   7   4  -6 17950.4 8370.09   8
  -7   4  -6 26957.5 9795.51   4
   7   4  -6 16465.0 11046.5  18
   7  -4   6 15327.5 7082.55   6
  -7   4  -7 26239.5 7688.95   5
   7   4  -7 24003.8 10225.0  18
   7  -4   7 38442.8 10813.1   1
   7  -4   7 31507.8 9526.66  14
   7  -4   7 37537.7 12490.4   6
   7   4  -7 26073.8 6386.47   8
  -7   4  -7 29662.7 11523.6   4
  -7   4  -8 45179.7 11463.7   5
   7  -4   8 51405.0 11558.5  14
   7  -4   8 73842.0 17280.7   6
   4   7  -8 22188.7 10134.9  18
  -7   4  -8 52709.4 14662.4   4
   7   4  -8 44887.1 11939.6  18
   4  -7   8 2258.77 3526.92   6
   7   4  -8 60479.8 9615.59   8
   7  -4   8 79171.9 14469.7   1
  -7   4  -9 32.5004 906.819   5
   7   4  -9-1486.10 2142.77  11
   7  -4   9 3309.37 4591.12  14
   7  -4   9-168.090 2052.79   1
  -7   4  -9 1138.14 2180.83   4
   4   7  -9 157.678 2644.34  18
   7   4  -9 272.491 308.787   8
   7  -4   9-23.1052 3166.76   8
   7   4  -9 5220.02 4303.57  18
   4  -7   9 582.420 1177.02   6
   4   7 -10 41143.0 13223.8  18
  -7  -4  10 25889.0 8518.40   2
   7   4 -10 51637.3 13884.7  11
   7  -4  10 52616.1 11417.9   8
  -7   4 -10 26376.9 8821.93   4
   7   4 -10 43814.4 11439.4  18
   7  -4  10 60533.7 12575.9  14
   4  -7  10 21138.2 10200.5   6
  -4  -7  10 2805.40 3494.28   6
  -7  -4  11 9516.90 5711.56   2
   4   7 -11 23878.3 11493.5  18
   7  -4  11 19969.4 6578.81  14
  -4  -7  11 3142.12 3391.03   6
   4  -7  11 6790.36 3811.84  14
  -4   7 -11 6900.95 1525.01  18
   7   4 -11 21520.1 8638.26  11
  -7   4 -11 6933.75 4862.05   4
   4  -7  11 3538.82 5542.25   6
   7  -4  11 23596.8 7386.92   8
  -4   7 -11 28847.8 7360.42   4
  -7  -4  12 4877.86 4262.94   2
   7  -4  12 2628.99 372.171  16
  -4   7 -12 10577.4 2590.13   5
   4  -7  12 8307.34 3471.65  14
   4   7 -12 25091.8 12906.5  18
  -4   7 -12 9454.05 4718.62  18
  -4  -7  12 5776.98 4649.58   6
   7  -4  12 11814.5 3706.94   8
  -7  -4  12 3879.74 2565.80  16
  -4   7 -12 17669.7 6253.82   4
   4  -7  12 3723.88 4891.17   6
   7   4 -13 42645.2 12236.1   1
  -7  -4  13 38189.2 11448.3   2
   4  -7  13 54262.9 9711.38  14
  -4   7 -13 98835.9 16186.9   4
   7  -4  13 74763.7 12514.9   8
  -7  -4  13 63551.9 11326.2  16
   4  -7  13 60634.6 15360.1   6
   7  -4  13 69374.0 15282.2  16
   4   7 -13 122054. 25862.9  18
  -4   7 -13 93762.6 15591.0  18
  -7  -4  14 5383.63 4841.01   2
   7   4 -14-63.1028 1989.25   1
  -4   7 -14 14586.3 6252.10   4
   7  -4  14 8333.05 4469.97   8
  -4   7 -14 16555.3 6342.17  18
   4   7 -14 15123.7 9711.59  18
   4  -7  14 6985.83 3798.18  14
  -7  -4  14 8275.14 4766.71  16
   7  -4  14 10299.4 5140.11  16
   7   4 -15 8808.22 4813.56   1
  -7  -4  15 9678.58 7629.50   2
  -4   7 -15 33058.2 8243.21  18
   4  -7  15 26436.5 7183.42  14
  -4   7 -15 14224.8 5829.01   4
   7  -4  15 31162.5 8170.23   8
   4   7 -15 29368.3 11775.9  18
  -7  -4  15 31204.3 12742.8  16
   7  -4  15 29001.6 9795.74  16
  -7  -4  16 6861.05 4799.25  16
   4  -7  16 9301.78 5256.23  14
  -4   7 -16 13951.5 6354.20  11
   4   7 -16-1820.33 5713.90  11
  -7  -4  16 6933.43 3134.65   2
   7  -4  16 9205.31 5433.01   8
  -4   7 -16 15654.7 4735.34  18
   7   4 -16 2133.88 2766.60   1
   4   7 -16 20438.2 8660.46  18
   7  -4  16 5061.56 4432.50  16
   7  -4  17 5490.78 7085.01  16
  -7  -4  17-361.104 1848.68  16
   7   4 -17-6700.48 5724.03   1
   4   7 -17-4480.38 3789.91  18
  -7  -4  17-151.813 361.896   2
   4   7 -17-1334.82 7343.90  11
  -4   7 -17-463.857 2017.45  11
   7  -4  17 2598.35 3337.02   8
   7  -4  18 2324.89 5758.65  16
  -7  -4  18 4036.11 3627.47  16
  -7  -4  18 8033.64 5137.72   2
   7   4 -18-127.656 2516.26   1
   7  -4  18 6019.89 5534.24   8
   4   7 -18 6333.01 6721.11  11
   7  -4  19 143.400 1515.38  16
  -7  -4  19-7405.07 4998.82  16
  -7  -4  19-1543.32 6033.53   2
   7   4 -19-1435.22 3704.80   1
   7  -4  19-451.366 1561.88   8
   7  -4  20 1513.13 425.639  16
  -7  -4  20 5331.54 4561.03   5
   7   4 -20-1040.25 4371.57   1
  -7  -4  20-1023.33 4222.95  16
   7  -4  20 7046.63 4715.69   8
  -7  -4  20-323.150 1171.90   2
  -7  -4  21-431.090 1245.20   5
   7  -4  21-684.634 2958.73  16
  -7  -4  21-241.989 2552.39  16
   7   4 -21-1323.62 3490.33   1
  -7  -4  21-1396.27 3796.86   2
   7  -4  21-2265.30 1974.73   8
   7  -4  22-1168.99 4937.75  16
  -7  -4  22 438.721 3466.50  16
  -7  -4  22 1453.04 4188.29   2
   7   4 -22 305.705 5494.27   1
   7  -4  22 1209.53 2791.11   8
   4  -7  22 379.180 2150.68  16
   7  -4  23-1554.83 2410.39  16
  -7  -4  23 2907.98 2317.59  16
  -7  -4  23-265.105 4152.71   2
   7   4 -23 1000.24 4268.26   1
   7  -4  23-1571.60 1406.53   8
   4  -7  23-2260.14 2656.47  16
  -4  -7  23 458.941 2394.06  16
   7  -4  24 1982.87 1689.61  16
  -7  -4  24 1381.27 7527.57   2
   7  -4  24 950.212 2194.92   8
  -4  -7  24 1639.77 3225.15  16
  -7  -4  24-822.125 3923.55  16
   4  -7  24 2620.46 3464.48  16
   7  -4  25 2907.72 3523.35   8
  -7  -4  25 4750.29 9757.74   2
  -7  -4  25 3927.46 3440.78  16
   7  -4  25-51.9624 3864.14  16
  -4  -7  25-3804.30 4451.42  16
   4  -7  25 6101.11 7282.16  16
   7  -4  26 116.869 5151.54  16
  -7  -4  26 4798.48 11466.9   2
   4  -7  26-3698.76 8193.97  16
  -4  -7  26-4178.85 4102.63  16
  -7  -4  26 1254.46 3121.18  16
  -4  -7  27 12948.8 6262.52  16
  -7  -4  27 3589.19 9648.66   2
   7  -4  27 6814.07 6168.44  16
   4  -7  27 3053.91 8398.71  16
  -7  -4  27 3936.41 5023.22  16
  -7  -4  28 2000.88 8290.43   2
  -4  -7  28 8953.71 6271.66  16
   4  -7  28 2066.78 4281.36  16
   7  -4  28 3840.44 5255.11  16
  -7  -4  28-6628.01 5148.79  16
   7  -4  29 3266.48 843.233  16
  -7  -4  29 3394.19 3258.35  16
   4  -7  29 1011.63 3900.96  16
  -7  -4  29-2439.78 2715.07   2
  -4  -7  29 9698.22 7195.01  16
   7  -4  30 5837.18 5703.29  16
   4  -7  30 532.474 3518.03  16
  -4  -7  30 8711.77 7082.67  16
   7  -4  31-1102.13 2444.80  16
  -4  -7  31-525.004 1568.06  16
   4  -7  31 1685.30 5874.88  16
   4  -7  32 1664.06 4864.72  16
  -4  -7  32-1117.79 3399.80  16
  -4  -7  33 1768.28 2600.27  16
   4  -7  33-241.757 2219.00  16
   4  -7  34-186.036 3785.37  16
  -4  -7  34-1959.27 1047.08  16
  -4  -7  35 830.239 3612.69  16
   4  -7  35 1248.03 4904.71  16
   4  -7  36-2267.68 1707.49  16
  -4  -7  36 1796.44 5039.28  16
   4  -7  37 2442.01 1334.31  16
   7   5  -3 636.902 3082.16  18
   7  -5   4-137.202 2240.94  14
   7   5  -4-1196.77 2970.78  18
  -7   5  -4 2929.00 1964.58   4
   7  -5   4-1437.29 2884.94   6
  -7   5  -5 2571.86 626.711   5
   7  -5   5 701.714 1413.04   6
   7  -5   5-1159.86 3185.25  14
   7  -5   5-387.002 291.021   1
  -7   5  -5-53.1080 2315.38   4
   7   5  -5 1270.10 517.255  18
  -7   5  -6 5325.92 2886.84   5
   7  -5   6 6305.70 3424.65   1
   7   5  -6 7402.09 6438.91  18
  -7   5  -6 9224.31 4645.38   4
   7  -5   6 7101.11 5365.65  14
   7  -5   6 10390.7 6013.58   6
   7  -5   7-1603.83 3341.91   6
   7   5  -7 807.466 4999.48  18
  -7   5  -7 2172.59 3140.11   5
   7  -5   7-58.1655 1886.23  14
   7  -5   7 2767.77 3403.66   1
   5   7  -7-3544.82 5290.96  18
   7   5  -7 979.306 2542.33   8
  -7   5  -7 1768.81 1693.86   4
   7  -5   8 8308.73 5954.34  14
   7  -5   8 8027.01 3497.91   1
   7   5  -8 3770.75 1209.35   8
  -7   5  -8 4836.96 3628.03   4
   5   7  -8 3697.18 5380.45  18
   7   5  -8 9967.30 7321.50  18
  -7   5  -8 11889.0 5654.12   5
   7  -5   8 5365.12 3139.33   6
   5  -7   8 419.534 3419.66   6
   7  -5   9 12786.2 5875.83  14
  -7   5  -9 15702.8 5607.40   5
   5  -7   9 8764.79 5814.50   6
   7   5  -9 13943.9 7865.38  18
   7  -5   9 21522.1 7031.17   1
  -7   5  -9 17444.5 7879.36   4
   5   7  -9 13133.1 6272.33  18
   7  -5   9 27278.1 11480.2   6
   7   5  -9 18597.3 5550.26   8
  -5   7 -10 5352.70 2564.05   4
   5  -7  10 902.567 1538.30  14
   5   7 -10 127.509 1921.70  18
  -5  -7  10-655.386 984.394   6
   7  -5  10 4957.04 3009.68  14
  -7   5 -10 5621.98 1821.57   4
   7   5 -10 6353.70 2693.55   8
   7  -5  10 10395.3 5381.86   1
   7   5 -10 9940.43 7137.37  18
  -7   5 -10 4129.82 2517.46   5
   5  -7  10 3865.29 4752.71   6
  -7   5 -11 566.938 1859.69   5
   7  -5  11 2278.33 2358.04  14
   5  -7  11-764.413 2344.06  14
   7   5 -11-2331.93 5311.68  11
  -7   5 -11-708.577 1065.70  11
  -7   5 -11-162.007 1500.19   4
   5   7 -11 4343.42 6343.70  18
   7   5 -11 3602.09 3698.14  18
  -5   7 -11 1414.82 2020.89   4
   7  -5  11-1782.87 1503.29   1
  -5   7 -11 454.382 1058.89   5
  -5  -7  11-1040.45 1242.30   6
   5  -7  11-289.079 5319.79   6
  -5   7 -12 38958.7 6404.70   5
   7   5 -12 23126.8 8243.61  18
   7  -5  12 37009.0 9536.66  14
   5  -7  12 22209.6 6670.83  14
   5  -7  12 13593.9 3484.38   1
  -5   7 -12 58418.4 12937.4   4
   7   5 -12 33389.0 11019.6  11
   5   7 -12 41259.2 17219.7  18
   5  -7  12 27426.6 10744.0   6
  -7   5 -12 18011.3 7368.62   4
  -5   7 -12 26163.3 7417.56  18
   5   7 -13 15543.9 8507.43  18
  -5   7 -13 1810.22 927.862  18
  -5   7 -13 4384.58 4892.89   4
   5  -7  13-1379.80 2912.36  14
  -7   5 -13-2668.79 4174.14   4
   7   5 -13 4329.92 4145.05  11
   7  -5  13-755.502 1344.96  14
   5  -7  13 5167.31 10684.7   6
   7   5 -13-806.083 2221.21  18
   7  -5  14 32441.1 8715.97   8
   5   7 -14 40689.6 13715.3  18
  -7  -5  14 19378.7 11669.7   2
   7   5 -14 31559.4 11677.9  11
  -5   7 -14 40323.8 11403.7   4
   5  -7  14 27346.6 7753.22  14
  -5   7 -14 45924.4 9580.28  18
   5  -7  15 193.691 1298.89  14
  -5   7 -15 5086.77 4216.76  11
   5   7 -15-9053.69 8783.17  11
   5   7 -15 1080.42 1383.46  18
   7  -5  15-1250.53 2536.68   8
  -5   7 -15 537.471 1677.82   4
   7  -5  15-1481.97 4656.76  16
  -7  -5  15-4689.48 6399.54   2
   5   7 -16 4686.92 3884.11  11
   7  -5  16 3763.21 3354.01   8
  -5   7 -16 7735.44 5157.23   4
  -5   7 -16 11819.7 6002.24  11
   5   7 -16 5451.38 6067.72  18
  -7  -5  16 2047.73 4971.26  16
   7  -5  16 773.687 1511.96  16
   5  -7  16 5667.26 2505.17  14
  -7  -5  16 2893.54 2458.73   2
  -7  -5  17-496.143 2971.44   2
   7  -5  17 335.916 859.937   8
   5   7 -17 1144.59 1585.64  11
   5   7 -17 631.650 3414.97  18
  -7  -5  17 653.627 672.488  16
   7  -5  17 644.420 2761.56  16
   5  -7  17-405.515 2340.54  14
  -7  -5  18 577.745 3806.06   2
   5   7 -18 64.3122 5735.36  11
   7  -5  18 770.760 3238.32   8
  -7  -5  18 303.712 2629.93  16
   7  -5  18 580.607 3897.55  16
  -7  -5  19-247.384 2952.10   2
  -7  -5  19 2460.26 2733.68  16
   7  -5  19 2179.31 2995.02   8
   7  -5  19 559.536 2496.49  16
  -7  -5  20 1253.70 4645.13   2
   7  -5  20 933.044 3394.96  16
  -7  -5  20 1103.06 1460.37  16
   7  -5  20 1329.01 1933.09   8
  -7  -5  21 1671.79 3129.81   2
   7  -5  21-16.1717 1395.28   8
   7  -5  21-422.648 1911.35  16
  -7  -5  21 1283.76 1814.85  16
  -7  -5  22-480.013 2494.99   2
   7  -5  22 1129.16 2329.69   8
   7  -5  22 2879.86 1709.10  16
  -7  -5  22 1621.42 3088.91  16
  -7  -5  23-2151.32 6331.24   2
   7  -5  23-1934.00 2904.24  16
   5  -7  23-749.298 4884.24  16
   7  -5  23-2229.86 1887.14   8
  -7  -5  23 4201.41 3708.29  16
  -7  -5  24-130.638 1797.79   2
   5  -7  24 1383.85 1813.50  16
   7  -5  24-1216.03 2089.70   8
  -5  -7  24 2830.93 3360.30  16
   7  -5  24-1465.00 2141.80  16
  -7  -5  25 987.618 1085.15   2
  -5  -7  25-3129.25 2527.34  16
   7  -5  25 109.652 3279.39  16
   7  -5  26 3217.83 6145.97  16
  -7  -5  26 9887.39 5965.31  16
  -7  -5  26 3850.18 6298.40   2
  -5  -7  26 3246.27 2895.06  16
   5  -7  26 893.085 2868.46  16
   7  -5  27 2328.52 6915.97  16
  -7  -5  27 5281.90 4016.20  16
  -7  -5  27-3354.15 2611.91   2
  -5  -7  27-1423.59 2532.95  16
   5  -7  27 595.434 1466.11  16
   7  -5  28 2103.29 5506.60  16
  -7  -5  28 8529.37 6111.20  16
  -7  -5  28-51.2987 3976.69   2
  -5  -7  28 9895.64 5158.45  16
   5  -7  28 7796.26 5448.89  16
   7  -5  29-6389.90 5004.37  16
   5  -7  29-6297.85 5460.99  16
  -7  -5  29-2925.14 5214.10   2
  -7  -5  29-202.340 2351.14  16
   7  -5  30-964.246 3219.17  16
  -7  -5  30 5796.62 4876.96  16
   5  -7  30 4621.35 6459.94  16
  -7  -5  30 210.249 3743.16   2
  -5  -7  30-3157.06 3676.01  16
   7  -5  31 846.161 4845.50  16
  -7  -5  31 871.811 2863.60  16
  -7  -5  31-195.289 1458.77   2
   5  -7  31 2466.86 3921.41  16
  -5  -7  31 4520.09 4173.34  16
   7  -5  32 920.568 4375.51  16
  -7  -5  32 462.512 3438.71   2
   5  -7  32 4792.99 6663.89  16
  -5  -7  32-740.717 3970.95  16
  -5  -7  33 11272.0 6160.47  16
   5  -7  33-1908.68 5215.65  16
   7  -5  33 2278.56 3823.09  16
   5  -7  34 551.509 2556.30  16
  -5  -7  34 2303.76 1498.73  16
   7  -5  34 176.000 3175.73  16
   5  -7  35-2762.40 4514.30  16
  -5  -7  35 1428.28 6110.02  16
   5  -7  36-301.606 6370.41  16
  -5  -7  36-626.713 2510.65  16
   5  -7  37 2279.28 1454.83  16
   7   6  -4 3834.14 3272.68  18
   7   6  -5 1858.87 2101.24  18
   7  -6   5 439.526 4085.41   6
   7   6  -6-44.7286 4834.18  18
  -7   6  -6 1940.73 2840.89   4
   6   7  -6 7519.54 7404.72  18
   7  -6   6 1239.01 2761.38  14
   7  -6   6 3542.77 3472.26   6
   7  -6   7 6681.80 2816.13   1
   7   6  -7 23948.8 11650.0  18
  -7   6  -7 19103.1 5557.85   5
   7  -6   7 8647.86 5203.22  14
   6   7  -7 10881.4 6191.84  18
  -7   6  -7 29035.7 9837.15   4
   7  -6   7 8937.96 7487.34   6
   6  -7   7 1138.31 1739.90   6
  -7   6  -8-2608.57 3702.34   4
   7   6  -8-1025.58 1998.05  18
   7  -6   8-44.9643 1655.46   1
   6   7  -8 1703.02 2549.93  18
   7  -6   8-1559.73 2835.07  14
  -7   6  -8-639.873 2745.08   5
   7  -6   8 3146.12 4950.97   6
   6  -7   8-4568.75 5979.63   6
   7  -6   9 2795.56 2952.93   1
   6   7  -9 1845.02 2314.81  18
   7   6  -9-959.290 2853.98  18
   7   6  -9 515.964 1965.75   8
   7  -6   9-1388.54 5382.69   6
   7  -6   9 1766.35 2770.49  14
  -7   6  -9-62.8415 562.530   5
  -7   6  -9 616.829 3258.70   4
  -6   7  -9-1634.54 3429.14   4
   6  -7   9 1570.13 6277.25   6
   6  -7  10 4271.75 4582.82   6
  -6  -7  10 1277.87 1751.40   6
   7  -6  10-311.308 2065.03   1
  -6   7 -10-771.803 1417.69   5
   7  -6  10-649.992 3965.31   6
  -7   6 -10 99.3365 1988.31   5
   6  -7  10 115.210 1935.18  14
   6   7 -10 5764.60 6290.27  18
   7   6 -10-48.9735 2739.71   8
   7  -6  10 3280.04 2236.04  14
  -7   6 -10 1353.33 4754.65   4
  -6   7 -10 1691.83 3772.05   4
   7   6 -10-10448.1 8714.72  18
   7   6 -11 3580.14 4886.22  18
  -7   6 -11 7232.31 4717.05   5
   7  -6  11 6630.63 4616.24   1
  -6   7 -11 4299.43 2585.14   5
   6  -7  11 1998.43 2249.24  14
  -7   6 -11 6935.43 5584.44   4
   7   6 -11 7120.64 3236.06   8
   6  -7  11 1599.99 870.496   1
   6   7 -11-1159.81 7121.29  18
   7  -6  11 4745.46 2201.86   6
   7  -6  11 1116.70 2529.52  14
  -6   7 -11 3576.64 2614.10   4
  -6  -7  11 3253.71 2385.96   6
   6  -7  11-2248.83 746.450   6
  -7   6 -12-1141.51 1647.14   5
   7   6 -12 58.1197 2027.67  18
   6  -7  12-2502.56 4228.48  14
   7  -6  12 712.641 740.534   1
  -6   7 -12 4088.87 2042.13  18
   7  -6  12 717.816 1461.05  14
  -6   7 -12 4562.59 1874.13   5
  -7   6 -12 744.710 2730.78   4
  -6   7 -12 1555.42 2817.29   4
   6  -7  12 663.614 754.301   1
   6   7 -12 10923.8 8962.12  18
   6  -7  12 3401.28 5806.03   6
   6   7 -13 24622.2 10255.8  18
   6  -7  13 22772.6 7288.95  14
  -6   7 -13 31256.5 10418.1   4
   7   6 -13 19033.1 10257.6  11
  -7   6 -13 12711.0 6977.81   4
   6  -7  13 22337.8 10888.6   6
   7   6 -13 33427.4 12420.5  18
   7  -6  13 27324.3 8343.44  14
   7   6 -14-3256.90 7313.49  11
   7  -6  14 148.347 2939.50  14
  -7   6 -14 4385.53 4445.60   4
  -6   7 -14 2504.27 2175.88   4
   6  -7  14 2.42841 969.191  14
   7   6 -14-2258.25 2354.54  18
   6   7 -14-5794.39 5649.39  18
   7  -6  15 372.085 5153.38  14
   6   7 -15 9432.95 5974.87  18
  -6   7 -15 5000.74 4140.29   4
   6   7 -15 8337.41 4971.60  11
  -6   7 -15 16110.4 5830.64  11
   7   6 -15 5146.09 3286.55  11
   6  -7  15 2014.15 3980.84  14
   7   6 -16 495.564 7825.36  11
   6   7 -16-2747.52 4865.61  11
  -6   7 -16 1716.29 2336.58   4
   6   7 -16 3742.60 4270.75  18
   6  -7  16 289.913 5227.74  14
   6  -7  17 237.821 331.924  14
   6   7 -17-45.6938 6369.06  11
   6   7 -17 165.360 1224.81  18
   6   7 -18 3342.66 5801.20  11
  -7  -6  20-986.018 1987.30   2
   7  -6  20 1378.85 2520.82  16
  -7  -6  21 2008.20 3405.74  16
   7  -6  21-291.058 1701.93  16
  -7  -6  21-514.183 3440.14   2
  -7  -6  22-304.051 2256.08  16
   7  -6  22 1686.34 4295.70  16
  -7  -6  22 1030.49 3917.37   2
  -7  -6  23 4962.14 5038.26  16
   7  -6  23 287.153 2340.40   8
   7  -6  23-287.345 4254.38  16
  -7  -6  23-4268.66 6805.44   2
  -7  -6  24 4942.46 4769.37  16
   7  -6  24 3047.34 7480.95  16
  -7  -6  24-1758.00 3197.26   2
  -7  -6  25-728.633 3879.88   2
   7  -6  25 5592.13 4622.08  16
   6  -7  25 715.126 11499.8  16
  -7  -6  25 3658.37 4267.86  16
   7  -6  26 2108.54 3361.73  16
   6  -7  26 1718.09 2600.19  16
  -7  -6  26-277.182 2659.92   2
  -6  -7  26 7050.51 5136.84  16
  -7  -6  26 3580.26 2868.78  16
  -7  -6  27 881.445 3083.58   2
   6  -7  27 2626.94 2897.49  16
  -6  -7  27 2828.37 3796.35  16
  -7  -6  27 5841.12 4344.35  16
   7  -6  27-1473.42 3731.45  16
  -7  -6  28-1591.31 6372.60   2
  -6  -7  28-11541.8 6769.21  16
   6  -7  28-1182.12 5331.56  16
  -7  -6  28 125.519 931.172  16
   7  -6  28 136.716 2325.39  16
   7  -6  29-357.438 4324.67  16
   6  -7  29 33.4456 3755.44  16
  -7  -6  29-282.496 1943.58   2
  -6  -7  29 251.828 2922.53  16
  -7  -6  29 108.997 1021.60  16
  -7  -6  30-6708.14 4674.02  16
  -7  -6  30-279.303 2034.88   2
  -6  -7  30 8716.93 5477.56  16
   6  -7  30 1833.05 5340.64  16
   7  -6  30 2295.43 6033.75  16
  -7  -6  31-1948.91 6982.22   2
   6  -7  31-34.9162 359.986  16
   7  -6  31-2068.40 4446.08  16
  -6  -7  31-2347.07 2914.76  16
  -7  -6  31 7761.97 5209.14  16
   7  -6  32 952.294 2587.31  16
   6  -7  32 604.912 3552.66  16
  -7  -6  32-39.6339 2579.18   2
  -7  -6  32 9771.50 6275.29  16
  -6  -7  32 3344.68 4142.83  16
  -6  -7  33-717.444 1840.77  16
   7  -6  33 3039.75 7440.23  16
   6  -7  33-14.1716 1388.94  16
  -7  -6  33 2937.98 4079.13  16
  -7  -6  33 5110.97 6983.31   2
   6  -7  34 555.128 6037.87  16
  -7  -6  34-1778.92 3403.72   2
  -6  -7  34 1656.62 3629.31  16
   7  -6  34 175.446 5551.02  16
   7  -6  35-643.038 3070.45  16
   6  -7  35 2210.82 2964.37  16
   6  -7  36 5808.88 6376.41  16
   7  -6  36-1569.13 2959.14  16
   6  -7  37 8583.29 8461.54  16
   7   7  -5-7021.63 5808.33  18
   7   7  -6 18220.2 10350.0  18
   7   7  -7-2424.84 3590.75  18
   7  -7   7 2984.76 4443.02   6
  -7   7  -8 38215.4 10884.0   4
   7   7  -8 23120.1 10944.0  18
   7  -7   8 8241.16 6177.05   6
   7  -7   9-2609.66 4232.59  14
  -7   7  -9-1483.94 581.401   4
   7   7  -9-1314.40 4633.15  18
   7  -7   9 2131.05 2360.39   6
  -7   7  -9 3.50943 1319.97   5
   7  -7  10-178.349 917.644   1
  -7   7 -10 3874.89 3468.37   5
   7  -7  10 3483.08 3904.48  14
   7   7 -10 2850.69 3738.09   8
  -7   7 -10 10914.3 6783.41   4
   7   7 -10 6342.83 6606.48  18
   7  -7  10 1626.29 2223.38   6
  -7   7 -11-355.689 2134.93   5
   7   7 -11 7818.85 9883.13  18
   7  -7  11 1284.49 2354.86  14
   7  -7  11 227.885 2471.30   1
   7  -7  11-2171.12 7455.96   6
  -7   7 -11-1401.26 2332.33   4
   7  -7  12 9367.15 8937.45   6
  -7   7 -12 12210.4 8112.05   4
  -7   7 -12 3360.31 2076.76   5
   7   7 -12 19054.1 11136.3  18
   7  -7  12 487.643 4185.17  14
   7  -7  13-4361.18 3377.57  14
  -7   7 -13-5319.19 5331.99   4
   7   7 -13-3462.38 3348.19  18
   7   7 -14 19534.6 9734.84  11
  -7   7 -14 13393.3 6370.41   4
   7  -7  14 284.582 5322.69  14
   7   7 -14 12305.1 6723.67  18
   7   7 -15 122.895 4706.69  18
   7  -7  15 107.479 5226.88  14
  -7   7 -15 1717.42 1286.35   4
   7   7 -15 125.064 8465.03  11
   7  -7  16-23.8311 4022.30  14
  -7   7 -16 5600.37 5310.05   4
   7   7 -16 324.255 6753.63  11
   7   7 -16 2522.67 4447.34  18
   7   7 -17 263.525 4884.91  11
   7  -7  17 10.4859 2906.26  14
   7  -7  28 720.394 4242.57  16
   7  -7  29-307.878 3556.50  16
   7  -7  30 1252.93 2946.23  16
   7  -7  31 1319.51 1037.33  16
  -7  -7  31 2433.77 2265.96  16
   7  -7  32-2114.80 4822.20  16
  -7  -7  32-9541.77 6633.56  16
   7  -7  33 51.5381 3615.99  16
  -7  -7  33 3522.13 3684.80  16
   7  -7  34-690.439 5625.48  16
  -7  -7  34 903.531 2027.57  16
   7  -7  35-839.512 3098.76  16
   7  -7  36-1821.28 6100.11  16
  -8   0   0 5123.47 4491.32   5
  -8   0   0 9190.86 5032.88   4
   8   0   0 16940.7 7557.65   1
   8   0   0 15507.0 6627.90   8
  -8   0   0 8192.87 4317.56   2
   8   0   0 7644.93 4119.15  14
  -8   0  -1 130.796 1007.89   5
  -8   0   1 508.061 1859.54   2
   8   0  -1-1913.46 2669.26  14
   8   0   1-746.110 4834.45   1
  -8   0  -1-984.458 2246.16   4
  -8   0   1 623.100 3348.86   4
   8   0   1-511.239 741.678   8
   8   0  -1-2863.71 3748.35   8
   8   0  -1-2965.54 4616.25   1
  -8   0   1-2708.29 3993.65   5
  -8   0   2 32314.9 10212.2   5
   8   0  -2 47296.0 14361.1   1
  -8   0   2 33835.5 8747.28   2
  -8   0  -2 14873.3 6998.09   4
  -8   0   2 34317.9 11194.8   4
   8   0  -2 30144.7 8465.67  14
   8   0   2 38521.3 9650.85   8
   8   0  -2 46627.2 9824.51   8
  -8   0   3 2174.70 3541.71   5
   8   0  -3-3042.38 2020.76  14
  -8   0   3-1782.13 3304.73   2
   8   0   3-3465.45 4118.05   8
  -8   0   3 1457.92 1780.01   4
   8   0  -3-5462.67 4169.71   6
   8   0   3-1857.71 2125.11  16
   8   0   4 4019.05 1929.07  16
  -8   0   4 4596.24 4432.56   5
   8   0  -4 5814.87 1833.70  14
   8   0   4 2052.96 1960.53   8
  -8   0   4 9016.51 4876.26   2
   8   0  -4 7885.76 2768.19   1
  -8   0   4 8682.58 5164.39   4
   8   0   4 4884.87 1809.81  18
   8   0  -4 5653.62 2334.73   6
  -8   0   5 2134.81 2523.45   5
   8   0  -5 10490.8 5668.51  14
   8   0   5 7906.28 2391.09  11
   8   0   5 3726.47 2936.73  18
   8   0   5 478.794 6028.64   8
   8   0  -5 9901.85 7334.24   1
  -8   0   5 1521.19 2584.52   2
   8   0   5 2822.12 1019.11  16
  -8   0   5-1154.49 3949.45   4
   8   0  -5 15017.7 4730.96   6
   8   0  -6 6765.35 5620.49   1
   8   0   6 13031.8 5193.27  16
   8   0   6 13581.8 4414.49  18
  -8   0   6 8713.70 3800.31   5
   8   0  -6 7584.27 4714.26  14
  -8   0   6 9181.29 6058.40   2
  -8   0   6 13249.2 6659.11   4
   8   0  -6 8464.40 3036.55   6
   8   0   6 4895.45 6042.35   8
   8   0   7 194.834 1999.38  16
   8   0   7-2896.57 2688.41  18
  -8   0   7-87.9964 957.269   5
   8   0  -7 6081.25 3383.66  14
   8   0   7-3801.08 5037.29   8
  -8   0   7 1188.40 2906.37   4
  -8   0   7-2032.75 3380.50   2
   8   0   8 1617.85 1785.48  16
  -8   0   8 2073.31 4250.75   5
   8   0  -8-299.159 1565.61   1
  -8   0   8 2351.30 2571.26   4
   8   0  -8 3469.91 2876.86  14
   8   0   8 3519.01 5760.84   8
  -8   0   8 245.802 1439.95   2
   8   0   8-137.363 612.089  18
  -8   0   9 2152.51 2557.80   5
   8   0   9-5403.28 6160.24   8
   8   0  -9-1739.49 3112.26   1
   8   0   9 1913.89 2850.15  16
  -8   0   9-1061.30 2924.83   2
  -8   0   9 1134.76 1932.24   4
   8   0  -9 591.893 739.284  14
   8   0  10 9048.71 4168.80  16
   8   0  10 9119.71 5527.33   8
  -8   0  10 13519.9 6300.21   5
  -8   0  10 19686.5 6943.61   4
  -8   0  10 8264.34 4349.69   2
   8   0 -10 12427.5 6320.77   1
   8   0 -10 7170.81 4027.46  14
   0  -8  10 1803.77 3803.99   6
   8   0  11-23.1623 1773.02  16
   8   0 -11 2037.78 3259.86  14
  -8   0  11-713.441 2801.10   5
   8   0  11 487.273 2258.55   8
  -8   0  11-1199.96 1902.56   2
  -8   0  11-2224.65 3518.58   4
   0   8 -11-3541.94 7142.15  18
   8   0 -11 582.155 2347.01   1
   0  -8  11 6743.13 6710.20   6
  -8   0  12 45643.6 10164.0   5
   8   0 -12 17292.4 5523.32  14
  -8   0  12 52933.5 10180.9   4
   8   0  12 32096.9 10129.7   8
   8   0  12 26129.5 7661.57  16
  -8   0  12 38015.9 9355.71   2
   0   8 -12 36005.9 11759.7  18
   0  -8  12-1722.58 2513.57   6
   8   0 -12 25852.3 8696.87   1
   8   0 -13-428.052 1409.17   1
   8   0  13-1937.91 1324.49  16
   8   0 -13-932.872 1526.38  14
  -8   0  13 1311.17 899.388   5
   8   0  13 3062.79 4388.04   8
   0   8 -13-79.1371 3479.74  18
  -8   0  13 863.158 2082.85   2
   0  -8  13 2656.27 4352.26   6
  -8   0  14 41954.0 9819.90   5
   0  -8  14-3247.33 5602.80   6
  -8   0  14 26020.1 9171.81   2
   8   0 -14 11538.6 5927.75   1
   8   0  14 24555.8 8153.23  16
   8   0  14 22151.8 9186.99   8
   8   0 -14 11856.9 4764.15  14
   0   8 -14 50568.7 15312.4  18
   8   0  15-3075.67 3716.94  16
   8   0 -15 4965.42 4665.63   1
   8   0 -15 759.410 1392.13  14
   0   8 -15-2690.44 6514.90  18
   8   0  15-916.333 3495.30   8
  -8   0  15 623.718 2168.50   2
  -8   0  15 367.765 1121.01   5
   8   0  16 4370.29 2407.43  16
  -8   0  16 1998.85 3980.57   2
   0   8 -16 9691.29 7115.34  18
   8   0  17-3513.41 2656.00  16
   0   8 -17 1270.39 2468.99  18
   0   8 -18-318.890 7099.81  11
   8   0  18 1354.85 1589.80  16
   0   8 -18 1994.48 4481.37  18
   8   0  19 222.462 2050.57  16
   0   8 -19 1560.82 5309.32  11
   0   8 -19 42.9583 2196.71  18
   0   8 -20 1631.45 3931.20  11
   0  -8  31-2458.33 5978.64  16
   0  -8  32-27.2095 1152.57  16
   0  -8  33-843.364 2293.89  16
   0  -8  34-2533.35 7294.99  16
  -8   1   0 10461.4 5669.59   5
   8   1   0 9369.75 2894.45  11
   8  -1   0 9816.75 3655.16   8
   8  -1   0 12763.3 3780.85   1
  -8   1   0 13467.6 4687.11   2
   8  -1   0 6747.62 3019.96  14
   8   1   0 9379.66 4905.02   8
   8  -1   0 14710.7 5740.46   6
  -8   1   0 7456.55 5027.40   4
   8   1   0 9781.31 2719.81  18
   8  -1  -1 68006.8 17270.9   1
   8  -1   1 63364.2 15477.4   1
  -8   1  -1 44601.2 12520.4   5
   8   1  -1 51167.1 13593.5   1
   8  -1   1 46604.9 11225.2  14
  -8   1   1 32776.5 9950.82   5
   8  -1  -1 46257.7 11316.4  14
  -8  -1   1 12683.8 5702.90   4
   8   1  -1 49213.2 8324.67  11
   8  -1   1 57155.7 13203.2   8
   8   1   1 44315.1 11955.5   8
   8   1  -1 46253.2 10366.6   8
  -8   1  -1 44956.1 12958.2   4
  -8   1   1 45592.1 12884.8   4
  -8   1   1 40338.7 8488.84   2
   8  -1  -1 65197.8 10766.4   6
   8   1   1 35880.3 8529.48  18
  -8   1  -1 38566.3 7636.17   2
   8   1  -1 39348.6 8142.40  18
   8  -1  -2 2155.27 1820.89   1
  -8  -1   2 3243.68 4058.80   5
  -8   1   2-1170.67 4289.06   5
   8  -1   2 193.722 3521.38  14
  -8   1  -2 3863.85 3467.18   5
   8   1  -2 250.321 3310.17   1
   8   1   2 2586.78 3544.49  18
  -8  -1   2 1860.26 2144.36   4
   8  -1  -2 124.411 899.159  14
   8   1   2 4285.79 3760.85   8
  -8   1  -2 4222.90 4938.28   4
   8   1  -2 5384.41 3954.54   8
   8  -1   2 1089.35 2868.66   8
  -8   1   2 2088.74 2553.28   2
  -8   1   2 4206.47 3816.14   4
   8  -1   2 1687.98 1986.39   1
   8   1   2 2687.92 1503.44  16
  -8   1  -2-453.911 993.333   2
  -8  -1   2 3682.91 3269.40   2
   8  -1  -2 6992.69 3190.30   6
  -8   1  -3 10767.6 6614.71   5
  -8  -1   3 2835.93 6000.04   5
  -8  -1   3 13155.1 7538.21   2
   8   1   3 10456.3 3370.25  16
  -8   1   3 12523.9 3930.81   2
   8  -1   3 15591.2 6730.51  14
   8  -1  -3 17862.2 8045.36   1
   8   1   3 13202.9 5572.66  18
   8  -1   3 22384.2 6994.60   1
   8   1   3 10650.1 488.202   8
  -8  -1   3 8471.96 4803.23   4
  -8   1  -3 10440.9 7304.85   4
   8   1  -3 12173.9 5968.76   1
   8  -1   3 20672.8 8031.88   8
   8   1  -3 21582.4 9157.36   8
  -8   1   3 16894.9 7269.74   4
  -8   1   3 19192.8 7445.53   5
   8  -1  -3 13289.0 5420.09  14
   8  -1  -3 14565.6 4647.16   6
  -8   1   4 5387.69 2737.46   2
   8   1   4 2659.71 2984.06  16
  -8   1   4 7969.43 4912.12   5
   8  -1  -4 7113.60 3576.05  14
  -8  -1   4 21695.8 15412.5   4
   8   1   4 12599.4 9890.65   8
   8  -1  -4 12454.3 5131.94   1
   8  -1   4 9618.54 7870.58   1
  -8   1   4 12687.2 5180.17   4
   8   1  -4-6476.88 10639.0   8
   8  -1   4 5646.50 4769.98   8
  -8   1  -4-519.587 3558.75   4
   8   1  -4 29464.0 14701.6   1
   8   1   4 5481.41 5394.92  18
   8  -1  -4 6573.33 3947.67   6
   8   1   5 12137.1 4508.26  16
  -8  -1   5 58876.7 13814.1   2
   8   1   5 20015.2 12084.9   8
  -8  -1   5 46253.6 14021.0   4
  -8   1  -5 16426.1 8228.73   4
   8  -1  -5 6917.62 5393.42  14
  -8   1   5 4613.39 3170.86   4
  -8   1   5 6041.44 3612.61   2
  -8   1   5 3370.56 3916.67   5
   8   1  -5 81317.9 21604.5   1
   8  -1  -5 6918.23 6494.17   1
   8  -1   5 5038.09 1776.37   8
   8   1   5 13586.4 5679.14  18
   8  -1   5 30203.8 8153.47  16
  -8  -1   6 2148.82 1959.00  16
   8  -1  -6 660.367 2298.16  14
  -8  -1   6 8183.63 9739.22   5
   8   1  -6-2548.50 2356.94   1
  -8   1   6 7349.15 4127.97   4
   8   1  -6 7078.25 4986.41  14
   8  -1  -6 1034.97 3348.55   1
  -8  -1   6 7751.43 8199.78   2
   8   1   6-181.756 4125.16   8
   8  -1   6 1418.21 2814.11   8
  -8  -1   6 4391.73 6830.14   4
   8   1   6 32.0531 2604.34  18
   8  -1   6 3188.81 2952.68  16
  -8   1   6 1928.46 1570.46   2
  -8   1   6 4438.34 3387.39   5
   8  -1   7 5818.94 2464.82  16
  -8  -1   7 9032.04 3632.87  16
  -8  -1   7 3661.72 5203.49   5
   8   1  -7 6831.85 3652.23  14
   8  -1  -7 6277.68 2463.33  14
   8  -1  -7 2416.28 3558.43   1
   8   1  -7 7754.68 6122.81   1
   8   1   7 3138.76 3512.63   8
  -8  -1   7 5233.90 4044.72   2
  -8   1   7 4825.16 2671.19   4
   8  -1   7 3291.33 1405.05   8
   8   1  -7 7809.56 2339.99   6
  -8  -1   7 852.881 4381.91   4
  -8   1   7 3041.82 2525.31   2
  -8   1   7 7690.82 4123.01   5
  -8  -1   8 18740.4 5118.98  16
  -8  -1   8 25820.6 9587.04   5
   8   1  -8 7808.07 3243.69  14
   8  -1  -8 6691.70 3277.44  14
  -8   1   8 12988.4 5759.52   5
  -8  -1   8 31563.7 9601.56   2
   8   1  -8 15481.4 8511.41   1
   8  -1  -8 8054.02 5069.75   1
   8  -1   8 23202.6 8237.94   8
   8  -1   8 21333.9 7969.86  16
  -8  -1   8 25197.0 9637.00   4
  -8   1   8 15527.7 5677.16   4
   8   1  -8 15207.1 3008.68   6
  -8   1   8 1987.78 1597.83   2
   8  -1   9 7990.33 4056.23  16
  -8  -1   9 4243.84 585.813  16
  -8  -1   9 6233.97 4165.22   5
   8   1  -9 6665.99 3647.32  14
  -8   1   9 8077.43 4272.75   5
   8  -1   9 6219.42 3869.25   8
  -8  -1   9 2869.27 3196.84   2
   8   1  -9 1433.42 3173.37   1
   8  -1  -9 4656.75 4752.15   1
  -8  -1   9 14840.6 6874.24   4
   8  -1  -9 1525.01 1408.17  14
  -8   1   9 5337.49 3011.86   2
  -8  -1  10 8662.24 3679.31  16
  -8  -1  10 5901.41 905.484   5
   8   1 -10 6867.97 2310.52  14
   8  -1 -10 8768.10 5204.67   1
  -8   1  10 13486.6 4968.78   5
   8  -1  10 14355.8 6937.79   8
  -8  -1  10 9755.20 6718.86   2
  -8  -1  10 14989.7 6146.20   4
   8   1 -10 8905.25 5212.22   1
   8  -1 -10 7220.17 3616.25  14
  -8   1  10 5409.10 2813.49   2
   8  -1  10 7787.61 4698.11  16
   1  -8  10 837.216 2245.22   6
   8  -1 -11 6476.79 5541.05   1
   8  -1  11 31464.1 10056.0  16
  -8  -1  11 14936.6 4665.74  16
   8   1 -11 18192.4 6096.26  14
  -1  -8  11 1928.27 2511.90   6
   8  -1 -11 8502.17 3654.90  14
  -8   1  11 32875.0 8210.51   5
  -8  -1  11 48629.0 11258.1   4
   8  -1  11 27398.6 8466.83   8
  -8  -1  11 27700.4 8755.81   5
  -8  -1  11 31506.0 9479.89   2
   1  -8  11 2836.26 2805.87   6
   8   1 -11 30559.9 10329.9   1
   1   8 -11 16888.3 9362.76  18
  -8   1  11 15910.4 6431.94   2
   8   1 -12 11091.1 6967.75   1
   8  -1  12 23628.5 9082.58  16
  -8  -1  12 5001.26 2339.22  16
   8   1 -12 2065.18 2272.32  14
  -8  -1  12 11681.3 5023.35   5
   1   8 -12 7439.86 5214.13  18
   8  -1  12 12421.4 6204.99   8
   8  -1  12 12769.3 3242.00   2
  -8  -1  12 6580.04 4518.19   2
  -8  -1  12 18071.2 6480.81   4
  -1   8 -12 15874.2 8413.18  18
   1  -8  12 6012.13 4925.52   6
  -1  -8  12-217.060 1443.43   6
   8  -1  13 47032.9 13073.3  16
   8   1 -13 36631.6 13341.6   1
  -8  -1  13 23513.7 6287.84  16
  -8  -1  13 71742.9 12781.7   4
   8   1 -13 16414.3 6077.88  14
  -1   8 -13 46747.3 13303.1  18
   8  -1  13 43211.5 12590.8   8
  -8  -1  13 60390.1 14165.0   2
   8  -1  13 46850.5 6071.51   2
   1   8 -13 60225.1 16539.1  18
  -1  -8  13 528.952 3946.36   6
  -8  -1  13 64755.0 13275.1   5
  -8  -1  14 4266.16 3341.99   4
   8  -1  14 5407.79 5398.56  16
  -8  -1  14 2150.95 2168.34  16
   1  -8  14 1546.81 4138.54   6
   8   1 -14 6100.35 6528.03   1
   8   1 -14-1239.20 1428.48  14
  -8  -1  14 7962.76 5291.01   5
   8  -1  14 4118.25 3968.54   8
  -1   8 -14-426.067 2768.35  18
   8  -1  14 3085.13 1383.78   2
  -8  -1  14 1460.11 4342.18   2
   1   8 -14 7243.21 5386.59  18
  -1  -8  14 9759.28 8184.43   6
  -8  -1  15 12321.1 4709.13  16
   8   1 -15 1978.62 2109.80  14
   1  -8  15 9015.20 3471.60  14
  -8  -1  15 46197.3 9757.02   4
  -1   8 -15 51078.5 15227.9  18
   8  -1  15 24367.4 9116.53   8
  -8  -1  15 37250.0 10066.4   5
   8  -1  15 36278.4 11637.8  16
  -8  -1  15 34839.6 11315.6   2
   1  -8  15 9704.89 10167.4   6
   1   8 -15 49472.1 15810.7  18
   8   1 -15 5673.92 5985.21   1
  -8  -1  16 1165.37 1943.23  16
  -1   8 -16 7079.29 7048.25  18
  -8  -1  16 3708.94 2004.94   5
   8   1 -16 529.876 1970.32  14
   8   1 -16-4586.84 5787.72   1
   8  -1  16 4402.30 5476.83   8
   8  -1  16-2063.16 5335.82  16
  -8  -1  16 8503.14 4221.33   4
  -8  -1  16 4777.49 2746.00   2
   1   8 -16 9431.34 6205.34  18
  -8  -1  17 3264.73 3462.17   5
   8  -1  17-1546.82 5151.65  16
  -8  -1  17 387.177 1232.78  16
   8   1 -17 3298.12 3881.98  14
   8   1 -17 6895.26 5625.81   1
   8  -1  17 2944.29 5321.78   8
  -8  -1  17 7090.23 5391.66   2
   1   8 -17 3612.19 5485.98  18
  -1   8 -17-141.981 3456.66  18
   8  -1  18 2445.53 6203.08  16
  -8  -1  18 1307.72 1720.62  16
  -8  -1  18 4948.86 3015.59   5
   1   8 -18 3309.67 5111.83  11
  -1   8 -18 3574.09 5067.97  11
   8   1 -18 3872.67 4860.23   1
  -8  -1  18 5094.97 4860.87   2
   1   8 -18 3683.76 3723.83  18
  -8  -1  18 6177.26 3560.54   4
  -1   8 -18 2951.28 3166.65  18
   8  -1  18 1726.17 1518.52   8
   8  -1  19-2991.23 4072.40  16
  -8  -1  19-3824.38 3424.64  16
  -8  -1  19-108.663 1739.02   5
   8   1 -19-554.459 3618.82   1
   8  -1  19-1805.63 4854.27   8
  -1   8 -19 3803.32 4493.03  11
  -8  -1  19 1817.95 2592.42   2
   1   8 -19-385.018 2709.78  11
   1   8 -19-1728.03 2861.65  18
   8  -1  20-24.0085 1545.32  16
   1   8 -20 1884.98 5612.44  11
  -1   8 -20 2034.52 5468.36  11
   8   1 -20 1343.13 6147.44   1
   8  -1  20 6091.15 3617.35   8
  -8  -1  20 1670.60 6496.30   2
   8  -1  21-220.951 2518.39   8
   8  -1  21-3480.18 3268.03  16
   8  -1  22 1085.01 3929.23  16
   8  -1  22 1304.15 2708.46   8
   8  -1  23-128.762 2805.69  16
   8  -1  23 2665.47 2830.29   8
   1  -8  31 808.530 3613.29  16
   1  -8  32-25131.8 9351.13  16
  -1  -8  33 1297.13 2686.18  16
   1  -8  33 671.481 716.584  16
   1  -8  34-2814.37 4504.88  16
  -8   2   0 107554. 16363.0   5
   8  -2   0 147965. 21514.5   1
  -8   2   0 140637. 21357.9   4
   8   2   0 116665. 19795.2   8
   8   2   0 132826. 19943.9  18
   8  -2   0 137886. 18016.8   6
   8  -2   0 129270. 17645.5  14
  -8   2   0 69249.9 7920.60   2
   8  -2   1 34382.0 10064.1   1
  -8   2  -1 17884.5 6247.59   5
   8  -2   1 22444.3 7398.74  14
   8  -2  -1 21963.0 7127.93  14
   8  -2   1 33293.3 8135.99   6
   8   2   1 18206.2 7822.95   8
  -8   2   1 29198.7 9331.58   4
   8   2  -1 26631.6 9817.72  18
   8   2  -1 27761.9 10084.3   8
  -8   2   1 25329.9 7356.81   5
  -8   2  -1 17992.1 3813.11   2
   8  -2  -1 17773.1 6785.36   1
  -8   2   1 14968.7 3769.37   2
  -8   2  -1 27924.6 10366.0   4
   8   2   1 18236.2 6041.78  18
   8  -2  -1 26343.4 7235.42   6
  -8   2   2 31541.9 8357.84   5
  -8   2  -2 44740.9 12336.9   5
   8  -2  -2 36832.3 10015.7   1
   8   2  -2 54054.5 12465.8   8
   8  -2   2 46233.8 11159.0  14
  -8   2   2 45712.7 11196.0   4
   8   2  -2 39776.9 13093.1  18
   8  -2  -2 31606.5 8775.48  14
   8  -2   2 81300.2 17959.1   1
   8  -2   2 53795.3 14486.7   8
   8   2   2 23663.9 8966.72   8
  -8   2  -2 55194.5 14771.3   4
   8   2   2 24926.1 7976.68  18
   8  -2   2 65738.0 13931.7   6
  -8   2  -2 34153.2 5365.75   2
  -8   2   2 17449.4 4368.97   2
   8  -2  -2 30450.4 7971.01   6
  -8   2  -3 738.638 3156.22   5
  -8   2   3 3665.44 2810.34   4
   8  -2   3 9303.39 5605.99  14
   8  -2   3 579.873 7729.58   1
  -8   2   3 3400.55 2887.32   5
   8  -2  -3 100.563 1086.27  14
  -8   2  -3 2732.36 2001.81   2
   8   2  -3 17455.8 14804.9   8
   8   2   3-2549.08 5078.72   8
   8  -2  -3 1563.91 2946.87   1
   8  -2   3 13137.8 9088.98   8
  -8   2  -3 8720.52 7844.91   4
   8  -2   3 10910.4 9367.81   6
   8   2   3-2521.58 2183.74  18
  -8   2   3-678.443 1411.65   2
   8   2  -3 13597.3 16838.4  11
  -8   2  -4 27583.4 11082.5   5
   8  -2   4 20908.8 8586.05   1
  -8   2   4 11645.2 5023.84   5
   8  -2  -4 6365.69 3368.49  14
   8  -2   4 11965.5 5876.55  14
   8  -2  -4 9168.01 4851.66   1
  -8   2  -4 19463.3 10701.5   4
   8   2   4 16918.5 6771.62  18
   8  -2   4 11187.5 4055.02   8
  -8   2   4 10309.7 4481.41   4
  -8   2   4 1842.72 1308.64   2
  -8  -2   5 1636.72 12940.3   2
  -8   2  -5 13811.7 6349.35   5
   8  -2  -5 10323.1 4092.42   1
   8   2  -5-739.887 12088.2   1
   8  -2  -5 9097.55 4154.89  14
  -8   2   5 18121.2 5893.97   5
   8   2  -5 18061.9 14536.3  11
   8   2  -5 6278.43 8652.04  18
  -8  -2   5 6640.81 9457.36   4
   8  -2   5 22451.1 7215.66   1
  -8   2  -5 10584.5 4660.52   4
   8  -2   5 16931.3 5925.53  14
   8  -2   5 11794.0 5362.89   8
  -8   2   5 5267.50 2118.64   2
  -8  -2   6 2819.93 2395.43   5
   8  -2   6 6581.73 3182.78   1
   8  -2  -6 2224.31 2043.05  14
  -8   2   6 3476.51 2634.69   5
  -8  -2   6 1797.41 448.235   4
   8  -2   6 6645.40 4502.92  14
   8   2  -6-2978.40 4679.73   1
   8  -2  -6 1182.50 2305.77   1
  -8   2  -6 1126.10 1607.65   4
   8   2  -6 9593.06 4633.38   8
   8  -2   6 4023.96 4437.61   8
  -8  -2   6-147.004 3454.98   2
  -8  -2   7 14443.9 7159.77   5
  -8  -2   7 33888.1 9688.73   2
   8  -2  -7 7658.41 2846.16  14
  -8   2   7 24004.5 6870.19   5
  -8   2  -7 10982.2 4624.50   4
  -8  -2   7 17553.0 7152.04   4
   8   2  -7 23873.8 9190.68   1
   8  -2   7 37728.2 10026.6   8
   8  -2  -7 10641.0 4747.91   1
   8  -2   7 23420.6 7417.42  16
  -8  -2   8-2732.76 4029.15   5
  -8  -2   8-4946.21 5292.98   2
  -8  -2   8 2590.32 2756.98   4
   8  -2   8 1264.50 609.907   8
  -8  -2   8 284.046 1028.13  16
   8   2  -8-5797.10 4713.64   1
   8  -2   8-1705.47 2032.28  16
  -8  -2   9 30477.8 6450.64  16
  -8  -2   9 23012.7 7725.56   5
  -8  -2   9 33868.9 10784.4   2
  -8  -2   9 19728.6 7735.05   4
   8  -2   9 31009.9 8728.22   8
   8   2  -9 33514.9 11221.1   1
   8  -2   9 31900.3 8401.56  16
  -8  -2  10 24924.4 6623.91  16
   8   2 -10 31136.0 11456.6   1
  -8  -2  10 16416.6 7350.04   5
  -8  -2  10 35762.5 12196.4   2
   8  -2  10 24085.0 7175.87  16
   2  -8  10-2668.84 5989.09   6
   8  -2  10 22337.9 7757.67   8
  -8  -2  10 13948.4 5900.42   4
   2   8 -10 11393.7 1544.48  18
   8  -2  11 27638.8 8561.72  16
  -8  -2  11 31349.8 8009.88  16
   8   2 -11 33647.8 13009.1   1
  -8  -2  11 20497.4 7587.67   5
  -8  -2  11 36602.1 12424.6   2
   8  -2  11 30389.3 9121.11   8
  -8  -2  11 24246.3 7664.20   4
   2   8 -11 22642.8 9905.19  18
   2  -8  11 1519.06 4512.56   6
  -2  -8  11 4019.46 4403.13   6
  -8  -2  12 39491.1 12356.9   5
  -2   8 -12 28609.7 10092.3  18
   8  -2  12 51396.7 12080.2   8
  -8  -2  12 59085.4 15605.7   2
   2   8 -12 49338.3 15893.9  18
   2  -8  12 8641.45 6840.51   6
  -8  -2  12 52282.4 11526.8   4
   8   2 -12 54360.7 16769.4   1
   8  -2  12 47017.7 10975.1  16
  -8  -2  12 58250.3 11557.7  16
  -2   8 -13 16423.9 4108.94   4
   8  -2  13 9596.59 5562.47  16
  -8  -2  13 14297.2 7707.99   5
   8   2 -13 11691.6 4840.82   1
  -8  -2  13 13956.3 8073.45   2
   8  -2  13 14188.0 7216.71   8
  -8  -2  13 10846.8 5821.82  16
  -8  -2  13 15514.8 6484.72   4
  -2   8 -13 13971.2 6440.12  18
   2   8 -13 25233.8 12172.1  18
  -2  -8  13 540.079 1039.97   6
   2  -8  13-2878.52 5600.62   6
   2   8 -14 80163.7 20728.8  18
  -8  -2  14 72854.8 13725.9   4
  -2   8 -14 110560. 13303.0   4
   8   2 -14 40234.6 13780.4   1
   8  -2  14 61547.6 13280.2   8
  -8  -2  14 78277.3 19097.1   2
  -2   8 -14 73458.6 16246.4  18
  -8  -2  14 77186.6 13842.3  16
  -2  -8  14 8642.37 5334.28   6
   2  -8  14 15862.7 8745.63   6
   8  -2  14 65018.0 14202.7  16
  -8  -2  14 68462.4 16076.1   5
   8  -2  15 25963.9 11176.3  16
  -8  -2  15 11149.8 5001.27  16
  -8  -2  15 18715.3 8201.45   5
   2  -8  15 6220.18 3364.17  14
   8   2 -15 1455.83 4336.98   1
   8  -2  15 36273.0 11333.4   8
   2  -8  15 4094.61 4858.98   6
  -8  -2  15 17470.8 9168.23   2
   2   8 -15 19836.2 10500.8  18
  -8  -2  15 13710.5 6232.73   4
  -2   8 -15 15677.7 9295.63  18
   8  -2  16 15280.7 7475.86  16
  -8  -2  16 26394.5 9089.39  16
  -8  -2  16 23023.0 8635.43   5
   8  -2  16 28599.4 9859.42   8
   8   2 -16 5535.04 6400.19   1
  -8  -2  16 32927.7 10151.9   2
   2   8 -16 24927.1 8314.01  18
  -8  -2  16 28478.0 7794.12   4
  -2   8 -16 34096.4 10752.4  18
   8  -2  17 7840.87 9533.61  16
  -8  -2  17 7025.24 6021.97  16
  -8  -2  17 13908.3 6359.72   5
   8  -2  17 19921.1 8369.75   8
  -8  -2  17 11133.9 8313.26   2
   8   2 -17-1587.15 5948.72   1
  -8  -2  17 15163.5 5167.19   4
   2   8 -17 18170.7 6756.75  18
  -2   8 -17 15539.0 5942.12  18
   8  -2  18 889.371 4020.41  16
  -8  -2  18-6633.94 3990.41  16
  -8  -2  18-584.523 4253.03   5
   2   8 -18-1701.85 5414.44  11
  -2   8 -18-3298.81 3899.96  11
  -2   8 -18 5325.73 2119.43  18
   8  -2  18 2506.17 3514.21   8
  -8  -2  18 2541.27 6001.34   2
   8   2 -18 1548.15 6374.42   1
   2   8 -18-80.7786 4941.81  18
  -8  -2  19 1888.27 3418.50  16
  -8  -2  19 6171.00 4358.63   5
   2   8 -19 11406.8 5991.86  18
   2   8 -19 11780.8 9291.76  11
  -2   8 -19 24766.1 9829.96  11
   8  -2  19 15117.3 6012.19   8
  -8  -2  19 5365.98 9416.37   2
   8  -2  19 1073.71 4917.00  16
   8   2 -19 734.731 6874.62   1
  -8  -2  20-2298.95 3317.76  16
  -8  -2  20-4727.55 5203.88   5
   8  -2  20-3381.54 6237.09  16
   2   8 -20 1979.50 2992.97  11
   8  -2  20-4335.99 5106.43   8
  -8  -2  20-2550.72 7923.17   2
   8   2 -20 1373.28 4424.58   1
   8  -2  21-1647.91 1470.48  16
  -8  -2  21 201.538 729.935  16
  -8  -2  21 4315.99 2057.05   5
   8  -2  21 2722.56 3288.80   8
  -8  -2  21-134.153 4906.01   2
   8   2 -21 8720.05 10459.0   1
   8  -2  22-1396.61 6412.11  16
   8  -2  22-7016.31 6404.93   8
  -8  -2  22-1954.19 3980.89   2
   8   2 -22 3039.31 7251.72   1
  -8  -2  22-6388.07 5240.06   5
  -8  -2  22-11813.5 6859.66  16
  -8  -2  23 334.462 4566.74   5
   8  -2  23-4435.94 2535.37  16
  -8  -2  23-12629.4 6908.61  16
   8  -2  23 394.046 1704.37   8
  -8  -2  23 564.812 4326.22   2
   8   2 -23 1163.42 4610.88   1
   8  -2  24 2229.59 6310.29  16
   8  -2  24 10712.5 5052.44   8
   8  -2  25 1751.68 7570.73  16
   8  -2  25-2482.35 5058.35   8
   8  -2  26 7435.39 11380.7  16
   8  -2  26 32482.6 11179.0   8
   8  -3   0 12293.8 5941.85  14
   8   3   0 26777.3 11029.4   8
  -8   3   0 17903.2 6261.79   4
   8  -3   0 13327.6 5781.75   1
   8   3   0 32965.9 12048.9  18
  -8   3   0 11739.4 4452.51   5
   8  -3   0 10711.3 5408.89   6
  -8   3  -1 115260. 15660.4   5
  -8   3   1 100018. 13839.1   5
   8  -3  -1 67307.2 12585.8   1
   8  -3  -1 76790.3 14096.2  14
  -8   3  -1 151163. 20963.4   4
  -8   3   1 113774. 17690.6   4
   8   3  -1 100305. 16501.9   8
   8  -3   1 102608. 16439.7   1
   8  -3   1 105140. 16027.7  14
   8   3  -1 109807. 18920.5  18
   8   3   1 72979.7 14647.8  18
   8  -3   1 110069. 16928.0   6
   8  -3   2 3867.17 1818.01  14
   8  -3  -2 22.9108 987.010  14
  -8   3   2 1993.10 1789.89   5
   8   3   2 2235.03 3056.22  18
  -8   3  -2 578.259 2054.79   5
   8  -3  -2-297.481 2535.67   1
   8  -3   2 1189.67 2047.85   1
  -8   3  -2 5757.12 2540.64   4
   8  -3   2 2417.71 3072.47   6
  -8   3  -3 58931.1 12336.0   5
  -8   3   3 41538.8 8640.95   5
   8  -3   3 75118.9 14815.0   1
   8  -3   3 59088.2 12375.1   6
   8  -3   3 59092.0 12642.5  14
   8  -3  -3 14878.7 6446.16  14
   8  -3  -3 19406.0 7174.68   1
  -8   3  -3 51264.2 13330.5   4
   8  -3   4 8375.03 5042.84  14
  -8   3  -4 9496.40 3274.01   5
   8  -3   4 9170.13 5132.69   6
   8  -3   4 16279.9 5757.29   1
   8   3  -4 6365.65 6021.79   8
  -8   3  -4 10595.6 6574.78   4
   8   3  -4 13722.8 10313.9  18
  -8   3  -4 2576.17 988.001   2
  -8   3  -5-2186.02 5475.97   5
   8  -3   5 1796.65 4155.76  14
   8  -3   5 5122.96 4725.58   1
   8   3  -5 491.031 1869.50   8
   8  -3   5 8095.07 7484.00   6
  -8   3  -5 2753.82 4242.85   4
   8  -3   5 2471.90 2065.35   8
   8   3  -5-3403.70 4195.95  18
  -8   3  -6 8631.46 4368.57   5
   8   3  -6 10679.8 5023.47  18
   8  -3   6 10374.9 5659.74  14
   8   3  -6 4084.57 3110.31  11
  -8   3  -6 14194.2 8004.87   4
   8   3  -6 16210.1 5648.10   8
   8  -3   6 14822.3 6929.38   8
   8  -3   6 21743.4 9159.49   1
  -8   3  -7-1151.43 2953.53   5
   8  -3   7 1304.30 294.389  14
   8   3  -7 611.741 885.864  11
   8  -3   7 446.829 2580.05   1
  -8   3  -7 1750.38 4711.46   4
   8   3  -7 2236.32 2064.60   8
   8  -3   7 1215.63 1495.29   8
   8   3  -7 2221.64 1679.31  18
  -8  -3   7 374.681 3542.43   2
  -8  -3   8 23388.9 7873.30   2
   8   3  -8 41659.7 11646.2   1
   8  -3   8 52021.2 11739.8  14
   8   3  -8 43213.8 11902.4  11
   8  -3   8 48551.0 11178.4   8
   8   3  -8 49649.5 9146.22   8
  -8   3  -8 30164.3 9636.97   4
  -8  -3   9 4543.24 4535.40   2
   8  -3   9 5307.62 2984.84  14
  -8   3  -9-2391.89 2951.57   4
   8  -3   9 3152.44 2856.31   8
   8   3  -9 4371.58 3085.48   1
  -8  -3  10 9139.58 5531.21   2
   8   3 -10 13885.8 7444.45   1
   8  -3  10 14601.7 6379.31   8
   3   8 -10 11292.0 8044.05  18
  -8  -3  10 14823.9 5036.50  16
   8  -3  10 12517.7 5530.74  16
   3  -8  10-1772.31 4628.82   6
  -8  -3  11 20399.5 7119.91   5
  -8  -3  11 35008.6 11187.7   2
  -8  -3  11 18180.9 5922.03   4
   8  -3  11 57096.4 11863.6   8
   8   3 -11 38374.8 12045.9   1
   3   8 -11 41093.3 13960.4  18
  -8  -3  11 45088.5 8635.81  16
   8  -3  11 44601.4 11303.3  16
   3  -8  11 4245.58 7408.92   6
  -8  -3  12 9971.44 5483.86   5
  -8  -3  12 12587.0 6784.49   2
  -8  -3  12 5417.21 3424.88   4
   8   3 -12 9959.52 5767.32   1
   8  -3  12 14890.6 7109.94   8
  -3   8 -12 5378.02 2791.00  18
   3   8 -12 11299.7 7955.52  18
   3  -8  12-885.579 2793.06   6
  -3  -8  12 443.517 1902.14   6
   8  -3  12 10288.1 5859.14  16
  -8  -3  12 12776.3 5022.63  16
   3   8 -13 102070. 23560.7  18
  -8  -3  13 32685.1 8456.08   5
  -3   8 -13 129659. 16222.1   4
   8  -3  13 89983.5 14838.5   8
  -8  -3  13 32443.0 7591.86   4
  -3   8 -13 66845.3 13786.0  18
   8   3 -13 46655.3 13961.0   1
  -8  -3  13 62589.7 14857.3   2
   3  -8  13 14034.9 7486.49   6
   8  -3  13 75155.7 14204.2  16
  -8  -3  13 82083.3 12635.5  16
   8  -3  14 3314.18 2889.88  16
  -8  -3  14 7005.10 4075.28  16
   3  -8  14 3386.42 1871.35  14
  -8  -3  14 2498.16 1260.08   2
  -3   8 -14 18826.0 10811.7  18
  -8  -3  14 4477.52 2896.32   5
  -8  -3  14 5750.64 3517.60   4
   3   8 -14 16270.1 9480.42  18
   8  -3  14 9097.85 4325.54   8
   8   3 -14 2649.87 4091.47   1
   3  -8  14 11352.0 7879.57   6
  -3   8 -14 19389.5 7051.62   4
  -3  -8  14 1124.51 3566.27   6
   8  -3  15 53991.3 11564.4  16
  -8  -3  15 30555.9 8914.26   5
  -8  -3  15 54771.0 10988.3  16
   3  -8  15 24426.9 6085.99  14
  -8  -3  15 38637.2 12878.6   2
   3   8 -15 99358.6 24495.7  18
   8   3 -15 28192.4 10660.2   1
   8  -3  15 55748.6 11719.9   8
  -8  -3  15 22174.6 6361.16   4
  -3   8 -15 93310.5 19826.5  18
   3  -8  15 12001.6 11906.4   6
   8  -3  16 1588.06 1656.52  16
  -8  -3  16 11966.1 5973.60  16
  -8  -3  16 7285.17 4645.81   5
  -8  -3  16 4353.27 6021.27   2
  -8  -3  16 3754.48 2633.81   4
   8  -3  16 10242.3 4014.82   8
   8   3 -16 844.421 1895.28   1
  -3   8 -16 11167.7 4973.78  18
   3   8 -16 15694.1 7827.28  18
   8  -3  17 1180.68 1176.32  16
  -8  -3  17 1971.16 2654.64   5
  -3   8 -17 7280.70 4729.74  18
  -3   8 -17 18565.8 9198.80  11
   3   8 -17 14479.0 10113.7  11
   8   3 -17 428.927 3081.48   1
  -8  -3  17 1890.94 2550.21   2
   8  -3  17 10511.3 4758.72   8
   3   8 -17 13709.2 8751.01  18
  -8  -3  17 9326.36 5068.46  16
  -3   8 -18 11239.9 6394.80  11
   8  -3  18-569.168 2078.98  16
  -8  -3  18 4730.26 5913.94  16
  -8  -3  18 3356.54 3389.04   5
   3   8 -18 11430.3 9073.08  11
  -8  -3  18 956.669 5871.25   2
  -3   8 -18 12966.1 5251.62  18
   3   8 -18 12958.6 6684.23  18
   8  -3  18 9610.33 5148.70   8
   8   3 -18 1451.24 7161.16   1
   8  -3  19 2856.52 4036.81  16
  -8  -3  19 13169.8 9828.62   5
   3   8 -19-7478.43 6298.86  11
  -3   8 -19 3564.54 4849.71  11
  -8  -3  19 9495.60 16720.6   2
   8  -3  19 11.1604 2122.65   8
   3   8 -19 2415.95 2283.38  18
   8   3 -19 6227.41 15327.8   1
   8  -3  20-71.2646 4069.60  16
  -8  -3  20 4919.92 5980.60  16
  -8  -3  20 1368.60 3675.39   5
   3   8 -20-325.727 3026.15  11
  -8  -3  20 3630.22 9641.83   2
   8  -3  20 6303.96 2833.18   8
   8   3 -20-6219.87 6899.32   1
   8  -3  21 2440.55 5831.98  16
  -8  -3  21 8.61791 1787.29  16
  -8  -3  21 4632.93 6832.80   2
   8  -3  21-2392.66 4066.43   8
  -8  -3  21 3127.01 5861.16   5
   8   3 -21-16911.2 8699.00   1
   8  -3  22 882.475 6390.88  16
  -8  -3  22 1897.45 1903.20   5
  -8  -3  22-4173.72 7185.01   2
   8  -3  22 3137.49 2113.22   8
  -8  -3  22-5153.82 5635.66  16
   8   3 -22-383.112 5599.37   1
  -8  -3  23-519.238 1472.79  16
   8  -3  23 5867.59 6662.64  16
   8  -3  23 8575.57 3831.77   8
   8   3 -23 1562.97 4049.78   1
   8  -3  24-2144.93 2731.33  16
  -8  -3  24 6460.93 4566.45   2
   8  -3  24 6537.08 5415.89   8
  -8  -3  24 1639.74 4087.29  16
   8   3 -24 3409.09 5318.40   1
   8  -3  25 4782.61 8463.27  16
   8  -3  25 23486.5 6858.85   8
   8   3 -25 969.529 5322.88   1
   8  -3  26 7211.47 9179.16  16
   8  -3  26 7105.90 4109.29   8
   8  -3  27 10014.4 11010.3  16
   8  -3  28 4200.70 7487.97  16
   8  -3  29 268.125 4963.81  16
   8  -4   0 49574.8 11001.6  14
   8   4   0 41386.1 11672.3  18
   8  -4   0 38296.1 9568.74   1
   8  -4   1 243.094 1838.37  14
  -8   4  -1 558.948 612.322   5
   8   4  -1-467.941 3923.22  18
  -8   4  -1-2991.15 4830.38   4
   8  -4   1-1527.22 3041.68   1
   8  -4   1-1061.06 4171.42   6
  -8   4  -2 89081.1 13317.2   5
   8  -4   2 61502.5 11928.9   1
   8  -4   2 58203.4 12717.5  14
  -8   4  -2 107468. 18518.3   4
   8   4  -2 70728.6 15717.1  18
   8  -4   2 53492.8 12817.2   6
  -8   4  -3-531.543 2447.38   5
   8  -4   3-927.418 1883.23  14
   8   4  -3 2189.85 2252.31   8
   8  -4   3 4348.91 3605.78   1
  -8   4  -3-1149.11 2657.97   4
   8   4  -3 2306.52 2819.38  18
   8  -4   3 2359.28 2370.66   6
  -8   4  -4 12912.4 6907.59   4
  -8   4  -4 16267.2 6016.18   5
   8  -4   4 10807.6 5303.03  14
   8  -4   4 14457.8 4900.43   1
   8   4  -4 20654.4 12641.0  18
   8   4  -4 17678.8 9465.91   8
   8  -4   4 9113.88 5661.03   6
  -8   4  -5 2158.65 3625.42   5
   8  -4   5-3384.23 4705.72  14
   8  -4   5-1060.21 1020.15   1
   8   4  -5 1419.22 2345.74   8
  -8   4  -5 1858.86 4015.17   4
   8   4  -5-1727.74 4175.09  18
   8  -4   5 2018.32 2549.08   6
  -8   4  -6-3406.48 4628.15   5
   8  -4   6 2682.65 2805.09  14
   8  -4   6 281.670 2548.93   6
   8   4  -6-911.348 1546.88   8
   8  -4   6 790.518 4345.77   1
  -8   4  -6-3340.41 4774.76   4
   8   4  -6-1677.61 3829.12  18
  -8   4  -7 11539.3 5954.72   5
   8  -4   7 3307.34 2230.29  14
   8  -4   7 6276.76 2442.92   1
   8   4  -7 7193.30 3628.81   8
  -8   4  -7 3919.26 2999.56   4
   8   4  -7 4634.64 927.375  18
   8  -4   7 10656.2 6694.72   6
  -8   4  -8 2797.25 3092.07   5
   8  -4   8 548.096 3211.15  14
   8   4  -8 1124.39 880.163  11
  -8   4  -8 2681.11 4619.35   4
   8  -4   8-1419.49 1709.58   1
   8   4  -8-1635.35 2294.05   8
   8   4  -8 731.420 2362.29  18
  -8   4  -9 1855.60 3341.05   5
   8  -4   9 5298.39 2963.18  14
   8  -4   9 2638.42 2913.56   1
   8   4  -9 5597.11 6252.77  11
  -8   4  -9 2991.35 4137.31   4
   8   4  -9 5889.58 3466.82   8
   8  -4   9 3226.89 3752.12   8
   4   8  -9-7558.44 7863.09  18
   8   4  -9 2230.24 3489.80  18
   4   8 -10 26938.9 10250.0  18
   8  -4  10 30175.8 8889.13  14
   8   4 -10 25487.5 9130.68  11
  -8   4 -10 16494.7 7038.23   4
   8  -4  10 25942.7 7969.61   8
   8   4 -10 22438.7 8104.83  18
   4  -8  10-779.686 2807.04   6
   8  -4  11 5364.36 4262.66  14
  -8   4 -11 804.272 2379.14   4
   8   4 -11 3050.15 3647.78  11
   4   8 -11 2581.87 3179.24  18
   8  -4  11 6905.36 4224.12   8
  -8  -4  11 3085.65 4144.10   2
   4  -8  11-1441.69 4825.73   6
  -4  -8  11-13.2607 1478.83   6
  -8  -4  12 42690.1 11045.2   2
  -4   8 -12 108131. 15804.7   4
   8  -4  12 72823.1 13005.1   8
   4   8 -12 61462.7 17285.2  18
  -4   8 -12 34667.9 8889.64  18
   4  -8  12 22386.1 10750.5   6
  -4  -8  13-1956.73 1313.12   6
   4  -8  13 1096.89 951.913  14
  -4   8 -13-1594.41 4128.00  18
  -4   8 -13-1181.74 3540.55   4
   8  -4  13-4504.34 4261.57   8
   4   8 -13 1046.47 3899.25  18
  -8  -4  13-5567.97 3992.88   2
   4  -8  13-2527.55 3318.74   6
   8  -4  13-5405.92 5124.79  16
   4  -8  14 24991.6 16519.8   6
  -8  -4  14 54783.7 13222.1   2
   8   4 -14 37133.1 13056.6   1
   4  -8  14 37052.4 8229.56  14
  -4   8 -14 125557. 18780.1   4
   8  -4  14 86361.6 14211.0   8
   4   8 -14 120965. 27766.8  18
  -4   8 -14 69818.6 14558.1  18
  -8  -4  14 78037.8 13568.2  16
   8  -4  14 86903.2 16283.3  16
  -8  -4  15 2735.57 4197.11   2
   8   4 -15-4104.03 5967.35   1
   4  -8  15 1275.13 1067.86  14
  -4   8 -15 4105.36 3569.53  18
   4   8 -15 10425.7 10040.5  18
  -4   8 -15 2556.87 2484.57   4
   8  -4  15 3211.31 3279.90   8
  -8  -4  15 5002.21 4238.37  16
   8  -4  15-4002.97 4056.40  16
  -8  -4  16 2781.91 7248.31   2
   8   4 -16 945.330 2886.74   1
   4  -8  16 15579.5 6137.43  14
  -8  -4  16 13668.5 7657.46  16
   8  -4  16 6662.95 7783.26  16
   8  -4  16 3564.82 5391.33   8
  -4   8 -16 24887.4 8242.71  18
   4   8 -16 34686.3 12332.3  18
  -8  -4  17-1813.80 4238.14   2
   8   4 -17-5851.69 6801.01   1
  -4   8 -17 10361.1 6483.44  11
   4   8 -17 2502.55 5812.23  11
   8  -4  17 2573.83 4105.39   8
   4   8 -17 2558.61 3527.01  18
   8  -4  17 2709.77 5443.32  16
  -8  -4  17 812.029 3737.12  16
  -8  -4  18 3073.89 4951.42  16
  -8  -4  18 841.254 5895.35   2
   8   4 -18-1782.70 5050.80   1
   4   8 -18-2829.63 6868.71  11
  -4   8 -18 6405.92 3258.97  11
   4   8 -18-487.061 3173.42  18
   8  -4  18 3295.22 3764.66   8
   8  -4  18 2149.88 5341.57  16
   8  -4  19-751.898 1357.44  16
  -8  -4  19 3561.99 4367.15  16
   4   8 -19 126.269 3891.92  18
   8   4 -19-8640.25 5468.77   1
  -8  -4  19-70.1979 2452.25   2
   4   8 -19 4244.50 3437.71  11
   8  -4  19 2759.45 2589.88   8
   8  -4  20-424.840 2200.39  16
  -8  -4  20-3629.92 2676.70  16
  -8  -4  20-2368.26 4701.31   2
   8   4 -20-893.425 2360.11   1
   4   8 -20 3387.57 4859.25  11
   8  -4  20-1159.76 3258.69   8
   8  -4  21-1666.64 4747.47  16
  -8  -4  21 25.0901 811.168  16
  -8  -4  21 635.810 4043.19   2
   8   4 -21-541.202 5426.77   1
   8  -4  21-151.581 1959.71   8
   8  -4  22 441.033 505.179  16
  -8  -4  22 229.471 3043.95  16
  -8  -4  22-202.698 3564.23   2
   8   4 -22-1573.82 5052.74   1
   8  -4  22 2503.63 3279.77   8
   8  -4  23-2207.09 3870.92  16
  -8  -4  23-5698.40 6267.17  16
  -8  -4  23-1009.82 5022.31   2
   8   4 -23 824.784 3413.81   1
   8  -4  23 4493.17 4435.33   8
   8  -4  24 2513.64 2313.74  16
  -8  -4  24-1027.51 1167.21  16
   8   4 -24 1897.95 2688.09   1
   8  -4  24 5729.45 5695.24   8
  -8  -4  24-2566.08 7544.85   2
   8  -4  25 1470.78 8198.30  16
  -8  -4  25 23683.9 12008.3  16
   8  -4  25 1873.26 3804.45   8
  -8  -4  25 24086.7 19004.8   2
   8  -4  26 4102.58 9306.89  16
  -8  -4  26 49525.8 22180.3   2
   8  -4  27-1808.96 5066.87  16
  -8  -4  27 902.134 4377.13  16
  -8  -4  27 211.623 1134.87   2
   8  -4  28 6317.31 9747.98  16
  -8  -4  28-6127.66 5703.18  16
  -8  -4  28-2266.52 8231.07   2
   8  -4  29-2616.22 3232.49  16
  -8  -4  29 238.037 1993.67   2
   8  -4  30-2491.86 10208.0  16
   8  -4  31-1985.27 2797.44  16
   8   5  -1 35294.2 10306.6  18
   8   5  -2 14908.9 7169.35  18
   8  -5   3 4276.73 3126.28  14
  -8   5  -3 15479.0 4972.43   5
   8  -5   3 6659.55 3286.91   1
  -8   5  -3 17263.9 6486.57   4
   8   5  -3 11445.1 5713.69  18
   8  -5   3 12378.0 6387.11   6
  -8   5  -4 9579.67 4226.87   5
   8  -5   4 412.632 2532.21  14
   8  -5   4 3020.96 1260.43   1
   8   5  -4 7612.93 5892.11  18
  -8   5  -4 11215.2 6066.78   4
   8  -5   4 5490.05 5492.20   6
   8  -5   5 1740.78 4681.54   6
  -8   5  -5 2803.81 2255.59   5
   8  -5   5 1284.11 2647.14  14
   8  -5   5 2123.17 2361.81   1
  -8   5  -5-1045.84 2484.31   4
   8   5  -5 2458.05 3785.06   8
   8   5  -5 1536.05 5153.91  18
  -8   5  -6 6170.11 4629.70   4
   8  -5   6 5224.88 3145.96   1
   8   5  -6 8448.28 5862.13  18
  -8   5  -6 3061.89 3202.18   5
   8  -5   6 3730.42 3812.49  14
   8   5  -6-1058.45 1323.63   8
   8  -5   6 4785.78 3375.05   6
  -8   5  -7 3802.92 2805.25   5
   8  -5   7 3922.92 2730.08  14
   8   5  -7-1545.12 5228.31   8
   8  -5   7 3144.19 2623.49   1
  -8   5  -7 4407.05 5178.32   4
   8   5  -7 11585.0 9272.33  18
   8  -5   7-48.3814 2805.13   6
  -8   5  -8-3443.71 4956.89   5
   8  -5   8-1062.66 4026.28  14
   8  -5   8-67.6551 2181.07   6
   5   8  -8-2714.20 6309.39  18
   8   5  -8 727.039 1565.02   8
   8   5  -8 4720.14 6067.24  18
  -8   5  -8 4324.87 4941.70   4
   8  -5   8-1003.92 2343.95   1
  -8   5  -9 3268.76 2664.90   5
   8  -5   9 1495.64 5610.24   6
   8  -5   9-1452.42 4526.13   1
   8   5  -9-2230.71 5012.13  18
   8   5  -9-1138.51 1664.99   8
  -8   5  -9-5498.00 5248.70   4
   5   8  -9 3683.14 4045.73  18
   8  -5   9 2327.57 3430.27  14
  -8   5 -10 4831.61 4985.88   5
   8  -5  10 1968.68 966.879  14
   8   5 -10 3873.32 5859.09  11
   5   8 -10 5330.24 4804.45  18
   8  -5  10 1399.82 2730.22   1
  -8   5 -10 8351.29 8245.82   4
   8   5 -10 2083.03 1557.49   8
   8   5 -10-689.183 1561.67  18
   5  -8  10-1063.02 3576.33   6
   8  -5  11 51146.7 12240.9  14
  -8   5 -11 21508.3 7142.91   5
   8  -5  11 27359.4 8165.28   1
   8   5 -11 46307.0 12577.2  11
  -5   8 -11 59232.6 12081.0   4
  -8   5 -11 23596.4 9369.69   4
   8   5 -11 39646.2 11826.1  18
   5   8 -11 49078.6 16694.4  18
   5  -8  11 3508.41 7381.81   6
   8   5 -12 4457.12 1186.14  11
   5   8 -12 25.6231 1937.28  18
   8  -5  12 1350.27 2384.60  14
   5  -8  12-1.13597 2587.65  14
   8   5 -12 2929.49 2787.83  18
  -8   5 -12 3548.55 3167.75   4
  -5   8 -12-2400.33 5669.83  18
   5  -8  12-6084.57 7732.59   6
  -5   8 -12 3089.39 3925.05   4
  -5  -8  12-2510.08 1623.02   6
   8  -5  13 46880.1 11740.2  14
   5  -8  13 13206.2 5304.48  14
  -5   8 -13 67277.6 13954.0   4
  -8   5 -13 17673.1 8047.38   4
   8   5 -13 66619.0 16849.5  11
   5  -8  13 13428.2 8976.94   6
  -5   8 -13 37631.6 9788.67  18
   5   8 -13 64351.5 19014.5  18
   5  -8  14-893.525 6865.01   6
   5  -8  14 1306.22 324.266  14
   5   8 -14-672.328 4305.00  18
  -5   8 -14 4001.80 3707.58   4
   8  -5  14-1236.71 280.700   8
  -8  -5  15 4282.89 5291.14   2
  -5   8 -15 31984.8 9321.40   4
   5   8 -15 35881.9 14119.7  18
   8  -5  15 9599.47 6559.33   8
   5  -8  15 9010.11 6876.78  14
   5   8 -16-4573.68 6218.84  18
   5  -8  16-2386.32 1336.39  14
   8  -5  16 1669.44 2687.85   8
  -8  -5  16-3485.90 3959.43   2
  -8  -5  17 1007.00 4705.98   2
   5   8 -17 536.959 9184.68  11
  -5   8 -17 401.566 1770.18  11
   5   8 -17 806.523 3304.10  18
   8  -5  17 959.103 1980.35   8
   8  -5  17-815.683 2768.05  16
  -8  -5  17 3322.16 2384.13  16
  -8  -5  18-89.7967 666.120   2
   5   8 -18-700.532 1487.63  18
   5   8 -18-47.3547 3235.88  11
   8  -5  18 444.837 2585.45   8
  -5   8 -18-531.791 3348.16  11
  -8  -5  18 2782.49 2999.85  16
   8  -5  18-1077.34 3209.14  16
  -8  -5  19 59.9513 1135.52   2
   5   8 -19-2436.67 8554.24  11
   8  -5  19-807.543 1215.57   8
  -8  -5  19-3005.22 3850.86  16
   8  -5  19-107.214 3335.24  16
  -8  -5  20 3204.27 5073.54   2
  -8  -5  20 3850.14 2585.75  16
   5   8 -20-638.757 3264.42  11
   8  -5  20-2210.20 689.466   8
   8  -5  20-225.715 3853.61  16
  -8  -5  21 76.7103 2075.89   2
   8  -5  21-1018.25 1431.46   8
  -8  -5  21 1717.27 4686.81  16
   8  -5  21-654.567 1074.72  16
  -8  -5  22 298.310 940.871   2
   8  -5  22 656.336 1403.31   8
  -8  -5  22 8895.57 5539.57  16
   8  -5  22 4224.33 4736.44  16
  -8  -5  23 8038.82 8249.86   2
  -8  -5  23-3673.82 4617.38  16
   8  -5  23-1952.33 3119.67   8
   8  -5  23-1930.34 4165.54  16
  -8  -5  24 2417.12 3217.81   2
   8  -5  24 557.164 2219.76   8
   8  -5  24 106.281 4083.63  16
  -8  -5  24 5456.61 6216.76  16
  -8  -5  25 3955.83 7488.03   2
   8  -5  25 1821.60 5890.06  16
  -8  -5  25 7564.96 3381.24  16
  -8  -5  26-1108.56 6483.62   2
   8  -5  26-2079.27 4033.91  16
  -8  -5  26-3934.58 1359.68  16
  -8  -5  27 2220.74 6575.53   2
   8  -5  27 3655.86 7943.59  16
  -8  -5  27 7254.80 5032.09  16
  -8  -5  28-544.043 5260.08   2
   8  -5  28 257.278 2932.21  16
  -8  -5  28 10788.1 6505.28  16
  -8  -5  29-1494.34 5328.24   2
   8  -5  29 4909.81 5028.13  16
  -8  -5  29 6103.39 5680.06  16
  -8  -5  30 4651.11 3694.49   2
   8  -5  30 230.458 3296.77  16
  -8  -5  30 5131.45 4828.09  16
  -8  -5  31-4548.42 5186.26   2
   8  -5  31 2673.41 4959.05  16
   8  -5  32 151.058 5852.68  16
   8  -5  33 923.104 6049.26  16
   8  -5  34 1506.02 4583.84  16
   8   6  -3 15530.8 8988.20  18
   8   6  -4 58.0951 2715.62  18
  -8   6  -5 12283.1 3847.44   5
   8   6  -5 10964.1 8332.73  18
  -8   6  -5 13909.4 7730.13   4
   8  -6   5 8182.24 6103.07   6
  -8   6  -6 7726.85 4958.90   4
  -8   6  -6 10439.0 4316.89   5
   8  -6   6 3611.84 3508.89  14
   8   6  -6 6846.22 6045.80  18
   8  -6   6 5515.67 2793.25   1
   8  -6   6 11801.4 8174.93   6
  -8   6  -7 4596.85 1457.09   4
  -8   6  -7 7003.33 3959.29   5
   8  -6   7 5415.04 3281.18  14
   8   6  -7 3593.52 4137.75   8
   8   6  -7 760.425 749.486  18
   8  -6   7 4323.15 6269.13   6
   8  -6   7 6647.14 4361.05   1
   8  -6   8 13580.4 4849.49   1
  -8   6  -8 22209.8 6836.26   5
   8  -6   8 17353.1 6837.72  14
   8   6  -8 15589.8 6592.54   8
   8  -6   8 9293.84 6741.44   6
   6   8  -8 10666.8 6898.31  18
  -8   6  -8 14754.9 6823.41   4
   8   6  -8 26466.0 13558.0  18
  -8   6  -9 17717.9 6520.48   5
   8  -6   9 16664.2 6505.14  14
   8  -6   9 15091.2 6657.59   1
   6   8  -9 9687.69 8034.14  18
   8   6  -9 8488.05 4495.10   8
  -8   6  -9 17633.1 9157.21   4
   8   6  -9 11661.6 4460.21  18
   8  -6   9 2422.42 1835.62   6
   6  -8   9-2996.28 4753.57   6
   8   6 -10-4606.69 4888.15  18
   8  -6  10 2667.56 3089.76   6
  -8   6 -10 2130.31 3472.11   5
   8  -6  10 350.208 1463.43  14
   6   8 -10 136.632 3213.56  18
   8   6 -10-821.133 1013.72   8
   8  -6  10 5024.76 4721.14   1
  -8   6 -10 7309.79 7970.76   4
  -6   8 -10-3477.14 4995.78   4
   6  -8  10 248.348 4431.47   6
  -8   6 -11 4057.95 3641.98   5
   8  -6  11 1162.66 1490.16  14
  -6   8 -11 5171.58 4190.02   4
  -8   6 -11 6192.79 4295.31   4
   8  -6  11 7202.83 5475.38   1
   8   6 -11 6258.72 4227.98  18
   6  -8  11 2605.09 2019.94   6
  -6  -8  11-5536.39 2976.74   6
  -8   6 -12 12729.1 6653.69   5
   8   6 -12 13484.5 8208.28  18
   8  -6  12 13016.0 5164.30  14
   6  -8  12 968.795 2846.38  14
   8   6 -12 24600.4 7197.69  11
  -8   6 -12 9988.82 7067.94   4
  -6   8 -12 17771.1 6963.45   4
   6   8 -12 9167.07 6387.27  18
   6  -8  12 3117.87 2912.24   6
   8  -6  13 3308.82 6835.20  14
   6  -8  13 1487.47 4956.91  14
   8   6 -13 16679.9 9290.32  11
  -8   6 -13 11431.3 7258.42   4
  -6   8 -13 20978.2 9009.83   4
   6   8 -13 10703.3 8103.68  18
   8   6 -13 9354.30 5935.07  18
   6  -8  13 10437.6 8154.04   6
   8  -6  14 93.8056 5412.82  14
   6  -8  14 4005.37 6319.82  14
   8   6 -14 5263.33 7572.93  11
  -8   6 -14 6414.14 4887.17   4
  -6   8 -14 11683.3 4478.24   4
   6  -8  14 8123.52 8982.89   6
   6   8 -14 17341.9 8865.72  18
   8   6 -14 13572.3 6122.43  18
   8  -6  15 736.774 3250.58  14
   8   6 -15 308.075 7261.31  11
  -6   8 -15 1925.43 4724.67   4
   6   8 -15 4438.35 4053.04  18
   6  -8  15-59.4181 1943.34  14
   6   8 -16 3914.95 6427.71  11
  -6   8 -16-249.688 2684.67   4
   6  -8  16 274.007 4775.94  14
   6   8 -16 1947.39 1504.12  18
   6   8 -17-533.267 4390.28  18
   6   8 -17-270.321 4476.24  11
   6   8 -18 1215.45 8047.57  11
   6   8 -18-463.151 4255.08  18
   6   8 -19 1674.53 8106.65  11
  -8  -6  20 133.627 3029.05   2
  -8  -6  21 4055.47 5590.72   2
  -8  -6  22-195.398 2794.74   2
   8  -6  22-1606.28 3091.39  16
   8  -6  23 5357.69 4849.81   8
  -8  -6  23-4872.26 4471.86  16
   8  -6  23 542.743 2920.41  16
  -8  -6  23 1831.76 5739.21   2
  -8  -6  24 463.704 966.056  16
   8  -6  24 1936.40 5879.71  16
  -8  -6  24 2195.09 4190.92   2
   8  -6  25 1286.35 3676.74  16
  -8  -6  25-1367.27 4822.15   2
  -8  -6  25 2322.50 1825.72  16
  -8  -6  26 7714.27 6840.11   2
   8  -6  26 2917.08 5566.96  16
  -8  -6  26 8996.87 5313.08  16
   8  -6  27-678.835 5147.26  16
  -8  -6  27-3816.00 5116.89   2
  -8  -6  27-311.353 3031.41  16
  -8  -6  28-8721.58 5507.14  16
   8  -6  28-270.195 2579.81  16
  -8  -6  28-12772.7 6845.54   2
  -8  -6  29-1252.42 3880.25  16
   8  -6  29 1724.41 4599.88  16
  -8  -6  29 991.330 4256.45   2
   8  -6  30-3137.09 3924.98  16
  -8  -6  30 4581.26 5725.20   2
   8  -6  31-7507.70 4816.35  16
  -8  -6  31 1889.84 2761.90   2
   8  -6  32 1712.50 3902.74  16
  -8  -6  32 4244.38 5821.64   2
   8  -6  33 7668.21 7393.69  16
  -8  -6  33 919.912 3453.93   2
   8  -6  34 3069.89 5473.79  16
   8  -6  35-2719.90 4785.48  16
   8  -6  36 614.274 2528.91  16
   8   7  -4 2953.26 5048.05  18
   8   7  -5 21439.9 9025.64  18
   8   7  -6 7264.74 5107.58  18
   8   7  -7 36821.8 13655.7  18
   7   8  -7 25715.9 11615.7  18
   8  -7   7 12567.6 10162.2   6
  -8   7  -8 6575.43 3798.44   5
   8  -7   8-521.272 3020.98  14
   8   7  -8 2605.50 3905.18  18
   7   8  -8 3735.12 7895.26  18
  -8   7  -8-456.753 3766.89   4
   8  -7   8 3817.26 4241.58   6
   8  -7   9 12788.9 4961.01   1
   8   7  -9 28272.3 12179.4  18
  -8   7  -9 35723.1 8621.11   5
   8  -7   9 19072.9 8430.75  14
   8   7  -9 16317.8 6572.12   8
  -8   7  -9 39297.5 12567.5   4
   7   8  -9 15451.2 9759.17  18
   8  -7   9 9510.39 8288.88   6
   7  -8   9 2730.95 4845.88   6
  -7   8 -10 3739.14 4214.49   4
  -8   7 -10 6442.66 4283.24   5
   8  -7  10-1023.24 3257.01  14
   7   8 -10 2470.04 4147.65  18
   8  -7  10 3515.98 1763.37   1
   8   7 -10-1219.21 5118.72  18
  -8   7 -10 6492.57 6221.73   4
   8  -7  10-2124.29 4818.31   6
   7  -8  10 348.730 6134.48   6
   8  -7  11 787.348 2906.24  14
  -8   7 -11-6682.58 6446.48   5
   7   8 -11 380.258 3608.20  18
  -7   8 -11 183.235 1071.60   5
   7  -8  11 1160.32 751.735  14
   8  -7  11 3425.65 6873.96   6
   8   7 -11 2008.11 3835.97  18
  -8   7 -11 3652.58 4411.80   4
  -7   8 -11 3278.89 2700.63   4
   7  -8  11-7229.98 7070.44   6
   7   8 -12-2017.80 7591.19  18
  -7   8 -12 3250.96 1719.40   4
  -8   7 -12 8443.78 6555.79   5
   8  -7  12 5391.97 9967.32   6
   8  -7  12 6363.79 4147.22  14
   7  -8  12-318.518 4926.22  14
  -8   7 -12 167.453 5914.24   4
   8   7 -12 6428.65 2235.46  18
   7  -8  12 12052.8 7026.75   6
   8  -7  13 1.48129 2705.10  14
   7  -8  13 71.2744 5109.06  14
   7   8 -13 5762.80 6114.27  18
  -8   7 -13-306.609 3709.68   4
  -7   8 -13 2547.91 1842.21   4
   7  -8  13 943.741 4787.00   6
   8   7 -13 4891.19 4896.45  18
   7  -8  14 255.030 3366.97  14
   8   7 -14-553.447 3211.80  11
  -8   7 -14 1312.87 4976.00   4
  -7   8 -14 5397.29 4172.22   4
   8  -7  14 483.387 5122.87  14
   8   7 -14 1476.35 2936.20  18
   7   8 -14 11654.3 8206.92  18
   8  -7  15-1641.12 3255.69  14
   7  -8  15 290.494 1917.73  14
   8   7 -15-408.678 2930.38  11
  -8   7 -15 439.703 3826.48   4
  -7   8 -15 2741.43 5056.50   4
   7   8 -15-2765.46 6410.48  18
   8   7 -15 2323.60 4962.90  18
   8  -7  16 10.8646 3086.17  14
   7  -8  16-20.1010 3145.83  14
   7   8 -16-213.498 5088.34  11
  -8   7 -16 2017.06 3365.97   4
   8   7 -16 598.283 7489.51  11
  -7   8 -16-2743.21 4260.09   4
   7   8 -16-2341.83 6073.96  18
   8   7 -16-329.162 4304.48  18
   7  -8  17-406.285 4055.84  14
   7   8 -17-578.592 2920.66  11
   8   7 -17 2098.89 6799.87  11
   7   8 -17-2261.31 3980.18  18
   7   8 -18 194.260 4700.81  18
   7   8 -18 956.374 7275.32  11
   7   8 -19 3638.58 12100.3  11
   8   8  -7-7118.09 7491.63  18
   8   8  -8 52482.4 18253.1  18
  -8   8  -9 2533.49 4454.87   4
   8   8  -9 949.194 1317.55  18
   8  -8   9 2395.84 5764.87   6
  -8   8 -10 31831.8 7483.62   5
  -8   8 -10 34489.2 11814.6   4
   8   8 -10 34795.8 13993.4  18
   8  -8  10 861.490 4852.03   6
   8   8 -11 35.1660 4552.79  18
   8  -8  11-5820.06 3547.30  14
  -8   8 -11 240.668 1353.46   5
  -8   8 -11-1794.82 2413.56   4
   8  -8  11 206.552 5245.12   6
  -8   8 -12-3310.51 5876.99   4
   8   8 -12-1921.29 6112.73  18
   8  -8  12-127.905 3408.04  14
   8  -8  12 3664.03 7434.84   6
   8   8 -13 908.323 7147.34  18
   8  -8  13 1512.56 4198.34  14
  -8   8 -13-2995.89 3839.07   4
   8  -8  13-966.348 2318.34   6
   8  -8  14 15.5870 995.053  14
  -8   8 -14 8958.04 8455.33   4
   8   8 -14-1466.69 5559.12  18
   8  -8  15-552.808 2388.44  14
   8   8 -15 5985.30 8829.89  11
  -8   8 -15 1134.27 2868.13   4
   8   8 -15 5683.65 7049.41  18
   8  -8  16-2654.92 2766.58  14
   8   8 -16-425.278 8038.09  11
  -8   8 -16 4634.73 5349.32   4
   8   8 -16-883.737 7349.01  18
   8  -8  17-221.695 5273.53  14
   8   8 -17 36.2097 7724.07  11
   8   8 -17 948.263 1371.64  18
   8   8 -18 4704.06 10107.2  11
  -9   0   0-4791.94 5985.20   5
   9   0   0-567.651 3466.46   1
  -9   0   0-2389.92 3139.87   4
   9   0   0 2018.33 2055.96   8
  -9   0   1 474.514 2474.98   5
   9   0   1 13777.2 6869.83   1
  -9   0   1 5094.55 2975.42   2
  -9   0   1 7259.91 4649.13   4
   9   0   1 20024.2 7983.54   8
   9   0  -1 13585.5 6832.84   1
   9   0  -1 12750.9 5581.75   8
   9   0  -1 14562.5 6316.81  14
  -9   0   2 1723.44 3668.04   5
   9   0  -2 4800.32 3933.93  14
  -9   0   2 578.974 1470.37   2
  -9   0  -2-2376.66 2295.76   4
  -9   0   2 5001.97 6004.44   4
   9   0   2 1617.81 1245.60   8
   9   0  -2 3749.98 3719.24   8
   9   0  -2 377.998 3316.33   1
   9   0  -3-692.670 640.905   1
  -9   0   3 1606.04 545.659   5
  -9   0   3 3796.49 2868.00   2
   9   0   3-90.1999 745.549   8
  -9   0   3-49.1718 3448.51   4
   9   0  -3 1188.36 1598.41  14
   9   0  -4 1038.78 1146.44   6
  -9   0   4 4410.67 5495.51   5
   9   0  -4-4108.66 4137.17  14
   9   0   4-1290.71 984.168  16
  -9   0   4-5584.25 3788.14   2
   9   0   4 1293.74 1300.82   8
  -9   0   4-5843.57 4693.40   4
   9   0  -4-3828.67 6610.02   1
   9   0   5 8063.10 3304.98  16
  -9   0   5 14829.3 7445.28   5
   9   0  -5 7331.99 3789.27  14
   9   0   5 5101.60 3334.56   8
   9   0  -5 10784.0 7959.11   1
  -9   0   5 13465.4 6668.56   2
  -9   0   5 4408.62 2466.59   4
   9   0   5 8429.86 3048.80  18
   9   0  -5 8001.43 3003.39   6
  -9   0   6-4168.09 5392.31   5
   9   0  -6 585.044 2498.02  14
   9   0   6-445.409 1702.86  16
   9   0   6 1624.87 4380.98   8
  -9   0   6-1744.36 2967.33   2
  -9   0   6 1054.53 3415.04   4
   9   0  -6 386.666 2564.15   1
   9   0   6 53.9091 967.730  18
   9   0  -6 1994.18 1779.93   6
   9   0   7 9961.94 4613.59  16
  -9   0   7-760.509 3581.79   5
   9   0  -7 5188.74 3558.18  14
   9   0   7 5691.83 6047.45   8
  -9   0   7 3063.66 1508.76   2
  -9   0   7 8900.46 5143.02   4
   9   0   7 4136.00 1393.70  18
   9   0  -7 2660.43 2232.91   1
   9   0  -7 3695.41 1704.74   6
   9   0  -8 4422.99 5512.58   1
  -9   0   8-2511.92 4249.17   5
   9   0   8 2880.93 1926.28  16
   9   0  -8-150.954 1438.07  14
   9   0   8 300.060 1999.04  18
   9   0   8 4415.85 5838.82   8
  -9   0   8 5114.16 4261.42   2
  -9   0   8-283.154 980.127   4
  -9   0   9 3922.08 3238.30   4
   9   0   9 1910.13 971.651  16
   9   0  -9 2889.76 4997.27   1
  -9   0   9 6406.35 5967.62   5
   9   0  -9 4538.15 1981.36  14
   9   0   9 1858.90 3822.39   8
   9   0   9 3118.12 1960.86  18
  -9   0   9 347.552 1516.39   2
   9   0  10-5290.22 5617.64  16
  -9   0  10-375.026 1339.92   5
   9   0 -10-4761.38 3323.93  14
   9   0 -10 1393.62 4096.11   1
   9   0  10-421.154 3565.76   8
  -9   0  10-1680.87 3175.72   2
   9   0  10 1823.22 1368.04  18
  -9   0  10 217.432 1514.83   4
   9   0 -11 4419.37 2991.09  14
  -9   0  11 10669.7 4673.54   5
   9   0 -11 6127.42 6070.84   1
  -9   0  11 10449.6 5027.84   4
   9   0  11 9756.04 6918.69   8
   9   0  11 5417.40 3365.92  16
  -9   0  11 2220.61 1986.94   2
   9   0  11 3662.80 950.825  18
   9   0  12 1605.62 1807.87  16
  -9   0  12-2386.09 2074.65   5
   9   0 -12 1050.54 1310.56  14
   0  -9  12 2462.42 4566.81   6
   9   0  12 476.714 1968.55   8
   9   0 -12 3075.42 4426.64   1
  -9   0  12-3493.06 3958.42   4
   0   9 -12 669.105 421.937  18
  -9   0  12-1353.04 5201.34   2
   9   0  13 22776.9 7733.34  16
   9   0 -13 7463.26 3820.46  14
  -9   0  13 50103.6 11365.0   4
  -9   0  13 37192.7 10577.2   5
   9   0  13 19189.9 7339.68   8
   9   0 -13 12976.5 7952.77   1
   0   9 -13 28140.2 10524.0  18
  -9   0  13 15175.9 7107.89   2
   0  -9  13 6427.99 6539.32   6
   9   0  14-1465.12 3074.96  16
   9   0 -14-326.764 1223.27  14
  -9   0  14 464.904 3045.05   5
   9   0  14-1561.21 3098.97   8
  -9   0  14-2187.75 3126.61   4
   9   0 -14-1628.59 4014.53   1
  -9   0  14 915.994 2590.79   2
   0   9 -14 3078.04 1945.05  18
   0  -9  14-5702.19 3883.32   6
   9   0  15 7552.52 4138.38  16
   9   0 -15 1768.56 2439.49  14
  -9   0  15 9491.67 4610.26   5
  -9   0  15 9888.07 5243.02   4
   9   0  15-642.351 4452.41   8
   0   9 -15 14212.4 8800.10  18
   9   0 -15 824.751 3992.66   1
  -9   0  15 8876.46 6218.49   2
   9   0 -16 357.983 2985.95  14
  -9   0  16-615.693 2413.65   5
   9   0  16-1864.53 3875.57   8
   9   0 -16-1690.88 151.964   1
  -9   0  16-4375.52 5346.28   2
   0   9 -16-4427.97 1259.92  18
   0  -9  16 1204.20 3487.20   6
   9   0  17 887.693 2984.19  16
   9   0  17-924.190 5229.27   8
   0   9 -17 8336.09 8298.74  18
   9   0  18-733.589 3287.90  16
   0   9 -18 1791.97 4295.90  18
   9   0  18 863.350 6159.49   8
   9   0  19 2196.62 6121.11  16
   0   9 -19 9740.91 6774.32  11
   9   0  19 9092.62 5111.33   8
   0   9 -19 6578.60 4119.88  18
   9   0  20-1319.70 7674.79  16
   0   9 -20 1529.45 5557.90  11
   0   9 -20-4674.85 3754.08  18
   9   0  20 6668.24 8488.34   8
   0   9 -21 2719.58 4508.16  11
   9  -1   0 66447.0 18010.4   1
  -9   1   0 27952.1 11005.5   5
   9  -1   0 38838.5 10883.9  14
   9   1   0 31178.8 6279.18  11
   9  -1   0 52494.2 13003.5   8
   9   1   0 35511.4 9322.85   8
  -9   1   0 34956.0 11970.0   4
  -9   1   0 40407.3 8808.54   2
   9   1   0 35690.8 7996.63  18
  -9   1  -1 4437.75 3188.38   2
  -9   1  -1 1281.77 1408.19   5
   9   1   1 3840.32 2056.43  11
  -9   1   1 5029.61 3455.21   5
   9  -1   1-851.304 1311.39  14
   9  -1  -1-324.140 2050.66  14
  -9  -1   1 2101.71 3039.41   4
   9  -1  -1-2047.12 4716.68   1
  -9   1   1 1159.16 1459.01   2
   9   1   1-275.920 3142.87   8
  -9   1  -1 134.170 3593.89   4
   9   1  -1-1765.25 2882.31   8
  -9   1   1 520.346 2019.43   4
   9  -1   1 1831.62 4559.95   8
   9  -1  -1 5271.96 4496.15   6
   9   1   1 617.838 853.434  18
   9  -1   1-517.584 2539.92   1
  -9   1  -2 7137.00 5270.65   5
   9  -1   2 4414.17 2580.47  14
  -9   1   2 3494.34 2309.56   5
   9  -1  -2 11817.0 5654.96  14
   9   1  -2 15935.4 7827.24   1
   9   1   2 17794.8 4651.90  11
  -9  -1   2 5478.13 5158.12   4
   9   1   2 11960.9 6668.86   8
  -9   1  -2 12209.1 7363.02   4
  -9   1   2 16613.3 6234.63   2
   9  -1   2 18375.7 8644.74   1
   9   1  -2 21335.9 5991.91   8
   9  -1  -2 15686.7 8679.65   1
  -9   1   2 14404.1 7089.80   4
   9  -1   2 21381.4 9043.94   8
   9   1   2 9552.28 3916.17  18
   9  -1  -2 17249.1 6329.91   6
   9   1   2 8638.80 2592.92  16
  -9  -1   3-2070.42 3883.68   2
  -9   1  -3-531.820 4021.95   5
  -9  -1   3 2530.24 3845.92   5
   9  -1   3 158.284 1828.58   1
   9  -1   3 4654.97 4639.22  14
   9  -1  -3 6745.25 4809.86  14
   9   1  -3 8184.37 5835.85   1
  -9  -1   3 1008.67 1975.91   4
  -9   1  -3 569.244 2171.76   4
  -9   1   3 2513.69 2067.74   5
   9   1   3 2834.44 3949.10   8
   9  -1  -3 7253.80 4219.33   6
   9   1   3 2365.21 1621.26  16
   9   1   3 4263.76 2628.69  18
  -9   1   3 5142.65 3981.76   2
   9  -1   3 3427.66 685.876   8
   9   1  -3 6563.68 4290.86   8
  -9   1   3 5853.88 4196.22   4
   9  -1  -3 10187.2 7593.87   1
  -9  -1   4 1570.26 733.637   5
   9   1   4 580.530 1418.79  16
  -9  -1   4-2048.70 3064.97   2
   9  -1  -4-923.258 2299.85   1
  -9   1   4-117.060 3135.90   5
   9  -1  -4-547.817 2688.66  14
  -9   1  -4-2554.94 4238.93   4
   9   1   4-492.966 2685.04   8
  -9  -1   4-66.9022 955.212   4
   9  -1   4 128.397 2104.37   8
   9   1  -4-781.099 2628.91   1
  -9   1   4-1729.91 2512.81   2
  -9   1   4 1579.97 3516.28   4
   9   1  -4-4941.57 4310.66   8
   9   1   4 182.510 1979.20  18
   9  -1  -4 3247.01 2736.92   6
  -9  -1   5 2832.03 4628.12   5
   9   1   5-826.884 1955.05  16
   9  -1  -5 948.549 1681.34  14
   9  -1  -5 3157.92 2518.92   1
  -9   1  -5 5472.95 5959.95   4
   9   1  -5 2082.01 2558.72   1
   9   1   5-1028.56 3544.74   8
  -9  -1   5-282.148 1643.37   4
   9  -1   5-3506.87 4088.15   8
  -9   1   5 1519.88 1713.73   5
  -9   1   5 806.987 2919.12   4
  -9   1   5-2545.67 2424.56   2
   9   1   5-1733.57 2408.96  18
   9  -1  -5-226.017 1765.89   6
  -9  -1   5 6113.70 3412.10   2
  -9  -1   6 90.2847 2868.54   5
   9   1   6 5664.61 3599.73  16
   9   1  -6 3757.12 3635.52  14
   9  -1  -6 7041.22 3911.15  14
  -9  -1   6 5268.28 2597.61   2
  -9   1   6 3881.48 3310.13   4
   9   1   6 3132.81 5644.11   8
   9  -1  -6 4017.79 4188.01   1
  -9  -1   6 4547.80 4163.83   4
   9  -1   6 6405.01 3556.13   8
  -9   1   6 800.810 323.250   5
   9   1   6 3742.64 2621.32  18
  -9   1   6 5568.57 4062.61   2
   9  -1   6 4662.83 2699.12  16
   9   1  -6 1960.96 4494.15   1
  -9  -1   7 2769.85 1753.40  16
   9   1  -7 2234.85 4401.63   1
   9   1   7 4695.78 3315.64  16
  -9  -1   7 6520.06 3582.29   5
   9   1  -7 2424.40 585.830  14
  -9   1   7 2611.48 2927.80   2
  -9   1   7-16.5585 1753.03   5
   9  -1  -7 3522.16 2011.18  14
  -9  -1   7 2523.56 3323.05   2
   9   1   7 9141.97 8178.01   8
   9  -1   7 6079.74 5504.89   8
  -9  -1   7 3020.79 3565.77   4
  -9   1   7 3937.28 3909.82   4
   9  -1  -7 3413.98 1915.15   1
   9   1   7 882.279 2619.27  18
   9  -1   7 6325.22 4167.80  16
   9  -1   8 2308.24 1928.22  16
   9   1   8-245.280 1853.18  16
  -9  -1   8-152.307 3026.03   5
   9   1  -8-679.344 894.977  14
   9   1  -8 11356.9 8775.65   1
  -9   1   8 5265.65 4882.37   5
   9  -1  -8 771.124 2052.39  14
  -9  -1   8 4620.54 2739.41  16
  -9   1   8 3984.64 4014.43   2
   9  -1  -8 6819.31 5283.11   1
   9   1   8 1069.13 3749.13   8
  -9  -1   8 3229.62 1152.34   2
   9  -1   8 1317.62 2212.22   8
  -9  -1   8 1484.86 2435.29   4
   9   1   8-496.788 2592.06  18
  -9   1   8 6699.38 4969.95   4
   9   1  -8 6354.47 2330.16   6
   9  -1   9 3095.12 2257.80  16
   9  -1  -9 6450.52 6405.65   1
  -9  -1   9 377.831 2196.57  16
   9   1   9 1249.75 751.062  16
  -9  -1   9 5410.43 4980.31   5
   9   1  -9-900.147 2457.57  14
  -9   1   9 5701.96 4852.29   5
   9  -1  -9 2587.66 2115.34  14
   9   1  -9-489.919 1262.69   1
   9   1   9 154.336 4625.87   8
  -9  -1   9 1527.31 1305.67   2
   9  -1   9 7168.76 4018.00   8
  -9  -1   9 4005.81 4836.81   4
  -9   1   9 438.487 1896.87   4
  -9   1   9-132.907 1621.38   2
   9   1  -9 3209.04 1555.16   6
   9  -1  10 3539.34 2103.63  16
  -9  -1  10-258.204 1806.89  16
  -9  -1  10 6642.83 6795.21   5
   9   1 -10 3133.69 959.676  14
   9  -1 -10 2036.80 5402.77   1
   9  -1 -10 4137.46 2701.91  14
   9   1  10 595.862 1974.08   8
   9  -1  10 5912.84 3585.10   8
  -9  -1  10 6783.25 5867.22   2
   9   1 -10 872.167 690.647   1
  -9  -1  10 10174.0 7215.43   4
  -9   1  10 1501.50 2181.71   4
  -9   1  10 3397.29 2825.28   2
  -9   1  10 4158.17 4046.31   5
   9   1 -10 2056.61 802.097   6
   9  -1  11 5810.43 5486.14  16
  -9  -1  11 6717.48 3106.23  16
  -9  -1  11 6326.08 5274.80   5
   9   1 -11 5567.83 2706.75  14
   9  -1 -11 5744.10 4162.75  14
   9  -1 -11-3612.61 4672.83   1
  -9   1  11 245.180 1958.97   2
   9   1  11 412.386 2573.23   8
   9  -1  11 3054.85 3205.14   8
  -9  -1  11 7390.04 6057.34   2
   9   1 -11 7612.23 7439.64   1
  -9  -1  11 4657.25 4427.12   4
  -9   1  11 3636.20 2973.93   5
   9  -1  12 20790.0 8436.04  16
  -9  -1  12 25549.9 9346.51   5
   9   1 -12 9223.49 4797.62  14
   9  -1 -12 2191.23 1961.73  14
  -9   1  12 19069.0 6686.15   5
  -9  -1  12 19154.0 5927.82  16
   9  -1 -12 8621.32 6870.26   1
   9  -1  12 27000.5 9383.61   8
  -9  -1  12 16806.1 8709.31   2
  -9  -1  12 25878.5 8223.48   4
   1   9 -12 10357.1 8111.62  18
  -1   9 -12 12850.5 6927.49  18
   9   1 -12 26521.4 10960.5   1
  -9   1  12 16804.4 6919.55   2
   1  -9  12-6512.56 5661.16   6
  -1  -9  12 1372.42 3045.08   6
   9  -1  13 516.667 6699.76  16
  -9  -1  13 2261.13 2254.23  16
  -1   9 -13 3229.92 4623.19  18
  -9  -1  13-958.202 4303.60   5
   9  -1  13-336.130 1487.64   8
  -9  -1  13 2380.68 4880.27   2
  -9  -1  13 7463.20 5327.79   4
   1   9 -13 8040.96 8674.94  18
   9   1 -13 3254.69 5910.60   1
   9   1 -13 3157.60 2432.10  14
   1  -9  13 7027.23 7172.34   6
  -1  -9  13-2984.56 3171.88   6
   9  -1  14 40691.3 11215.9  16
  -9  -1  14 19221.2 5598.06  16
   9   1 -14 12124.3 5877.18  14
  -9  -1  14 25796.8 8004.68   5
   1   9 -14 29312.9 12375.1  18
   9  -1  14 29133.7 11055.4   8
  -9  -1  14 28816.9 11860.0   2
  -1   9 -14 31196.1 10824.8  18
  -9  -1  14 36348.8 10142.2   4
  -1  -9  14-3088.49 3415.87   6
   1  -9  14-6701.49 7981.39   6
   9   1 -14 11342.6 7506.16   1
   9   1 -15 4563.49 7101.14   1
  -1   9 -15-1166.28 3545.17  18
   9  -1  15 2616.35 3051.92  16
  -9  -1  15-429.730 2779.27  16
   9   1 -15 585.800 2080.86  14
  -9  -1  15-4167.52 4837.09   5
   9  -1  15-62.5170 2061.62   8
  -9  -1  15-182.296 854.305   2
  -1  -9  15 13722.9 8792.17   6
  -9  -1  15 4693.04 2838.04   4
   1   9 -15-2059.42 5503.71  18
   1  -9  15-150.485 4158.78   6
   9   1 -16 1166.45 7554.48   1
   9  -1  16 3042.46 3040.48  16
   1  -9  16-1448.69 3500.64   6
   9   1 -16 301.989 1373.37  14
  -9  -1  16 7656.69 4216.19   5
   1   9 -16 7767.90 4350.71  18
   9  -1  16 829.994 1814.40   8
  -9  -1  16 9109.11 4627.05   4
  -9  -1  16 274.495 1635.08  16
  -9  -1  16 2648.92 4250.05   2
  -1   9 -16 5099.58 3144.63  18
   9   1 -17-963.184 1981.02   1
   9  -1  17 3089.82 7464.58  16
   9   1 -17-1273.13 2971.19  14
  -9  -1  17 4039.34 3698.99   5
   9  -1  17 2496.90 4684.88   8
  -9  -1  17 2303.28 2400.75  16
   1   9 -17 1849.92 1894.73  18
  -9  -1  17 4680.29 5909.71   2
  -9  -1  17 1465.01 2524.18   4
  -1   9 -17 8121.58 4796.35  18
   9   1 -18 1226.92 5566.09   1
   9  -1  18-1184.36 4899.00  16
  -9  -1  18 1079.55 1442.63  16
  -9  -1  18 5821.53 4833.36   5
   9  -1  18 1817.57 1299.72   8
  -9  -1  18 4320.85 7271.72   2
  -9  -1  18 354.764 1821.90   4
  -1   9 -18 2731.27 613.939  18
   1   9 -18-2549.88 5851.85  18
   9  -1  19-768.854 3704.54  16
   9   1 -19 483.783 6727.11   1
  -9  -1  19 5613.73 3915.70  16
  -9  -1  19 3534.47 3928.92   5
   1   9 -19 2176.52 7689.06  11
  -1   9 -19-7873.02 7092.31  11
   9  -1  19 5201.17 6108.97   8
  -1   9 -19 2707.07 3094.69  18
  -9  -1  19 973.947 6219.89   2
   1   9 -19 859.853 2800.07  18
   9  -1  20-287.245 7723.42  16
   9   1 -20 16495.3 16180.4   1
  -9  -1  20 4730.70 4766.53  16
  -9  -1  20 4575.48 6645.33   5
   1   9 -20-2142.71 4579.87  11
  -1   9 -20 6084.68 4712.97  18
  -1   9 -20 3732.97 4544.92  11
   9  -1  20 9431.49 4549.64   8
  -9  -1  20 2899.49 9775.36   2
   1   9 -20 4112.54 6467.10  18
   9  -1  21-797.040 5128.72  16
   1   9 -21 9898.58 10241.1  11
  -1   9 -21 2957.85 8035.35  11
   9  -1  21-6306.96 4025.12   8
   9  -1  22-4011.48 8106.86  16
   9  -1  22-3884.27 2561.36   8
   9  -1  23 667.140 4352.15  16
   9  -1  23 2562.82 1090.42   8
   9   2   0 8638.86 5033.14  18
  -9   2   0 3378.25 2199.62   5
   9  -2   0 10707.7 4806.43  14
   9   2   0 12466.8 6050.57   8
  -9   2   0 9794.52 6055.82   4
  -9   2   0 7431.24 2765.49   2
   9  -2   0 9059.45 4618.83   6
   9  -2   0 11236.6 6359.65   1
  -9   2   1 86680.2 15969.5   5
   9  -2  -1 94628.6 19004.1   1
   9  -2   1 92153.5 16541.9  14
   9  -2  -1 74609.0 14167.5  14
  -9   2  -1 95661.9 20328.4   4
  -9   2   1 105386. 19041.3   4
   9   2   1 95880.8 18828.9   8
   9   2  -1 103169. 17350.0   8
   9  -2   1 121879. 18785.0   6
   9  -2   1 144167. 24654.8   1
  -9   2   1 54579.6 8130.21   2
   9   2   1 86713.8 16863.9  18
   9   2  -1 82431.7 14518.5  18
   9  -2  -1 96243.0 15017.9   6
  -9   2  -1 82347.5 10191.3   2
  -9   2  -1 86705.0 17555.2   5
   9   2   2 348.959 3478.23  18
  -9   2  -2 620.937 2362.69   5
   9  -2   2 695.857 1619.34  14
  -9   2   2-267.527 2472.44   5
   9  -2  -2 685.361 2183.80  14
   9  -2   2 1834.53 2144.93   1
   9   2  -2-5886.20 4491.86  11
  -9   2  -2 2106.80 839.500   2
   9   2   2 1531.68 1489.71   8
   9  -2  -2 2382.88 3402.85   1
   9   2  -2-114.681 2078.57   8
  -9   2  -2-374.356 6254.68   4
  -9   2   2 3156.79 2313.55   2
   9  -2   2 4807.32 1868.02   6
  -9   2   2 4100.71 2383.59   4
   9   2  -2 4367.33 4481.84  18
   9  -2  -2 878.872 660.495   6
   9  -2   3 22662.2 9595.71   1
  -9   2  -3 9096.73 2751.34   2
  -9   2   3 8664.97 3516.23   2
  -9   2  -3 6277.61 3836.14   5
   9  -2   3 11771.6 5822.26  14
  -9   2   3 10098.9 4430.60   5
   9  -2  -3 7881.55 4687.58  14
   9   2  -3 14766.8 5061.70  11
   9   2   3 9661.80 6874.38   8
   9   2  -3 11829.0 5116.10   8
  -9   2  -3 11649.7 7514.19   4
   9  -2   3 19066.4 8556.01   8
   9   2   3 8844.65 4612.79  18
   9  -2  -3 4901.95 1130.83   1
   9   2  -3 11467.1 4885.84  18
  -9   2   3 9960.39 4194.81   4
   9  -2  -3 8124.96 3810.05   6
   9  -2  -4-2143.62 3812.93   1
  -9   2  -4-2366.22 2532.53   5
   9  -2   4 4737.00 4458.27  14
  -9   2   4 1993.88 1166.00   5
   9  -2  -4-2350.29 2808.55  14
   9   2  -4 1458.41 3100.90  18
   9   2  -4-1771.11 1899.33  11
   9   2   4 97.5386 2083.07  18
   9   2   4 793.094 3224.99   8
  -9   2  -4-764.178 2307.06   4
   9   2  -4-1625.49 2352.49   8
   9  -2   4-3326.70 5520.57   1
   9  -2   4 970.120 1825.68   8
  -9   2   4 792.309 1686.92   4
  -9   2   4 986.735 1487.09   2
  -9   2  -5 1381.73 1478.22   5
   9  -2   5-3042.22 4926.01  14
   9   2  -5 397.552 2339.66   1
  -9   2   5-65.8939 2404.44   5
   9  -2   5-277.221 882.650   1
  -9  -2   5 2315.97 2242.03   4
   9  -2  -5-2774.89 4439.44   1
   9   2   5 569.558 1491.65   8
  -9   2  -5 2693.37 4384.81   4
   9   2  -5-2237.28 1875.73   8
   9  -2   5-2074.05 2340.93   8
  -9   2   5 326.657 1838.90   4
   9   2   5 1179.18 1096.97  18
   9  -2  -5-445.656 1920.57  14
  -9   2   5-2364.08 2663.54   2
  -9  -2   5 2486.25 3488.87   2
  -9  -2   6 5263.91 4783.66   2
   9   2  -6 17004.3 5508.17   8
   9  -2   6 6347.47 2178.22  14
  -9   2   6 8372.69 4705.85   5
   9  -2  -6-1248.77 3241.89  14
   9   2  -6 3164.26 2107.77   1
  -9  -2   6-171.604 3556.54   4
  -9   2  -6 1311.50 2404.45   4
   9  -2  -6 6426.56 2237.47   1
   9  -2   6 6017.61 2744.33   8
  -9   2   6 9934.29 5215.22   4
  -9   2   6 5770.95 2835.91   2
  -9  -2   7-1994.66 3695.61   2
   9  -2  -7 1106.54 2036.41  14
  -9   2   7 758.735 2714.48   5
  -9   2  -7-91.8050 666.876   4
  -9  -2   7 806.490 1617.57   4
   9   2  -7 4399.48 5755.66   1
   9  -2   7-859.660 1564.28   8
   9  -2  -7 2480.39 2729.26   1
  -9  -2   7-75.2324 1737.59   5
  -9  -2   8 1680.49 2980.89   5
  -9  -2   8 4361.95 4216.83   2
   9  -2  -8 1426.90 2212.69  14
  -9   2   8 1985.25 1372.99   5
  -9  -2   8 4127.36 2517.91   4
   9  -2   8 2190.93 344.553   8
   9   2  -8 4073.57 5403.59   1
   9  -2  -8 3717.44 4381.12   1
   9  -2   8-42.6369 1138.38  16
  -9  -2   9 2274.87 3119.99   5
  -9  -2   9 1588.09 3017.99   2
  -9  -2   9 596.000 2675.29   4
   9  -2   9 2309.07 1084.88   8
   9   2  -9-960.133 1977.60   1
  -9  -2   9 2058.48 2255.30  16
   9  -2   9 2552.64 3326.88  16
  -9  -2  10 6644.03 5659.02   5
  -9  -2  10 7123.45 4009.08   2
  -9  -2  10 2717.06 2100.26   4
   9  -2  10 7524.43 3495.01   8
   9   2 -10 10599.9 8163.27   1
   9  -2  10 7616.53 5281.31  16
  -9  -2  10 6238.14 2944.28  16
   9  -2  11 29896.1 8197.55  16
  -9  -2  11 27864.3 6455.32  16
  -9  -2  11 21025.2 9378.99   5
   2   9 -11 11184.9 7486.89  18
  -9  -2  11 21506.1 11123.9   2
  -9  -2  11 22142.4 8388.60   4
   9  -2  11 30791.7 9033.05   8
   9   2 -11 25832.6 11810.4   1
   9  -2  12 5149.38 4114.41  16
   9   2 -12 5361.76 4301.32   1
  -9  -2  12 5240.58 3109.65  16
  -9  -2  12 2263.57 1253.02   5
   2   9 -12-412.437 3901.20  18
  -9  -2  12 2453.46 6470.78   2
   9  -2  12 2117.33 3782.04   8
  -9  -2  12 5733.65 4549.62   4
   2  -9  12 13512.5 8463.44   6
  -2  -9  12-164.923 2842.30   6
   9  -2  13 33890.3 8691.01  16
  -9  -2  13 52723.4 10442.9  16
   9   2 -13 28956.7 13355.2   1
  -9  -2  13 34490.5 11148.1   5
  -9  -2  13 45996.6 17349.2   2
   9  -2  13 37734.8 9477.43   8
  -9  -2  13 36141.3 10059.3   4
  -2   9 -13 27303.1 10342.7  18
   2   9 -13 38131.8 15007.2  18
  -2  -9  13 4889.82 5081.42   6
   9  -2  14 919.474 1508.74  16
  -9  -2  14 1115.52 2153.55  16
   2   9 -14-2818.82 5894.38  18
  -9  -2  14 2461.20 3351.96   5
   9   2 -14-954.754 4891.93   1
  -2   9 -14 421.891 1464.38  18
  -9  -2  14 943.952 3786.77   2
   9  -2  14-2485.97 1609.87   8
  -9  -2  14 1312.20 1777.90   4
  -2  -9  14 1691.27 3971.56   6
   2  -9  14-10134.7 6714.46   6
   9  -2  15 38585.9 9299.24  16
  -9  -2  15 35290.5 9334.60  16
  -2  -9  15 9647.62 7143.67   6
  -9  -2  15 38697.9 11953.9   5
   2  -9  15 6279.37 6375.19   6
  -9  -2  15 33818.6 15501.3   2
   9  -2  15 40016.7 10474.6   8
   9   2 -15 4797.45 12394.0   1
  -2   9 -15 38419.3 12533.7  18
   2   9 -15 63799.3 18100.6  18
  -9  -2  15 38291.6 10423.4   4
   9  -2  16 1361.09 3693.24  16
  -9  -2  16 3157.03 253.716  16
  -9  -2  16 9597.38 9034.55   5
   9   2 -16-1418.38 6339.51   1
  -9  -2  16 2862.24 3306.94   2
   9  -2  16 4043.99 2606.25   8
  -9  -2  16 4026.43 2530.77   4
  -2   9 -16 5690.55 5179.80  18
   2   9 -16 4428.72 5558.21  18
   2  -9  16-2449.87 4296.92   6
   9  -2  17 402.254 1177.72  16
  -9  -2  17 6478.32 3892.70  16
  -9  -2  17 3986.60 4376.25   5
   9   2 -17-205.908 4931.57   1
  -9  -2  17 4211.66 8844.10   2
   9  -2  17 6135.07 5518.57   8
   2   9 -17 11278.8 7936.31  18
  -9  -2  17 4943.65 4114.82   4
  -2   9 -17 10716.6 7514.68  18
   9  -2  18 1449.45 3213.55  16
  -9  -2  18 9598.39 5716.81  16
   9   2 -18 1350.62 6507.98   1
  -9  -2  18-231.734 3486.00   2
   9  -2  18 2432.62 779.602   8
  -2   9 -18 6699.89 3811.51  18
   2   9 -18 1120.72 3753.48  18
  -9  -2  18 5183.78 5681.65   5
  -9  -2  19-6012.67 6610.07  16
   2   9 -19 1761.58 1857.09  18
   2   9 -19-2483.76 6616.27  11
  -2   9 -19 2154.12 1139.22  11
   9   2 -19-5797.75 8261.48   1
   9  -2  19 3767.33 4026.02   8
  -9  -2  19 188.230 2514.53   2
   9  -2  19 1896.91 6056.52  16
  -9  -2  19 4897.51 5174.73   5
  -2   9 -19-1043.31 420.705  18
   9  -2  20 184.719 4204.66  16
  -9  -2  20 136.754 2667.68  16
  -9  -2  20 3392.88 2961.94   5
   2   9 -20-2827.54 4746.84  11
   9   2 -20 477.065 5908.73   1
   9  -2  20 1735.67 2216.56   8
  -9  -2  20 188.790 3795.24   2
   2   9 -20-514.800 2633.21  18
   9  -2  21 2108.84 4187.50  16
  -9  -2  21 715.537 1376.00  16
  -9  -2  21 4048.75 5003.50   5
   2   9 -21 1901.15 4134.15  11
  -2   9 -21 1272.25 3928.74  11
   9   2 -21 94.1653 4902.52   1
   9  -2  21 2194.19 3984.75   8
  -9  -2  21 4098.44 9085.29   2
  -9  -2  22-4831.18 7670.05  16
  -9  -2  22 3638.96 4178.05   5
   9   2 -22-731.765 3709.54   1
   9  -2  22 2965.15 4726.29   8
  -9  -2  22-281.924 2667.71   2
   9  -2  22 2931.66 8990.90  16
   9  -2  23 3123.50 9279.75  16
  -9  -2  23 37.6637 988.634  16
  -9  -2  23 7300.14 6362.73   5
   9   2 -23-2369.27 2616.07   1
   9  -2  23 4383.38 6300.56   8
  -9  -2  23 5.29491 1978.86   2
   9  -2  24-2191.88 5554.86  16
   9  -2  24 115.330 1986.11   8
   9  -2  25 5538.64 9079.77  16
   9  -2  25 10521.5 5681.64   8
   9  -2  26-1520.90 1049.95  16
   9  -2  26 7004.50 2400.05   8
  -9   3   0 153198. 19381.2   5
   9  -3   0 147944. 21582.0   1
   9  -3   0 132015. 19335.6  14
  -9   3   0 202241. 26225.2   4
   9   3   0 125184. 21053.5   8
   9   3   0 145548. 22246.2  18
   9  -3   0 125755. 18226.5   6
   9  -3   1-376.711 2923.36  14
  -9   3   1-984.390 1625.41   5
   9  -3  -1 74.8871 863.936  14
   9  -3  -1-636.831 3907.96   1
  -9   3  -1-1289.51 1531.73   5
   9   3   1-126.510 2576.37   8
   9   3  -1-4456.19 5078.75   8
   9  -3   1 2071.91 1251.96   1
   9   3  -1 4854.27 1593.02  18
  -9   3  -1-3932.67 5520.67   4
   9   3   1 2654.15 349.860  18
  -9   3   1 459.272 915.607   4
  -9   3  -1 1006.26 799.636   2
   9  -3   1 4440.23 5115.18   6
   9  -3  -1 826.135 2209.86   6
  -9   3   2 75995.1 13722.7   5
   9  -3   2 103445. 19045.8   1
  -9   3  -2 101335. 17195.0   5
   9  -3  -2 54928.8 12319.8   1
   9   3  -2 115949. 21626.8  18
   9  -3  -2 53145.7 12499.1  14
  -9   3  -2 114844. 20597.1   4
  -9   3   2 102567. 17963.9   4
   9   3  -2 95670.5 18625.8   8
   9   3   2 51439.3 12879.4   8
   9   3   2 46009.5 11437.7  18
  -9   3  -2 46173.9 5480.83   2
   9  -3   2 100790. 17344.1   6
   9  -3   2 83799.4 15895.2  14
   9  -3  -3 7620.10 5519.52   1
  -9   3  -3-3710.44 4300.95   5
   9  -3   3-2947.49 3772.94  14
  -9   3   3 1657.05 2024.32   5
   9   3  -3-2010.95 3061.96   8
   9  -3  -3-617.816 1714.83  14
   9   3  -3 2775.37 3364.51  18
  -9   3  -3 579.028 2254.15   4
   9   3   3 3484.01 3748.87  18
  -9   3   3 18.7953 3083.30   4
  -9   3  -3 2027.92 1428.53   2
   9  -3   3 6571.53 4092.97   1
   9  -3   3 7624.51 5694.10   6
  -9   3  -4 9484.42 6225.41   5
   9  -3   4 16050.5 7622.75  14
   9  -3  -4 11571.2 5687.63  14
  -9   3   4 13704.7 5496.38   5
   9  -3  -4 2550.64 1476.66   1
   9  -3   4 17205.4 7089.12   1
   9   3  -4 15088.2 6553.54   8
  -9   3  -4 9751.61 2739.30   2
  -9   3  -4 15041.9 7882.50   4
   9   3  -4 16973.2 7969.44  18
   9  -3   4 20969.0 8296.63   6
   9  -3   5-2340.66 2883.37   1
   9   3  -5 101.660 1210.81  18
  -9   3  -5 2677.67 4243.13   5
   9  -3   5 1075.63 859.604  14
   9   3  -5 1572.36 2906.74  11
   9   3  -5-1325.00 1363.15   8
  -9   3  -5 2401.79 5308.48   4
  -9   3  -6 4190.72 3567.81   5
   9  -3   6 5458.68 2702.05  14
   9   3  -6-193.157 256.031  11
   9  -3   6-296.954 3112.14   8
  -9   3  -6-3283.11 3578.60   4
   9   3  -6 259.213 1215.51  18
   9   3  -6-1134.98 1383.37   8
   9  -3   6 7380.28 5390.58   1
  -9   3  -7-3024.02 4773.60   5
   9  -3   7 4579.94 4248.64  14
   9  -3   7 4635.64 4270.87   1
   9   3  -7 3598.00 4945.75  11
   9   3  -7 4918.60 3217.02  18
  -9   3  -7 3862.81 5343.28   4
   9   3  -7 1216.58 2108.63   8
   9  -3   7 10613.2 6328.85   8
   9  -3   8 1820.10 538.396  14
  -9   3  -8 3044.36 4079.80   4
  -9  -3   8-1376.15 4257.66   2
   9  -3   8 5497.68 3703.92   8
   9   3  -8 1319.58 424.395   8
  -9  -3   9 1135.21 2690.02   2
   9   3  -9 4604.53 4456.32   1
  -9   3  -9 842.284 1401.35   4
   9  -3   9-2207.83 2180.07   8
  -9  -3  10 10804.8 5683.05   2
   9   3 -10 12754.6 7133.36   1
   9  -3  10 27226.2 8723.89   8
  -9  -3  11-2597.06 2592.65   2
  -9  -3  11 187.294 612.087   4
   9   3 -11-828.425 2150.93   1
   9  -3  11 2174.16 3766.39   8
   9  -3  11-105.050 2562.94  16
   3   9 -11 3858.85 1897.26  18
  -9  -3  12 25963.3 8748.40   5
   3   9 -12 52425.5 16676.0  18
  -9  -3  12 39646.8 12818.7   2
  -9  -3  12 20411.1 6148.44   4
   9  -3  12 68354.1 13011.3   8
   9   3 -12 42139.3 11449.7   1
  -9  -3  12 54410.7 9364.09  16
   9  -3  12 50833.0 12286.8  16
   3  -9  12 3246.71 4223.13   6
  -3  -9  12 8416.33 6325.44   6
  -9  -3  13-2140.38 3196.62   5
  -9  -3  13 3001.80 3918.87   2
  -9  -3  13-2322.32 2424.79   4
   9   3 -13 4596.28 3593.99   1
   9  -3  13 5907.06 4953.48   8
   3   9 -13 10474.3 8696.11  18
  -3   9 -13 1735.03 5173.69  18
   3  -9  13-869.863 2144.56   6
  -3  -9  13-14.9401 1628.52   6
  -9  -3  13-2169.84 1631.07  16
   9  -3  13 9426.91 2099.90  16
  -9  -3  14 27537.1 8924.64   5
  -9  -3  14 33280.5 13544.8   2
  -9  -3  14 18487.6 5007.91   4
   9  -3  14 68675.7 13406.8   8
   9   3 -14 8157.25 13282.8   1
   3   9 -14 64926.6 19773.0  18
  -3   9 -14 58197.5 13715.1  18
  -9  -3  14 66866.0 11593.5  16
  -3  -9  14-6704.68 3924.24   6
   3  -9  14 12092.4 7241.76   6
   9  -3  14 66217.9 12570.8  16
   9  -3  15 1436.52 2565.69  16
  -9  -3  15-905.789 2325.58  16
  -9  -3  15 1433.06 3829.27   5
   3   9 -15-4274.76 4848.63  18
  -9  -3  15-1555.60 2908.86   2
  -9  -3  15 3101.45 3728.02   4
  -3   9 -15-449.830 1947.10  18
   9  -3  15-506.687 914.408   8
   9   3 -15 1682.32 1331.99   1
  -3  -9  15 245.713 4157.18   6
   3  -9  15 539.831 4932.68   6
   9  -3  16 10859.5 9917.71  16
  -9  -3  16 24130.1 6660.92  16
  -9  -3  16 12593.7 6063.39   5
   3   9 -16 44076.4 16967.2  18
  -9  -3  16 16276.4 10113.0   2
  -9  -3  16 13375.9 5045.46   4
   9  -3  16 18780.1 8273.16   8
   3  -9  16 970.238 4342.23   6
   9   3 -16 1335.60 6030.39   1
  -3   9 -16 46582.6 13915.1  18
   9  -3  17 206.032 1241.18  16
   3   9 -17 4358.75 2861.58  18
  -9  -3  17 10865.0 5206.13  16
  -9  -3  17 2009.72 3820.39   5
   9   3 -17 283.282 3346.66   1
   9  -3  17 3173.65 3893.83   8
  -9  -3  17 706.154 3701.18   2
  -3   9 -17 486.244 3427.56  18
   9  -3  18-3780.97 3838.45  16
  -9  -3  18 9614.93 6377.33  16
  -9  -3  18 5065.42 4916.80   5
  -9  -3  18 1025.97 6137.68   2
   9   3 -18 2582.65 11084.7   1
   9  -3  18 707.468 2465.51   8
   3   9 -18 1629.79 4272.43  18
   9  -3  19-1454.86 5275.78  16
  -9  -3  19-1441.92 1254.26  16
  -9  -3  19-718.756 1800.16   5
   3   9 -19 2035.79 1857.56  11
  -9  -3  19 1700.10 7174.63   2
   9  -3  19 840.255 850.188   8
   9   3 -19 358.821 7382.03   1
   3   9 -19 513.097 2915.53  18
   9  -3  20 149.057 4066.91  16
  -9  -3  20 3419.72 3740.82  16
  -9  -3  20 2752.24 5124.46   5
   9   3 -20-2901.51 3467.75   1
   3   9 -20-1782.94 4883.89  11
  -3   9 -20-6192.63 5442.32  11
  -9  -3  20 6120.96 7571.38   2
   9  -3  20 2713.68 2907.30   8
   3   9 -20-49.1031 1382.43  18
   9  -3  21-3113.03 6220.37  16
  -9  -3  21 258.364 1447.47  16
  -9  -3  21 3909.02 3045.84   5
   3   9 -21-2991.22 2842.16  11
  -9  -3  21 4380.77 4639.18   2
  -3   9 -21 2671.99 2780.73  11
   9  -3  21 8923.22 5114.01   8
   9   3 -21-250.214 2521.32   1
   9  -3  22 1360.05 2722.94  16
  -9  -3  22 992.148 2593.14  16
  -9  -3  22-3399.81 1993.51   5
  -9  -3  22 3231.19 8191.78   2
   9  -3  22-2215.95 2896.63   8
   9   3 -22 933.070 1688.15   1
   9  -3  23 1398.99 5486.07  16
  -9  -3  23 1518.27 7155.97   2
  -9  -3  23 6962.26 6444.58  16
   9   3 -23 593.702 8451.18   1
   9  -3  23-2398.99 3707.69   8
   9  -3  24 6512.98 9316.74  16
  -9  -3  24 3784.91 10743.4   2
   9   3 -24 3564.58 11216.2   1
   9  -3  24 10343.6 4613.02   8
   9  -3  25 2.05876 5490.30  16
   9  -3  25-4404.41 3617.25   8
   9   3 -25-2598.45 2449.98   1
   9  -3  26 8323.42 8919.73  16
   9   3 -26 4997.16 4109.56   1
   9  -3  27 684.337 2051.01  16
   9  -3  27 1219.80 2252.03   8
   9  -3  28 8339.67 11493.4  16
   9  -3  29 3161.98 7232.85  16
   9  -4   0 5237.51 3199.94   1
  -9   4   0 13003.7 5327.65   5
   9  -4   0 6113.91 5032.21  14
  -9   4   0 19181.6 7322.47   4
   9   4   0 6056.73 864.185  18
   9  -4   0 5386.14 3506.47   6
  -9   4  -1 142919. 18367.1   5
  -9   4   1 117609. 16209.0   5
   9  -4   1 82661.1 15731.6   1
   9  -4  -1 51743.0 12188.6   1
   9  -4   1 92050.9 16040.7  14
   9  -4  -1 51107.3 10761.4  14
  -9   4  -1 171433. 24555.9   4
  -9   4   1 161973. 22689.2   4
   9   4  -1 81998.0 15002.3   8
   9   4  -1 104090. 19440.6  18
   9   4   1 74475.7 15588.0  18
   9  -4   1 68075.8 14510.8   6
  -9   4  -2 2586.15 3312.00   4
   9  -4   2 4690.95 5054.79  14
   9  -4   2 2556.88 3886.14   1
   9   4  -2 1451.78 2631.83   8
  -9   4  -2 783.498 1356.13   5
   9   4   2-1999.15 6236.14  18
   9   4  -2 2048.99 1407.01  18
   9  -4   2 1608.69 3216.01   6
  -9   4  -3 60018.0 12918.2   5
   9  -4   3 44942.5 11526.3  14
  -9   4  -3 67616.6 15780.7   4
   9   4  -3 53649.7 14522.2   8
   9  -4   3 48660.9 11770.3   1
   9   4  -3 56275.5 16265.9  18
   9  -4   3 55700.3 13937.2   6
  -9   4  -4 33937.7 9613.72   5
   9  -4   4 33055.8 9848.69   1
   9   4  -4 30207.4 11725.6  18
   9   4  -4 39482.4 11279.6   8
   9  -4   4 31427.7 10017.8  14
  -9   4  -4 42640.8 13193.4   4
   9  -4   4 28530.2 7771.25   6
  -9   4  -5 1370.90 4050.40   5
   9  -4   5-720.481 3423.71  14
   9   4  -5 8705.36 5724.74   8
  -9   4  -5 6740.78 5139.14   4
   9   4  -5 5972.24 7253.20  18
   9  -4   5 958.038 968.438   6
   9  -4   5 9294.06 6555.07   1
  -9   4  -6 6690.70 5601.25   5
   9  -4   6 889.799 1104.91  14
   9  -4   6 8961.05 5181.75   1
   9   4  -6 5971.55 4113.59   8
   9  -4   6 2626.53 3362.48   6
  -9   4  -6 3135.90 4157.34   4
   9   4  -6 7261.09 5859.32  18
   9  -4   7 1207.37 4056.88   1
  -9   4  -7-5267.82 5972.11   5
   9  -4   7 2046.85 2840.33  14
   9   4  -7 1476.28 3640.83  11
   9   4  -7 2291.06 2769.29   8
  -9   4  -7 8708.32 5983.58   4
   9   4  -7-5027.46 5113.18  18
   9   4  -8 4691.21 4714.63  18
  -9   4  -8 6375.27 4674.03   5
   9   4  -8 4419.40 6384.07  11
   9  -4   8 7101.48 4189.88  14
  -9   4  -8 8129.56 5994.05   4
   9  -4   8 10069.1 5173.95   1
   9   4  -8 6092.97 3341.40   8
  -9   4  -9 8764.65 5551.54   5
   9  -4   9 11805.0 5616.99   1
   9  -4   9 20345.8 6880.76  14
   9   4  -9 14245.7 6759.37  11
  -9   4  -9 6708.62 4939.42   4
   9   4  -9 21995.4 5951.97   8
   9  -4   9 12392.2 5601.30   8
   9   4  -9 13257.0 6121.27  18
   9  -4  10 2422.50 1791.80   8
  -9   4 -10 415.462 1998.76   4
   9  -4  10-2770.50 2169.79  14
   9  -4  11 40016.7 9718.39  14
  -9  -4  11 14441.2 7482.51   2
  -9   4 -11 13591.0 6302.38   4
   9  -4  11 52262.5 11625.8   8
   4   9 -11 41866.2 14767.9  18
  -4  -9  12 2443.43 3076.39   6
   9  -4  12 5302.27 3844.40   8
   4   9 -12-5.72738 5677.03  18
  -9  -4  12-134.126 3195.81   2
   4  -9  12-891.123 5150.46   6
  -9  -4  13 35498.7 11398.8   2
  -4   9 -13 114644. 16397.5   4
   9  -4  13 66796.6 12728.3   8
  -4  -9  13 1355.37 3940.34   6
  -4   9 -13 31807.5 8581.53  18
   4   9 -13 98801.3 24183.0  18
   4  -9  13 10926.9 8835.45   6
  -9  -4  14 3395.61 1838.24   2
   9   4 -14 2255.52 4857.85   1
  -4   9 -14-467.509 3221.93   4
   9  -4  14 7251.34 4852.37   8
   4   9 -14-1772.93 3985.17  18
  -4   9 -14 1882.66 3734.02  18
  -4  -9  14 7546.60 6115.48   6
   4  -9  14-1724.65 5321.81   6
   9  -4  14 1571.74 2043.77  16
  -9  -4  15 15885.9 8841.85   2
   9   4 -15 3206.23 8266.05   1
   4  -9  15 6709.90 8898.50   6
   4  -9  15 1363.64 4319.66  14
   9  -4  15 29008.6 10103.1   8
  -4   9 -15 52175.5 13260.8  18
   4   9 -15 65475.8 21879.4  18
  -9  -4  15 36889.3 8389.72  16
   9  -4  15 10089.8 10795.7  16
  -9  -4  16-805.888 2864.37   2
   9   4 -16 445.856 4133.13   1
   9  -4  16 3817.92 3419.36   8
   4   9 -16 3714.58 4733.83  18
  -9  -4  16 7105.11 4330.51  16
   9  -4  16-1340.99 3415.06  16
  -9  -4  17 10252.9 8419.82   2
   9   4 -17 1412.66 2499.97   1
   9  -4  17 11131.1 8162.23   8
   4   9 -17 21486.6 11863.8  18
  -9  -4  17 8955.16 5287.93  16
   9  -4  17 6143.09 7212.65  16
  -9  -4  18 576.711 4507.25   2
   9   4 -18-630.293 5094.39   1
   4   9 -18 3593.16 4947.38  11
   9  -4  18 1243.67 2686.87   8
   4   9 -18-1790.03 4903.86  18
   9  -4  18 675.911 4042.98  16
  -9  -4  18 5216.86 4092.39  16
  -9  -4  19 263.570 1795.54   2
   9   4 -19 208.309 5619.87   1
   4   9 -19-1510.05 3215.54  11
  -4   9 -19-3741.94 5731.59  11
   9  -4  19 2620.46 3946.21   8
   4   9 -19 3621.62 7009.56  18
   9  -4  19-2318.18 4712.22  16
  -9  -4  19 696.587 224.870  16
   4   9 -20 698.303 4165.49  18
  -9  -4  20-1353.07 4394.77   2
   9   4 -20-1455.38 7574.22   1
   4   9 -20 639.887 5749.76  11
  -4   9 -20 7570.09 6226.87  11
   9  -4  20 1305.13 2014.46   8
   9  -4  20 496.002 3685.44  16
  -9  -4  20 9465.07 6719.79  16
  -9  -4  21-2602.04 367.333  16
  -9  -4  21 218.818 1174.87   2
   9   4 -21-1677.12 5965.99   1
   4   9 -21-5510.07 6382.12  11
   9  -4  21 1010.97 937.866   8
   9  -4  21 3936.78 2159.16  16
   9  -4  22 2450.54 7255.14  16
  -9  -4  22 2519.78 6053.21   2
   9   4 -22-356.134 481.540   1
   9  -4  22 2460.89 3559.96   8
   9  -4  23 4188.43 5798.73  16
  -9  -4  23 2172.57 5085.24   2
   9   4 -23-515.786 2574.73   1
   9  -4  23 1390.27 3093.28   8
   9  -4  24 4385.02 5718.31  16
  -9  -4  24-3831.38 6554.71   2
   9   4 -24-977.259 3464.98   1
   9  -4  24 689.374 2666.02   8
   9  -4  25 4340.55 7622.08  16
  -9  -4  25 6825.17 7653.33   2
   9   4 -25-3045.62 7840.95   1
   9  -4  25 6172.82 6709.25   8
   9  -4  26 850.518 1471.97  16
   9  -4  26 1871.52 3215.33   8
  -9  -4  26 3836.63 7594.23   2
   9  -4  27 10000.8 11509.6  16
  -9  -4  27 2236.48 2791.43   2
   9  -4  28 1601.99 4051.76  16
  -9  -4  28-4090.70 9296.65   2
   9  -4  29 1524.83 3574.30  16
  -9  -4  29 3294.56 7309.62   2
   9  -4  30-1207.35 2464.63  16
   9  -4  31 5757.73 6796.83  16
   9   5   0 36739.0 11504.1  18
   9   5  -1 23086.8 10648.2  18
  -9   5  -2 47502.2 10335.2   5
   9  -5   2 18716.6 7828.94  14
  -9   5  -2 58618.2 14253.9   4
   9   5  -2 41751.0 13499.4  18
   9  -5   2 16987.4 6301.96   1
   9  -5   2 16766.4 7507.26   6
  -9   5  -3 51631.2 11086.0   5
   9  -5   3 25689.3 7999.16   1
   9  -5   3 22372.4 7747.96  14
  -9   5  -3 66773.9 15203.6   4
   9   5  -3 40102.8 13613.2  18
   9  -5   3 16651.3 7873.56   6
  -9   5  -4 7223.12 4162.59   5
   9  -5   4 4440.92 1966.90  14
   9   5  -4 6874.78 5297.00   8
   9  -5   4 7093.72 4276.20   1
  -9   5  -4 7533.13 3425.01   4
   9  -5   4 11203.9 6902.05   6
   9   5  -4 8556.16 5776.99  18
  -9   5  -5 35410.6 9498.04   5
   9  -5   5 23272.7 7515.40  14
   9   5  -5 31729.1 9576.17   8
  -9   5  -5 52534.3 14621.5   4
   9   5  -5 29024.3 11653.6  18
   9  -5   5 18887.1 9510.19   6
   9  -5   5 35640.2 9231.42   1
  -9   5  -6 3086.21 2835.99   5
   9  -5   6-3743.64 4244.53  14
   9  -5   6 5055.19 4327.52   1
   9   5  -6 2499.54 1807.59   8
  -9   5  -6 5923.76 3817.39   4
   9   5  -6 5401.15 6985.18  18
   9  -5   6 2273.51 3461.89   6
  -9   5  -7 18292.6 7003.97   5
   9  -5   7 19019.1 7936.08  14
   9  -5   7 40235.4 10342.4   1
   9   5  -7 21083.0 7174.22   8
   9   5  -7 25005.4 10659.6  18
  -9   5  -7 37281.4 13005.9   4
   9  -5   7 40079.6 12631.9   6
   9  -5   8 782.933 2718.79  14
   9  -5   8 4567.17 4815.56   1
   9   5  -8 101.084 1674.40   8
  -9   5  -8-7049.49 9061.71   4
   9   5  -8-3029.96 2965.14  18
   9  -5   8 599.592 3510.02   6
  -9   5  -8 7150.31 6742.00   5
  -9   5  -9 20260.8 6952.47   5
   9  -5   9 24282.6 8986.05  14
   9   5  -9 24143.6 11350.5  11
  -9   5  -9 29914.2 10551.9   4
   9   5  -9 25323.3 7181.60   8
   9   5  -9 21428.9 9188.21  18
   9  -5   9 36318.6 9765.88   1
  -9   5 -10 9076.44 5094.98   5
   9  -5  10 16650.6 6465.78  14
   9   5 -10 10199.7 3590.32  11
   9  -5  10 9485.98 3003.19   1
  -9   5 -10 7460.79 5884.00   4
   5   9 -10 9882.41 8250.86  18
   9   5 -10 13463.5 4262.14   8
   9   5 -10 16783.4 6559.19  18
   9  -5  11 29048.1 8526.72  14
   9   5 -11 65120.3 16320.6  11
  -9   5 -11 11813.7 6500.63   4
   5   9 -11 15694.1 10446.3  18
   9   5 -11 45925.7 13239.6  18
   5   9 -12 42048.8 14595.1  18
   9  -5  12 46900.2 10928.5  14
   9   5 -12 48537.4 12804.2  11
  -9   5 -12 16774.8 6640.78   4
   5  -9  12 6758.82 8432.58   6
   9  -5  13 12958.5 6030.85  14
  -9   5 -13-3546.04 4323.70   4
  -5   9 -13 13187.0 5088.14   4
  -5   9 -13-332.073 4841.38  18
   5   9 -13-2156.95 4952.53  18
  -5  -9  13 1705.43 3121.07   6
   5  -9  13 5088.13 5139.44   6
   5  -9  14-487.342 3696.31  14
   9  -5  14 22594.6 8435.38   8
  -5   9 -14 58631.7 13355.1   4
   5   9 -14 42028.0 15827.2  18
   5  -9  14-597.035 3445.83   6
   9  -5  15 6567.51 5357.35   8
   5  -9  15 1942.36 4292.68  14
   5  -9  15 1523.63 5453.05   6
  -9  -5  15 103.427 1766.39   2
   9  -5  16 10422.4 6665.82   8
  -9  -5  16 1202.91 3844.55   2
   9  -5  17 216.255 3425.98   8
   5   9 -17 3341.10 4138.16  18
  -9  -5  17 423.352 3902.14   2
  -9  -5  18 107.093 1603.60   2
   5   9 -18 1577.10 4310.25  11
   9  -5  18-811.477 5240.90   8
   5   9 -18-2207.13 3984.47  18
   9  -5  18 6310.57 12728.0  16
  -9  -5  19 5.09823 2877.06   2
   5   9 -19 349.942 2708.52  11
   5   9 -19 3158.80 8361.62  18
   9  -5  19-1168.79 2584.59   8
  -9  -5  19 349.272 1085.76  16
   9  -5  19-533.833 4356.71  16
  -9  -5  20 637.098 4054.07   2
   5   9 -20 2830.71 3307.83  11
   9  -5  20-417.236 3391.94   8
   5   9 -20-1.95202 4470.26  18
  -9  -5  20 3368.29 3196.28  16
   9  -5  20 2991.66 359.902  16
  -9  -5  21 5742.21 7745.47   2
   5   9 -21 14267.2 11341.4  11
   9  -5  21 295.970 5598.31  16
   9  -5  21 4147.72 4157.37   8
  -9  -5  22 3913.26 5340.02   2
   9  -5  22 1387.07 2998.71   8
   9  -5  22-2453.47 4299.36  16
  -9  -5  23 60.9933 1096.66   2
   9  -5  23 262.866 4838.76   8
   9  -5  23-129.722 3081.85  16
  -9  -5  24 2070.82 4347.46   2
   9  -5  24-174.413 2572.76   8
   9  -5  24 2605.78 3808.49  16
  -9  -5  25-1603.77 6065.08   2
   9  -5  25 4588.69 5798.81   8
   9  -5  25 1606.42 3255.78  16
  -9  -5  26 3828.28 6919.96   2
   9  -5  26 5062.80 7705.36  16
  -9  -5  27-1039.53 3855.07   2
   9  -5  27 558.941 3905.28  16
  -9  -5  28 5591.57 9629.22   2
   9  -5  28 3253.10 3483.78  16
  -9  -5  29-933.821 5776.63   2
   9  -5  29-395.494 2769.28  16
  -9  -5  30 1702.94 7120.68   2
   9  -5  30-1375.12 3959.33  16
  -9  -5  31 1113.85 5732.90   2
   9  -5  31 2127.57 1449.75  16
   9  -5  32-4427.70 4125.25  16
   9  -5  33-4.40662 3251.18  16
   9   6  -1 541.976 6852.54  18
   9   6  -2 21999.4 8864.63  18
   9   6  -3-1665.29 1024.51  18
   9   6  -4 35650.0 12360.0  18
   9  -6   4 14117.1 6715.44   6
  -9   6  -5 13177.4 5600.29   5
   9  -6   5 6671.71 4198.35  14
   9  -6   5 8200.30 4513.64   1
  -9   6  -5 16891.1 8323.58   4
   9   6  -5 8489.81 7018.15  18
   9  -6   5-350.895 977.001   6
  -9   6  -6 48001.2 10587.5   5
   9   6  -6 32301.9 11730.4  18
   9  -6   6 18485.9 6654.90  14
   9   6  -6 24020.8 8625.53   8
  -9   6  -6 47647.8 13144.5   4
   9  -6   6 24506.1 7207.85   1
   9  -6   6 14121.9 10231.4   6
  -9   6  -7 30208.4 8626.66   5
   9  -6   7 15618.6 7795.46  14
   9   6  -7 19581.9 8300.50   8
   9   6  -7 18999.1 10073.5  18
  -9   6  -7 28123.3 10856.1   4
   9  -6   7 8964.73 5985.14   6
   9  -6   7 28043.1 8310.16   1
  -9   6  -8 34354.3 9613.57   5
   9  -6   8 20115.8 8931.52  14
   9  -6   8 29852.9 9016.03   1
   9   6  -8 31210.0 9235.40   8
  -9   6  -8 39783.5 12629.3   4
   9   6  -8 23224.1 12847.0  18
   9  -6   8 25431.7 10667.3   6
  -9   6  -9-1464.69 2572.21   5
   9  -6   9-726.363 2062.59  14
   9   6  -9 7353.84 5114.52   8
   9  -6   9-3419.62 3485.89   1
  -9   6  -9 306.578 2518.35   4
   9  -6   9-2984.58 6019.05   6
  -9   6 -10 44192.8 12416.7   5
   9  -6  10 40652.2 10776.4   1
   9  -6  10 31483.4 9740.14  14
   9   6 -10 43226.1 9737.36   8
   9  -6  10 29482.7 12689.6   6
  -9   6 -10 33741.2 11812.1   4
   6   9 -10 23712.9 11067.8  18
   9   6 -10 29839.7 12252.5  18
  -9   6 -11 5533.91 5024.41   5
   9  -6  11 1828.84 3474.89  14
   9   6 -11 3971.35 6158.09  11
   9   6 -11 6063.88 4372.88  18
  -9   6 -11 5278.57 6909.98   4
   9  -6  11 3139.66 2497.19   1
   6   9 -11 13288.2 10679.6  18
  -9   6 -12 10532.0 5211.35   5
   9   6 -12 14826.5 7220.23  18
   9  -6  12 25056.7 7569.53  14
   9   6 -12 16993.9 8670.12  11
  -6   9 -12 34040.9 11047.0   4
  -9   6 -12 9987.86 4889.17   4
   6   9 -12 30448.9 12854.1  18
   6  -9  12 13702.7 11534.0   6
   9  -6  13 544.321 7046.50  14
   9   6 -13 1535.87 4576.33  11
  -9   6 -13 6321.13 3472.11   4
   9   6 -13 11136.2 6820.83  18
   6   9 -13 15452.6 10660.9  18
  -6   9 -13 14057.5 6005.05   4
   6  -9  13 13270.8 10960.1   6
   9  -6  14 220.673 6834.62  14
   6  -9  14 1404.48 4642.16  14
  -9   6 -14 9004.75 6183.39   4
   9   6 -14 2003.83 10341.0  11
   6   9 -14 27283.7 15453.2  18
   6  -9  14 7283.92 7494.44   6
   6  -9  15 1208.61 4321.36  14
  -6   9 -15 9365.60 4292.89   4
   6  -9  15 185.273 6861.45   6
   6   9 -15 13715.1 10851.8  18
   6  -9  16 2119.28 5811.84  14
   6   9 -16 11786.5 5939.64  18
   6   9 -17-4380.59 6647.63  18
   6   9 -18 1022.95 3052.99  11
   6   9 -18 1195.57 7067.72  18
   6   9 -19 332.010 4964.76  11
   6   9 -19 19.3893 4851.98  18
   6   9 -20 871.014 11413.3  11
   6   9 -21 1881.44 8809.04  11
  -9  -6  22 1502.65 5109.51   2
  -9  -6  23 1854.83 308.492   2
   9  -6  24-477.779 4307.39  16
   9  -6  24-708.423 3782.73   8
  -9  -6  24 1563.05 4898.96   2
   9  -6  25-1437.66 2369.62  16
  -9  -6  25 526.579 1033.53   2
   9  -6  26-1315.54 1971.53  16
  -9  -6  26 413.951 2412.66   2
   9  -6  27 4090.40 6518.79  16
  -9  -6  27 3809.25 7490.07   2
   9  -6  28 2418.21 5544.82  16
  -9  -6  28-689.551 1377.88   2
  -9  -6  29-495.669 2241.48   2
   9  -6  29 1125.55 803.577  16
   9  -6  30 6969.51 5211.94  16
  -9  -6  30 10.1182 2148.26   2
   9  -6  31 1525.39 3733.39  16
  -9  -6  31 97.0815 4256.10   2
   9  -6  32 5998.30 5006.09  16
  -9  -6  32-1170.24 3442.34   2
  -9  -6  33-2495.23 7476.45   2
   9  -6  33-1429.89 6286.71  16
   9  -6  34-2640.57 1890.69  16
   9  -6  35 3763.38 3769.29  16
   9   7  -4 19056.3 10033.9  18
   9   7  -5 15461.9 10960.7  18
   9  -7   6 6458.81 7182.30   6
   9   7  -6 43961.0 15557.0  18
  -9   7  -7 19324.1 6824.84   5
   9   7  -7 13354.9 5869.45  18
  -9   7  -7 29149.7 10241.9   4
   9  -7   7 1216.47 3672.16   6
  -9   7  -8 58565.9 11750.4   5
   9  -7   8 21238.2 8733.83  14
   9   7  -8 31911.4 9854.73   8
   9  -7   8 18864.8 6509.71   1
  -9   7  -8 60202.4 16153.5   4
   9   7  -8 47361.5 16616.4  18
   9  -7   8 10969.8 6975.22   6
  -9   7  -9 18266.0 7285.84   5
   7   9  -9 9304.38 8977.85  18
   9  -7   9 4589.71 4027.88  14
  -9   7  -9 19631.2 9543.28   4
   9   7  -9 5456.32 6777.55  18
   9  -7   9 12212.4 5860.74   1
   9   7  -9 17352.4 7496.12   8
   9  -7   9 8124.58 5351.30   6
   9  -7  10 14305.3 5503.58   1
  -9   7 -10 5635.30 2099.72   5
   9  -7  10 8351.64 1473.35  14
  -9   7 -10 12526.5 6674.05   4
   7   9 -10 6959.88 7099.04  18
   9   7 -10 11487.9 10170.5  18
   9  -7  10 2585.83 5232.25   6
  -9   7 -11 22999.6 8617.31   5
   9  -7  11 13713.4 6566.36  14
  -9   7 -11 21198.3 9473.62   4
   7   9 -11 12341.4 9186.94  18
   9   7 -11 7670.48 2620.22  18
   9  -7  11 6433.76 7622.71   6
   7  -9  11 11506.2 10550.9   6
   9  -7  12 16.3860 985.367  14
  -7   9 -12-4916.15 6618.41   4
  -9   7 -12-3877.73 6964.29   4
   7   9 -12 8394.30 8524.61  18
   9   7 -12-2531.82 3136.45  18
   7  -9  12-8032.58 8943.22   6
   9  -7  13 159.804 3429.19  14
   7  -9  13-805.485 3052.19  14
   9   7 -13 78.0916 5327.94  11
  -9   7 -13 3733.13 5860.72   4
  -7   9 -13 17720.2 7483.47   4
   7   9 -13 9586.11 5654.21  18
   9   7 -13 14333.6 6817.72  18
   7  -9  13 528.295 7501.03   6
   9   7 -14 652.602 3711.99  18
   9  -7  14-231.338 1213.96  14
   7  -9  14-109.960 2510.14  14
   9   7 -14-926.066 8282.46  11
  -9   7 -14 3965.75 2249.27   4
   7   9 -14 8958.46 9272.26  18
  -7   9 -14 2070.19 1531.12   4
   7  -9  14-5372.55 5365.04   6
   9  -7  15 647.403 3432.78  14
   9   7 -15 872.646 7890.65  18
   9   7 -15 1442.04 9392.38  11
  -9   7 -15 8987.64 4027.37   4
  -7   9 -15 18359.3 8965.55   4
   7   9 -15 18489.6 10713.2  18
   7  -9  15 10626.1 12813.8   6
   7  -9  15 193.641 1437.04  14
   9  -7  16-1.43889 1593.50  14
   7  -9  16 1189.48 1340.97  14
   9   7 -16 1075.35 8072.15  11
   7   9 -16-1191.57 4752.76  18
   7   9 -17 8142.01 8911.71  11
   7   9 -17 6600.36 6023.12  18
   7   9 -18-63.6095 4843.46  11
   7   9 -18 1689.09 5111.22  18
   7   9 -19 833.320 8040.86  11
   7   9 -19-756.041 2059.83  18
   7   9 -20 3402.61 14184.9  11
   9   8  -6 12896.2 9967.38  18
   9   8  -7 62783.0 18265.0  18
   9   8  -8-8413.61 8555.50  18
   8   9  -9 29319.6 13124.2  18
   9   8  -9 35929.4 14872.2  18
  -9   8  -9 56449.0 15565.1   4
   9  -8   9 7726.38 8916.15   6
  -9   8 -10 5773.65 3070.89   5
   9  -8  10 32.0840 3618.54  14
   8   9 -10 1175.02 5777.68  18
  -9   8 -10 8213.86 8339.47   4
   9   8 -10 17846.2 11353.6  18
   9  -8  10-7852.19 9880.16   6
  -9   8 -11 11378.2 6294.39   5
   9  -8  11 33.0575 1832.84  14
  -9   8 -11 11086.4 8105.36   4
   8   9 -11 7141.98 6681.42  18
   9   8 -11 7132.99 5178.69  18
   9  -8  11-5.90341 2363.14   6
   8  -9  11 725.340 4529.60   6
   9  -8  12 2924.88 5851.40  14
   9   8 -12 602.909 2084.80  18
  -9   8 -12-1110.23 3116.21   4
  -8   9 -12 6507.33 5852.14   4
   8   9 -12-6686.01 7565.93  18
   9  -8  12 5029.28 6792.50   6
   8  -9  12 12.4671 4025.86   6
   9  -8  13 852.104 1064.87  14
   8  -9  13-120.694 3808.64  14
   9   8 -13-3909.36 5326.16  18
  -9   8 -13 1382.50 2115.44   4
  -8   9 -13-1491.35 4556.58   4
   8   9 -13 5902.66 9833.89  18
   8  -9  13-9911.62 10755.0   6
   9  -8  14-229.401 4030.39  14
   8  -9  14-550.845 7628.42  14
   9   8 -14 1528.11 5611.19  11
   9   8 -14 6152.06 5017.17  18
  -9   8 -14-3238.55 5788.76   4
  -8   9 -14 1456.40 7714.19   4
   8  -9  14-1765.81 11505.9   6
   8   9 -14-4401.47 7391.04  18
   8   9 -15-9357.04 8896.38  18
   9  -8  15-28.5727 6459.61  14
   8  -9  15 2065.87 11404.2  14
   9   8 -15 371.663 4444.61  11
  -9   8 -15 2671.68 4213.31   4
  -8   9 -15-4213.42 4838.49   4
   9   8 -15 556.205 5300.48  18
   9  -8  16-243.611 2506.32  14
   8  -9  16-1275.37 4451.37  14
   9   8 -16 383.869 3420.53  11
  -9   8 -16 436.565 3759.18   4
   8   9 -16 8023.58 5759.89  18
   9   8 -16 524.734 7708.10  18
   9  -8  17-19.8976 2926.73  14
   8   9 -17-1463.05 3875.27  11
  -9   8 -17 3103.01 3958.64   4
   9   8 -17-661.045 4490.08  11
   9   8 -17-742.208 5030.83  18
   8   9 -17 669.225 5000.42  18
   8   9 -18-732.365 4670.14  18
   8   9 -18 304.302 5124.17  11
   9   8 -18 2727.68 4145.28  11
   8   9 -19 434.965 9851.72  18
   8   9 -19 2629.74 15330.5  11
   8   9 -20 2023.92 3352.07  11
   9   9  -8 56903.3 20718.6  18
   9   9  -9 12745.9 9616.22  18
   9   9 -10 7876.27 9127.89  18
   9   9 -11 1097.81 2169.44  18
  -9   9 -11-1442.59 2474.55   4
   9  -9  11 2339.67 3749.49   6
   9   9 -12 971.053 8584.93  18
  -9   9 -12-6189.62 6694.04   4
  -9   9 -13 3499.82 3767.44   4
   9   9 -13-11460.2 11309.5  18
   9  -9  14-1529.57 1785.27  14
  -9   9 -14-14254.4 8752.40   4
   9   9 -14-1519.11 4635.94  18
   9  -9  14 9486.21 10394.1   6
   9  -9  15 354.628 723.957  14
  -9   9 -15-2583.06 4408.32   4
   9   9 -15-1822.18 5043.02  18
   9  -9  16 143.324 4622.22  14
   9   9 -16 425.794 7630.49  11
   9   9 -16 1712.69 10422.1  18
  -9   9 -16 1380.31 3906.48   4
   9   9 -17-2058.32 8873.17  11
   9   9 -17-138.909 4655.85  18
   9   9 -18 1332.54 5294.06  11
   9   9 -18 331.328 7083.79  18
   9   9 -19-949.191 7599.28  11
 -10   0   0 2762.39 4074.38   5
  10   0   0-2347.06 3166.61   1
 -10   0   0 2490.02 3805.62   4
  10   0   0 533.696 2761.33   8
 -10   0   1 2604.06 3143.93   5
  10   0   1 2539.10 2643.80   1
 -10   0  -1-2967.18 4722.68   4
 -10   0   1 3493.94 3900.10   4
  10   0  -1-4330.92 4200.00   1
  10   0   1-40.4174 2244.89   8
  10   0  -1-498.569 2441.92   8
 -10   0   1 1052.02 1289.18   2
 -10   0   2-377.289 2171.54   5
 -10   0   2 2131.63 2911.43   2
  10   0  -2-1651.05 2368.19  14
 -10   0  -2 3170.22 5504.83   4
 -10   0   2 1874.03 1013.62   4
  10   0   2 1586.61 2989.47   8
  10   0  -2-2845.11 5663.87   1
  10   0  -2 4661.54 4594.50   8
 -10   0   3 1781.63 3960.41   5
  10   0  -3-1139.05 2988.26  14
 -10   0   3-454.840 460.638   2
 -10   0   3 1306.57 992.353   4
  10   0   3-674.569 1940.73   8
  10   0  -3 456.521 2509.40   1
  10   0  -4 46466.3 17660.0   1
 -10   0   4 26270.1 9515.51   5
  10   0  -4 27923.0 8589.54  14
 -10   0   4 32029.9 9124.13   2
  10   0   4 39576.0 10614.2   8
 -10   0   4 37795.4 11273.0   4
 -10   0   5-3098.22 4278.48   5
  10   0  -5-2113.32 2724.65  14
  10   0  -5-10310.6 7233.88   1
 -10   0   5 2411.04 3975.52   2
  10   0   5 1050.07 2419.16  16
  10   0   5 719.609 2748.78   8
 -10   0   5-940.380 4738.30   4
  10   0  -5 956.013 1412.01   6
 -10   0   6 42022.5 14458.8   5
  10   0  -6 34168.9 9583.55  14
  10   0  -6 66323.1 16731.1   1
 -10   0   6 50432.1 13876.0   2
  10   0   6 45288.2 12237.2   8
 -10   0   6 53874.2 14696.8   4
  10   0  -6 62339.9 9314.02   6
  10   0   6 44561.8 8448.49  16
  10   0   7 274.399 811.819  16
 -10   0   7 3.99714 268.264  16
 -10   0   7 3384.74 4237.06   5
  10   0  -7 340.189 2105.26  14
  10   0   7-2043.25 1681.03  18
  10   0   7-876.009 2518.92   8
 -10   0   7 1025.72 2279.74   2
  10   0  -7-4277.83 6877.14   1
 -10   0   7-1585.33 5208.16   4
  10   0  -7 729.579 1325.51   6
 -10   0   8 36565.2 12741.8   5
  10   0   8 50162.4 10061.9  16
 -10   0   8 13249.4 3023.31  16
  10   0  -8 31689.2 9591.17  14
  10   0   8 61952.9 16471.4   8
 -10   0   8 39470.2 11358.6   2
 -10   0   8 46867.8 12593.1   4
  10   0  -8 42736.2 15415.9   1
  10   0   8 34264.6 5439.92  18
  10   0  -8 31912.1 5693.32   6
  10   0   9 5013.02 4437.73  16
 -10   0   9-5531.72 5794.25   5
  10   0  -9-3008.66 3822.48  14
  10   0   9-3567.67 2973.05   8
 -10   0   9 2566.50 3424.08   2
 -10   0   9 1152.85 2493.54   4
  10   0   9-535.328 1385.97  18
  10   0  -9 865.289 5236.03   1
  10   0  -9 868.592 522.445   6
  10   0 -10 3432.69 5189.43   1
 -10   0  10 5220.15 2337.04   5
  10   0 -10 7327.91 4096.57  14
  10   0  10 17552.8 7045.17  16
  10   0  10 12787.5 6956.18   8
 -10   0  10 11372.5 8009.51   2
 -10   0  10 7931.34 5823.03   4
  10   0 -11 366.884 3886.57   1
  10   0  11-6610.28 5922.41  16
  10   0 -11 4809.06 4418.21  14
  10   0  11-8630.24 7162.47   8
 -10   0  11 4458.42 4352.78   2
 -10   0  11-3667.19 3987.17   4
 -10   0  11-1541.60 2541.96   5
  10   0  12-2285.52 4844.71  16
  10   0 -12-4105.81 4400.68   1
 -10   0  12 3756.54 5785.27   5
  10   0 -12 5675.66 4208.84  14
  10   0  12-864.309 1524.45   8
 -10   0  12 2872.67 2589.67   2
 -10   0  12 2953.06 3272.42   4
 -10   0  13 828.016 3874.02   5
  10   0 -13 1751.89 3922.42   1
  10   0 -13 2150.62 3493.92  14
  10   0  13-2358.03 3552.05  16
 -10   0  13 2257.20 3614.97   4
  10   0  13-2106.78 3451.66   8
 -10   0  13-3277.30 5259.91   2
 -10   0  14 5867.26 5328.16   5
  10   0  14 4388.93 4387.05  16
  10   0 -14-3877.27 4535.78  14
  10   0 -14-1851.96 3590.41   1
  10   0  14 7069.68 5368.02   8
 -10   0  14-4918.50 5506.08   2
   0  10 -14-652.278 6276.63  18
 -10   0  14 2077.71 2911.33   4
   0 -10  14 1514.24 5999.13   6
   0  10 -15 2043.81 1728.81  18
  10   0 -15-1062.47 3288.00  14
  10   0  15 2666.82 3104.01  16
  10   0 -15 3897.20 4749.43   1
  10   0  15-1559.04 3302.08   8
 -10   0  15 612.983 2268.94   5
 -10   0  15-2327.22 4088.39   2
 -10   0  15-1752.12 523.030   4
   0 -10  15-9801.18 6456.59   6
   0  10 -16-4438.08 8110.58  18
  10   0  16 1462.68 2024.41  16
  10   0 -16 1830.72 3272.24  14
 -10   0  16-2078.41 4134.20   5
   0 -10  16-9905.14 6760.72   6
  10   0 -16 1283.56 5426.44   1
  10   0  16 3046.86 3128.20   8
 -10   0  16 115.239 3073.75   2
  10   0  17 216.972 1517.56  16
  10   0  17 4970.76 5109.98   8
   0 -10  17-58.6521 650.415   6
  10   0  18 2459.37 6349.00  16
  10   0  18 5665.70 3603.35   8
   0  10 -18 15142.2 6904.02  18
  10   0  19-6437.68 5039.36   8
  10   0  19-2102.52 5956.00  16
   0  10 -19 1151.11 3837.38  18
  10   0  20 12960.4 11700.1  16
   0  10 -20 9425.46 10844.4  18
  10   0  20 31196.1 10156.2   8
   0  10 -21 1799.02 5184.68  11
   0  10 -21 1126.25 3311.65  18
   0  10 -22 9951.08 9677.97  11
   0  10 -23 6711.41 8115.91  11
 -10   1   0-1052.76 2552.78   5
 -10   1   0 805.880 137.358   2
  10  -1   0 2108.67 1305.67  14
  10  -1   0 626.639 3596.78   8
 -10   1   0 1735.61 3435.59   4
  10   1   0 4990.56 3504.21   8
  10  -1   0 1544.57 3565.48   1
 -10   1  -1 2184.92 6038.70   5
 -10   1   1 4996.76 5196.48   5
  10  -1  -1 5703.59 6034.72   1
  10  -1  -1 4268.99 4438.22  14
  10  -1   1 704.639 2006.40   8
 -10   1  -1 2281.04 2012.30   2
 -10   1   1 5716.39 4181.36   2
 -10   1  -1 239.004 7989.66   4
  10   1   1 2532.71 2633.82   8
 -10   1   1 2034.65 2378.87   4
  10   1  -1 6344.54 5338.37   8
  10  -1   1-85.3225 727.355   1
  10  -1   1 2831.53 3782.93  14
  10   1   1 4255.54 2733.15  18
 -10   1  -2 4643.45 4525.37   5
 -10   1   2 4575.94 4518.46   5
  10   1  -2 2766.63 3889.45   1
  10  -1   2 256.612 2559.94  14
  10  -1  -2 1277.72 1196.91  14
  10  -1  -2 81.5471 2346.15   1
  10   1   2 2566.91 2048.80  11
 -10  -1   2-1179.38 1377.28   4
  10  -1   2 533.353 2692.91   1
 -10   1   2-1018.23 3970.36   2
 -10   1  -2-3586.62 4023.14   4
  10   1   2-2207.62 2747.17   8
 -10   1   2-972.708 2803.93   4
  10   1  -2 584.487 1615.37   8
  10  -1   2 234.377 2529.09   8
  10   1   2 1964.09 1620.15  18
  10  -1  -2-77.8250 1200.44   6
 -10   1   3 7692.43 5239.06   5
  10  -1   3 4867.46 1354.12   1
  10  -1  -3 7048.35 4377.98  14
  10   1   3 8662.61 3165.37  11
  10   1  -3 2833.98 1811.84   1
 -10  -1   3 1874.67 1158.53   4
 -10   1  -3 894.943 1572.27   4
  10   1   3 6938.54 4775.59   8
 -10   1   3 6573.79 4276.33   2
  10  -1  -3 11996.8 7702.26   1
 -10   1   3 4568.20 3621.95   4
  10  -1   3 9517.23 5299.97   8
  10   1  -3 7587.87 4464.98   8
  10   1   3 5242.96 3566.02  18
  10  -1  -3 8331.85 4404.70   6
 -10  -1   3 4406.17 3839.46   2
  10   1   3 7285.67 2785.56  16
  10   1   4 426.316 1418.28  16
 -10  -1   4 5549.78 5313.19   5
 -10  -1   4 808.280 943.603   2
 -10   1   4-4802.05 4925.78   5
  10  -1  -4 2205.25 1860.00  14
  10   1   4-1520.43 2573.24  18
 -10   1  -4 208.771 3705.74   4
  10   1  -4-4441.97 3826.31   8
 -10  -1   4 659.513 1690.12   4
  10   1  -4 1570.29 2734.84   1
  10   1   4 3069.83 4077.45   8
 -10   1   4-244.132 2383.52   2
  10  -1   4-1716.34 3501.17   8
 -10   1   4-3839.65 5841.68   4
  10  -1  -4 1186.52 3554.45   1
  10  -1  -4 2237.89 1754.32   6
  10  -1  -5 35700.7 13469.2   1
  10   1   5 37307.7 7562.25  16
 -10  -1   5 20438.6 7285.81   5
 -10  -1   5 22821.7 7389.77   2
 -10   1   5 21339.3 7443.12   5
  10  -1  -5 25740.5 8643.02  14
  10   1   5 38190.5 13359.8   8
 -10  -1   5 21262.8 7445.58   4
  10  -1   5 27278.4 8612.57   8
  10   1  -5 35880.0 11555.8   1
 -10   1   5 22700.9 7104.68   2
 -10   1   5 28212.4 10401.6   4
  10   1   5 36153.4 8690.65  18
  10  -1  -5 31676.0 7505.93   6
  10   1   6 2040.48 915.697  16
 -10  -1   6 1482.04 3668.43   5
  10  -1  -6-1697.80 3837.49   1
 -10   1   6 2051.99 2095.56   5
  10  -1  -6 1422.53 1998.88  14
 -10  -1   6 2214.95 3407.31   2
  10   1   6-2870.01 2768.19  18
  10   1   6-8988.65 8279.95   8
 -10  -1   6 922.294 3321.32   4
  10  -1   6-3559.89 4358.12   8
 -10   1   6-5186.89 3828.42   2
 -10   1   6 4170.13 3649.02   4
  10   1  -6-203.854 3935.41   1
  10  -1  -6-806.520 2348.80   6
  10   1   7 35504.3 7893.29  16
 -10  -1   7 26591.9 11588.9   5
  10   1  -7 20831.7 6766.47  14
 -10   1   7 47844.8 11480.5   5
  10  -1  -7 24022.2 8028.38  14
  10  -1  -7 27880.3 10818.8   1
 -10  -1   7 28996.2 9885.45   2
  10   1   7 36693.7 12268.3   8
 -10  -1   7 20482.3 10026.6   4
  10  -1   7 36380.2 9643.28   8
 -10   1   7 26321.5 8103.37   2
 -10   1   7 43427.0 11515.9   4
  10   1   7 43798.4 8881.88  18
  10  -1   7 33904.0 7837.97  16
  10   1  -7 48195.3 13816.4   1
  10  -1  -7 22591.0 6010.91   6
  10   1  -8-2255.17 3901.70   1
  10   1   8-1136.80 2208.14  16
 -10  -1   8-2003.36 4154.32   5
  10   1  -8 4184.65 3173.17  14
 -10   1   8-1688.01 3245.40   5
  10  -1  -8-4477.97 4010.04  14
 -10  -1   8-1331.69 3603.12   2
  10  -1  -8-1306.14 3032.51   1
  10   1   8-3507.77 4978.68   8
  10  -1   8 1596.34 2729.58   8
 -10  -1   8-4126.16 3724.71   4
 -10   1   8 1240.96 2349.47   2
 -10   1   8 877.378 935.404   4
  10   1   8-583.571 2752.24  18
  10  -1   8 3441.27 3227.83  16
  10  -1   9 14722.0 5824.72  16
  10   1   9 8820.38 4325.73  16
 -10  -1   9 5662.11 5572.83   5
  10   1  -9 11393.2 5748.11  14
  10   1  -9 24859.3 9965.46   1
 -10   1   9 18594.5 7843.35   5
  10  -1  -9 8983.19 4330.51  14
 -10  -1   9 20330.8 9233.80   2
  10   1   9 16022.1 7283.82   8
  10  -1   9 17682.8 7418.71   8
  10  -1  -9 7870.14 4402.88   1
 -10  -1   9 22654.3 9582.83   4
 -10   1   9 9150.13 5068.64   2
  10   1   9 7571.22 4155.19  18
 -10   1   9 19352.3 7470.86   4
  10  -1  10-2064.34 3939.70  16
  10   1  10-1910.29 1937.10  16
 -10  -1  10 3505.11 5575.17   5
  10   1 -10 1751.01 1713.11  14
 -10   1  10-1808.98 3681.19   5
  10  -1 -10-1851.28 2816.71  14
  10   1 -10 3522.13 7196.02   1
  10   1  10-974.546 4475.80   8
 -10  -1  10 1090.80 3971.15   2
  10  -1  10-187.418 1836.93   8
 -10  -1  10-1861.70 3638.41   4
 -10   1  10 4021.72 3636.81   2
  10  -1 -10 809.766 1712.75   1
  10   1  10 2486.89 1792.18  18
 -10   1  10 2194.39 3893.93   4
  10  -1  11-743.077 3173.19  16
  10   1  11-3850.83 3994.67  16
 -10  -1  11 1142.59 5157.06   5
  10   1 -11-904.114 1851.09  14
 -10   1  11-3491.95 3593.92   5
  10  -1 -11-2659.88 3768.56  14
  10   1 -11 6284.58 6738.52   1
  10   1  11-7303.89 8669.86   8
 -10  -1  11 578.389 3594.40   2
  10  -1  11-1881.08 3924.42   8
 -10  -1  11-1844.64 5433.70   4
 -10   1  11-557.971 673.033   2
 -10   1  11 2484.68 2195.98   4
  10  -1 -11-454.297 1348.98   1
  10  -1  12 3100.67 4207.60  16
  10   1  12 1529.89 3381.94  16
 -10  -1  12-1981.83 2290.79   5
 -10   1  12 2766.12 2426.93   5
  10  -1 -12-4035.49 2398.18  14
  10   1  12 5069.43 5413.75   8
  10   1 -12-1246.88 5157.57   1
  10  -1  12 8720.77 6544.71   8
 -10  -1  12 1853.80 3166.00   2
 -10   1  12 3071.34 3751.00   2
 -10  -1  12 3694.83 2317.79   4
  10  -1 -12 83.9828 3962.92   1
  10  -1  13 11339.8 6196.24  16
  10   1  13-182.089 2654.95  16
 -10  -1  13 4628.00 4386.39   5
  10   1 -13 3055.27 1627.55  14
  10   1  13 5234.83 1759.18   8
  10  -1  13 6060.81 5807.20   8
 -10  -1  13 8896.86 7443.91   2
  10   1 -13 10713.9 7222.18   1
 -10  -1  13-385.356 621.478   4
  10  -1  14 6403.72 6168.89  16
  10   1  14-2428.91 3021.99  16
 -10  -1  14-1586.47 1084.11   5
  10   1 -14-3662.67 3662.10  14
  -1  10 -14 5912.12 8762.09  18
  10   1  14 553.099 845.873   8
  10  -1  14-588.097 4970.99   8
 -10  -1  14 382.358 3569.73   2
  10   1 -14 8374.04 10486.7   1
 -10  -1  14-1656.94 1420.95   4
   1  10 -14-1175.83 3268.09  18
   1 -10  14-38.6972 3518.90   6
  -1 -10  14-2601.97 2027.95   6
  10  -1  15 3123.88 4015.61  16
  10   1  15 3400.84 1642.52  16
  10   1 -15 2419.84 2861.19  14
 -10  -1  15-6883.96 5952.01   5
  10   1  15-1849.12 4780.80   8
  10  -1  15 285.806 2005.48   8
 -10  -1  15 3760.62 5260.70   2
 -10  -1  15 4021.52 4566.30   4
  10   1 -15 1089.41 3156.95   1
  -1  10 -15 4392.00 4613.75  18
   1  10 -15-6903.05 3920.01  18
  -1 -10  15 1699.37 6372.06   6
   1 -10  15 45.2270 3180.38   6
  10  -1  16-497.292 4956.97  16
  10   1  16-1215.15 3298.53  16
  10   1 -16-1369.44 3676.65  14
 -10  -1  16-1110.30 4277.19   5
  10   1  16-2340.50 2369.61   8
  10  -1  16-2267.46 4715.16   8
  -1 -10  16-1261.02 5656.18   6
   1  10 -16 1569.99 4486.75  18
 -10  -1  16-3028.15 4651.30   2
 -10  -1  16 2413.04 3318.43   4
  10   1 -16 1108.30 5681.65   1
  -1  10 -16-6029.46 7277.38  18
   1 -10  16-777.989 5458.84   6
  10  -1  17 498.399 5101.71  16
  10   1 -17 2076.61 2581.34  14
 -10  -1  17-3116.23 6063.18   5
  10   1  17-1247.35 190.109   8
  10  -1  17-133.538 4076.04   8
 -10  -1  17 1301.30 3739.79   2
 -10  -1  17 1192.83 950.490   4
  -1  10 -17-2673.47 2756.03  18
  10   1 -17 685.392 6177.91   1
   1  10 -17 8773.63 9794.31  18
   1 -10  17 3916.76 4169.54   6
  10  -1  18-524.874 6660.33  16
 -10  -1  18-7115.29 6071.46   5
  10  -1  18 3016.22 3315.47   8
  10   1 -18-345.504 4402.87   1
 -10  -1  18-4420.79 7293.95   2
 -10  -1  18 937.369 2120.52   4
  -1  10 -18-4675.81 5569.93  18
   1  10 -18-4969.98 5809.40  18
   1  10 -19 20111.3 8967.66  18
  10  -1  19 3508.04 4988.62  16
 -10  -1  19 10490.5 7824.31   5
  10  -1  19 14040.9 8200.14   8
 -10  -1  19 4585.21 7109.23   2
  -1  10 -19 24292.0 8572.18  18
  10   1 -19-503.196 1497.46   1
  10  -1  20-12572.1 7577.40  16
 -10  -1  20-4898.35 7944.53   5
  -1  10 -20 1048.70 938.689  11
   1  10 -20 14842.3 9759.07  11
  10  -1  20-1364.06 1327.71   8
 -10  -1  20 1614.29 3861.51   2
   1  10 -20-149.735 3887.86  18
  -1  10 -20 2460.27 6151.70  18
  10   1 -20 1710.59 6262.09   1
  10  -1  21-903.604 8863.25  16
   1  10 -21 10058.2 9094.36  11
  -1  10 -21 3725.61 7063.82  11
   1  10 -21 21178.6 9871.70  18
  10  -1  21 8836.50 7837.89   8
  -1  10 -21 4491.51 7939.06  18
  10  -1  22-1885.39 7950.05  16
   1  10 -22 8468.78 7439.46  11
  -1  10 -22 197.376 2661.62  11
  10  -1  22-7413.70 7958.91   8
  10  -1  23 2090.64 5100.19  16
   1  10 -23 3429.28 9449.19  11
  10  -1  23-4841.65 5890.99   8
  10  -1  24-4689.97 9358.58  16
  10  -1  24-9984.78 6833.41   8
 -10   2   0 53771.4 14556.7   5
  10  -2   0 47559.3 12257.7  14
  10   2   0 63715.6 12031.0  11
  10  -2   0 71768.0 14386.9   6
  10   2   0 49154.7 12225.4   8
  10  -2   0 74163.2 19218.4   1
 -10   2   0 58093.3 15907.2   4
  10   2   0 41439.6 9911.42  18
 -10   2   0 56328.4 9596.05   2
  10   2   1-101.052 490.769  18
  10   2  -1-320.833 1536.47  18
 -10   2  -1 4593.55 3927.58   5
 -10   2   1 1777.02 3048.47   5
  10  -2   1-6027.10 5260.66  14
  10  -2  -1 2638.49 2944.21  14
  10  -2   1 4003.39 5558.82   1
  10   2  -1 1039.04 2057.78  11
 -10   2  -1 1193.24 1551.44   2
  10   2   1-1008.13 2685.58   8
  10   2  -1 2466.56 2000.24   8
 -10   2  -1 1662.67 1675.97   4
 -10   2   1-1030.04 2726.44   2
 -10   2   1 721.028 1632.63   4
  10  -2  -1 896.401 4828.22   1
  10  -2   1 2691.08 4898.28   6
  10  -2  -1 1542.52 764.429   6
  10  -2   2 10653.1 8175.53   1
  10   2   2 8319.04 2981.84  16
  10  -2  -2 9118.56 7164.42   1
 -10   2  -2 13884.6 8595.77   5
 -10   2  -2 9988.43 3594.27   2
  10  -2   2 9516.36 5467.23  14
 -10   2   2 5654.16 3546.72   5
  10  -2  -2 4265.67 3921.73  14
  10   2  -2 12300.6 5173.93  11
  10   2   2 13949.3 8884.21   8
  10   2  -2 10874.2 5108.24   8
 -10   2  -2 11088.7 7648.75   4
 -10   2   2 15178.1 7818.99   4
 -10   2   2 6785.73 3095.88   2
  10   2   2 15495.2 7559.47  18
  10   2  -2 10191.5 5380.77  18
  10  -2  -2 14530.5 5970.94   6
 -10   2  -3-686.356 5247.65   5
  10   2   3 1311.04 1408.45  16
  10  -2   3 200.978 2557.53   1
  10  -2   3 820.791 2630.88  14
 -10   2   3 6041.51 4685.01   5
  10  -2  -3-61.8718 3141.62  14
  10  -2  -3 58.8550 800.418   1
  10   2  -3 3782.01 2993.01  11
  10   2   3-1648.59 3689.55   8
 -10   2  -3 3011.36 5892.11   4
  10   2  -3-240.181 1069.46   8
  10   2   3 3047.31 2249.51  18
 -10   2   3 714.921 1460.29   4
 -10   2   3 1359.38 1979.36   2
  10  -2   3 8579.08 6324.35   8
  10   2  -3 1299.24 2084.72  18
  10  -2  -3 1624.26 950.635   6
 -10   2  -4 2816.65 3389.36   5
  10   2   4 2351.47 1903.88  16
  10  -2   4 1102.91 4598.80  14
 -10   2   4 6429.43 3259.38   5
  10  -2  -4 4321.88 3034.34  14
 -10   2   4 2331.63 2579.01   2
  10   2   4 1156.82 2483.46   8
  10  -2   4 5519.24 6051.71   1
 -10   2  -4-1896.77 3527.47   4
  10  -2  -4 6375.94 4885.59   1
  10   2  -4 431.761 1402.64   8
  10  -2   4 3736.78 3361.68   8
 -10   2   4 4873.67 3469.08   4
  10   2   4 3886.06 1779.36  18
  10  -2  -4 3119.21 2213.34   6
 -10   2  -5-764.027 2812.41   5
  10   2  -5 1188.82 3334.31   1
  10  -2   5 1998.51 2776.45  14
  10  -2  -5 81.5786 2131.04   6
  10  -2   5-923.486 2350.42   1
 -10   2   5 797.817 1861.81   5
  10  -2  -5-1242.13 3054.05  14
  10   2   5-3406.28 904.104   8
 -10   2  -5-842.834 1322.98   4
  10  -2   5 51.9923 599.312   8
  10   2  -5-2884.79 2503.96   8
  10   2   5 3725.98 2757.33  18
 -10   2   5-436.889 792.770   4
  10  -2  -5-1944.44 1427.87   1
 -10   2   5 1881.30 1905.46   2
  10   2  -6 8808.15 6054.73   1
 -10   2   6 8732.61 5621.33   5
  10  -2  -6 1886.73 1109.62  14
 -10  -2   6 4037.96 4122.41   4
 -10   2  -6 6257.95 4886.39   4
  10   2   6 5207.73 3504.14  18
  10   2   6 13480.6 9055.74   8
  10  -2   6 14305.2 6337.39   8
 -10   2   6 13803.6 6436.76   4
  10   2  -6 17575.7 6630.71   8
 -10   2   6 5960.51 3335.18   2
  10  -2  -6 3224.97 2483.75   1
 -10  -2   6 2003.27 2624.48   2
 -10  -2   7 182.871 1985.03   5
 -10  -2   7 5176.38 4676.17   2
  10  -2  -7-244.254 652.324   1
 -10   2   7-511.951 1808.08   5
  10  -2  -7 2979.26 2586.81  14
 -10   2  -7 1899.98 2426.55   4
  10   2  -7-3667.61 5517.24   1
 -10  -2   7-6591.35 4174.56   4
  10   2   7-65.0064 2725.81   8
  10   2   7-2569.86 2324.52  18
  10  -2   7 1451.57 249.428   8
 -10   2   7 3403.20 3781.76   4
 -10   2   7 2150.07 2346.84   2
 -10  -2   8 5121.85 4633.40   5
 -10   2   8 13301.6 6515.35   4
 -10  -2   8 5531.15 4619.67   2
 -10   2   8 5844.38 4029.93   5
  10  -2  -8 2137.46 2494.83  14
  10  -2  -8 5767.23 4696.99   1
  10   2   8 5567.97 4823.99   8
 -10  -2   8 1819.89 1344.75   4
  10   2  -8 2314.89 2989.61   1
  10  -2   8 6555.78 3789.86   8
 -10   2   8 4950.37 3578.61   2
 -10  -2   9-77.8605 2658.61   5
 -10  -2   9 956.167 1765.68   2
  10  -2  -9-8028.76 4863.57  14
 -10  -2   9 1176.46 1423.89   4
  10  -2  -9-587.990 2344.11   1
  10   2  -9 8261.85 6394.23   1
  10  -2   9 2561.80 2196.10   8
  10  -2   9-196.284 3037.43  16
 -10  -2  10-2614.24 4708.81   5
 -10  -2  10 5946.57 3405.50   2
 -10  -2  10-1481.37 3462.33   4
  10  -2  10 11173.7 6708.77   8
  10   2 -10 3727.70 4860.41   1
  10  -2  10 437.928 1790.10  16
 -10  -2  11-1601.18 2353.19   5
 -10  -2  11 480.805 2013.30   2
 -10  -2  11-864.388 2940.83   4
  10   2 -11-2590.74 2544.39   1
 -10  -2  12 5223.87 4753.09   5
 -10  -2  12 11006.1 7488.77   2
 -10  -2  12 10006.2 5757.49   4
  10  -2  12 10310.6 6633.35   8
  10   2 -12 7903.38 6390.08   1
  10  -2  12 3884.55 4293.42  16
  10  -2  13 2530.41 2777.14  16
 -10  -2  13-2777.00 3631.74   5
 -10  -2  13-2687.77 3029.48   2
 -10  -2  13 2620.44 3967.82   4
  10  -2  13 226.974 901.348   8
   2  10 -13 3885.18 6148.98  18
  10   2 -13 2459.02 2426.67   1
  10  -2  14 16408.9 5690.16  16
  10   2 -14-8598.85 7775.15   1
 -10  -2  14 7872.95 4816.44   5
 -10  -2  14 13520.9 9650.25   2
  10  -2  14 13074.2 5989.15   8
 -10  -2  14 12335.0 5720.76   4
  -2  10 -14 16612.6 9480.91  18
   2  10 -14 10654.0 10558.0  18
   2 -10  14 6557.74 9490.47   6
  -2 -10  14-3066.88 3271.88   6
  10  -2  15-2921.05 4911.77  16
  10   2 -15 745.593 4471.90   1
 -10  -2  15-1879.74 4785.94   5
  -2 -10  15 1019.86 2906.71   6
 -10  -2  15-2164.98 2922.30   2
  10  -2  15-303.898 683.885   8
 -10  -2  15-27.6226 1392.12   4
  -2  10 -15 1282.87 3280.77  18
   2  10 -15-12500.6 9908.46  18
   2 -10  15-1283.43 3691.54   6
  10  -2  16 766.120 5497.38  16
 -10  -2  16 5521.25 5930.65   5
  10   2 -16-476.148 2308.67   1
  -2  10 -16 3384.25 3671.87  18
 -10  -2  16 971.575 3993.01   2
  10  -2  16 6119.65 3210.94   8
 -10  -2  16 6766.71 4893.64   4
   2  10 -16 7835.97 6479.93  18
  -2 -10  16 122.198 2736.57   6
   2 -10  16-607.400 3023.49   6
  10  -2  17 2178.67 4085.09  16
  -2  10 -17-2612.06 4436.08  18
 -10  -2  17 2683.91 4628.01   5
  10   2 -17-1517.12 7797.73   1
   2  10 -17 10581.0 9725.67  18
 -10  -2  17 4989.48 6758.19   2
  10  -2  17-3218.34 4489.63   8
 -10  -2  17-1546.06 4423.65   4
   2 -10  17-1184.91 3643.71   6
  10  -2  18 393.936 4013.59  16
 -10  -2  18 3295.01 2618.74   5
  10   2 -18-582.669 7154.93   1
 -10  -2  18-356.368 5944.72   2
  10  -2  18 2303.59 2800.65   8
   2  10 -18-1771.20 4866.39  18
  -2  10 -18 1186.35 3726.71  18
  10  -2  19 276.936 3443.11  16
 -10  -2  19-879.118 1302.14   5
  10   2 -19-1783.18 3797.81   1
 -10  -2  19-2907.86 8916.01   2
  10  -2  19-1630.37 1529.68   8
  -2  10 -19 512.359 2255.73  18
   2  10 -19 8656.89 7628.83  18
  10  -2  20 3779.00 3970.89  16
 -10  -2  20 1326.89 2722.37   5
  10   2 -20 3008.54 8060.25   1
  -2  10 -20 10446.8 6598.57  11
  10  -2  20 6419.55 5234.54   8
   2  10 -20 783.643 2454.68  18
  10  -2  21 1656.43 6049.04  16
 -10  -2  21 2179.98 4205.77   5
  10   2 -21-2673.05 7378.17   1
   2  10 -21 2108.86 5623.03  11
  -2  10 -21-2218.69 4051.07  11
 -10  -2  21-1989.57 8996.90   2
  10  -2  21-1571.39 2647.40   8
   2  10 -21 5980.79 7889.40  18
  10  -2  22-1125.90 3399.18  16
 -10  -2  22-7297.38 6989.24   5
  10   2 -22 4232.29 7971.62   1
   2  10 -22 1068.18 950.814  11
  -2  10 -22-608.967 2197.04  11
 -10  -2  22 2215.20 3397.99   2
  10  -2  22 1225.39 2297.42   8
  10  -2  23-2857.94 2357.34  16
 -10  -2  23 683.557 1515.47   5
  10   2 -23-5161.51 6634.62   1
   2  10 -23-3375.84 1823.59  11
 -10  -2  23-1338.99 8725.06   2
  10  -2  23-540.493 451.823   8
  10  -2  24-2000.52 3579.04  16
  10  -2  24 5666.42 5279.87   8
  10  -2  25 5563.21 5683.44   8
  10  -2  25-251.024 3155.14  16
  10  -2  26 4827.66 10433.2  16
  10  -2  26 4853.63 3135.10   8
 -10   3   0 1025.42 2451.24   5
  10  -3   0 2971.90 2814.76  14
  10  -3   0 1037.09 1285.69   1
  10   3   0 1957.04 3357.53   8
 -10   3   0-32.3487 3652.84   4
  10   3   0-3303.52 5013.35  18
 -10   3   0 866.126 266.478   2
  10  -3   0-573.102 1800.55   6
 -10   3  -1 91000.8 17746.7   5
 -10   3   1 95931.0 16561.6   5
  10  -3   1 100492. 19867.2   1
  10  -3  -1 69510.7 15905.0   1
  10  -3   1 69713.2 14488.2  14
  10  -3  -1 65621.5 14586.2  14
  10  -3  -1 72385.2 14187.3   6
 -10   3  -1 105924. 20979.3   4
 -10   3   1 107317. 19547.8   4
  10   3  -1 96841.5 18889.9   8
  10   3   1 62497.6 15882.6   8
  10   3   1 87376.6 17179.3  18
  10   3  -1 111839. 20922.2  18
  10  -3   1 94208.4 17849.8   6
 -10   3  -1 58026.5 7482.50   2
 -10   3   1 45709.9 7230.84   2
  10  -3   2 7066.97 6918.40   1
 -10   3  -2 10531.1 5880.24   5
  10  -3   2 568.629 3995.37  14
 -10   3   2 3859.29 3599.76   5
  10  -3  -2 2742.57 3133.96  14
  10   3   2 3271.38 3884.79   8
  10   3  -2 6679.25 3797.04   8
  10  -3   2 5429.61 1654.27   6
 -10   3  -2 2264.50 1947.06   4
 -10   3  -2 1531.12 407.593   2
  10   3   2 3621.82 2772.28  18
 -10   3   2 3446.01 4304.80   4
  10   3  -2 1610.29 715.324  18
 -10   3   2 1334.87 1681.98   2
  10  -3  -2 2697.00 4644.11   1
  10  -3  -2 3528.05 3055.48   6
 -10   3  -3 6004.49 2154.91   5
  10  -3   3 12031.3 7122.36  14
  10  -3  -3 7728.00 4145.61   1
 -10   3   3 15641.4 7116.76   5
  10  -3  -3 8815.31 4685.63  14
  10   3  -3 16635.1 6228.43  11
  10   3   3 7934.79 5516.90   8
  10  -3   3 15895.4 8539.36   1
 -10   3  -3 12502.2 3568.83   2
  10   3  -3 12968.2 5696.04   8
 -10   3  -3 12124.1 5928.40   4
  10   3   3 7142.39 2686.91  18
 -10   3   3 14792.5 7087.45   4
  10   3  -3 12367.8 6084.17  18
  10  -3   3 21009.4 8475.57   6
 -10   3   3 4633.62 2255.81   2
  10  -3  -3 10033.4 6776.23   6
 -10   3  -4 3583.91 1605.65   2
 -10   3  -4 3011.33 1329.26   5
  10  -3   4 9019.45 8070.19   1
  10  -3   4 7432.47 4065.08  14
 -10   3   4 4906.21 3858.51   5
  10  -3  -4-1302.98 2835.84  14
  10   3  -4 6133.25 4544.16  11
  10   3   4 5396.60 4390.22   8
  10  -3  -4-432.483 2505.30   1
  10   3  -4 4332.82 3207.58   8
 -10   3  -4 1632.00 2029.99   4
  10   3   4 5356.35 4599.54  18
 -10   3   4 2398.94 608.268   4
  10   3  -4 4647.03 4134.40  18
 -10   3  -5 1090.34 400.083   5
  10  -3   5 1122.51 1418.26  14
 -10   3   5-1008.96 1118.44   5
  10  -3  -5 680.496 657.239  14
  10   3  -5 228.854 1395.48  11
 -10   3  -5 3795.95 6861.07   4
  10   3  -5 5202.01 3779.75   8
  10   3   5 1595.98 4257.32  18
  10  -3  -5 3890.88 4429.28   1
  10  -3   5 5542.76 568.264   1
 -10   3   5 994.833 2766.35   4
  10   3  -5-4703.90 3435.48  18
 -10   3  -6 10574.8 6283.72   5
  10  -3   6 15264.9 7618.39  14
  10   3  -6 16031.6 7111.69  11
  10  -3   6 22248.8 8219.85   1
 -10   3  -6 15804.9 8082.99   4
  10   3  -6 25344.9 7542.21   8
  10  -3   6 14712.9 6811.19   8
  10   3  -6 9918.65 3534.01  18
 -10   3  -7 5974.19 4493.21   5
  10  -3   7-3526.50 5845.70   1
  10  -3   7 1354.49 3043.18  14
 -10   3  -7-3360.88 3509.83   4
  10   3  -7 2027.60 2364.13   8
  10  -3   7 5904.54 4706.13   8
  10  -3   8 4489.60 4209.82  14
 -10   3  -8 2665.52 4329.50   4
  10  -3   8-1392.11 2987.10   8
  10   3  -9 7694.67 6647.42   1
 -10   3  -9 2396.54 3292.09   4
  10  -3   9 1194.76 3367.49   8
 -10  -3   9 5566.96 6146.74   2
 -10  -3  10 813.009 1951.63   2
  10   3 -10 3743.68 5591.58   1
  10  -3  10 9087.71 8649.95   8
 -10  -3  11 8281.43 6143.86   2
  10   3 -11 12176.5 8489.25   1
 -10  -3  12 2548.42 4512.46   2
 -10  -3  12-475.803 1372.95   4
  10   3 -12-3576.38 2765.86   1
  10  -3  12 111.732 2679.44   8
  10  -3  12-477.381 2113.24  16
 -10  -3  13 14126.8 5272.82   5
 -10  -3  13 13828.2 5642.53   4
  10   3 -13 28670.9 10473.4   1
  10  -3  13 35926.3 10205.8  16
  10  -3  13 51036.4 11151.9   8
   3  10 -13 30776.1 14282.7  18
 -10  -3  13 12413.1 9748.47   2
 -10  -3  14 4271.31 4233.81   5
 -10  -3  14 768.921 1831.30   2
 -10  -3  14-846.183 135.961   4
  10   3 -14 589.688 5573.78   1
  10  -3  14 4332.88 2972.02   8
   3  10 -14-2217.16 5888.13  18
   3 -10  14-678.807 6721.44   6
  -3 -10  14-2047.77 3758.66   6
  10  -3  14 1635.21 4580.02  16
 -10  -3  15 13798.4 6710.85   5
 -10  -3  15 18035.7 9349.37   2
 -10  -3  15 7436.05 1303.03   4
  10   3 -15 1372.54 2844.80   1
  10  -3  15 31446.6 9349.04   8
   3  10 -15 45994.7 17717.0  18
  -3  10 -15 21572.2 8395.94  18
  -3 -10  15-6538.96 8160.24   6
   3 -10  15-953.043 3411.45   6
  10  -3  15 6474.68 8028.39  16
  -3 -10  16 8343.92 7160.95   6
 -10  -3  16 641.408 3208.93   5
   3  10 -16-11177.6 11693.7  18
 -10  -3  16 4385.01 5219.12   2
 -10  -3  16 1847.18 2595.95   4
   3 -10  16 313.240 1834.10   6
  -3  10 -16-1366.84 2716.12  18
  10  -3  16 1670.06 3799.48   8
  10   3 -16 1471.02 6379.89   1
  10  -3  16 1032.73 2807.99  16
  10  -3  17 7260.03 8172.64  16
 -10  -3  17-222.547 4692.15   5
 -10  -3  17 2788.28 6693.85   2
  10  -3  17 3178.82 3570.05   8
  10   3 -17 1769.85 1546.44   1
  -3  10 -17 8777.77 6291.61  18
   3  10 -17 15498.6 13548.9  18
   3 -10  17 3937.14 8451.77   6
  10  -3  18-3006.54 2982.73  16
 -10  -3  18 1214.23 3455.52   5
 -10  -3  18-1234.76 4983.90   2
  10  -3  18-2305.69 1771.83   8
  10   3 -18 1527.00 6166.11   1
  10  -3  19 3465.41 4753.52  16
 -10  -3  19 1492.39 3675.00   5
 -10  -3  19-1134.93 5350.21   2
  10  -3  19-74.1760 4840.50   8
  10   3 -19 1721.01 4959.80   1
   3  10 -19-596.052 3889.53  18
  10  -3  20 3297.68 5370.26  16
 -10  -3  20-4472.19 3392.27   5
   3  10 -20 3762.83 5448.80  11
  -3  10 -20-15875.4 8579.98  11
 -10  -3  20 93.1248 1284.99   2
  10  -3  20-551.590 3617.41   8
  10   3 -20 1928.86 8668.39   1
   3  10 -20 602.785 5125.08  18
  10  -3  21 1077.77 5990.15  16
 -10  -3  21 92.3545 1881.60   5
 -10  -3  21 5505.00 6747.45   2
   3  10 -21 5031.30 3604.38  11
  -3  10 -21 628.907 3795.52  11
  10  -3  21 1748.24 4452.48   8
  10   3 -21 10438.9 13120.4   1
   3  10 -21 1627.84 2607.06  18
  10  -3  22-2308.90 5408.51  16
 -10  -3  22 1105.24 5460.89   2
   3  10 -22 4313.03 6973.32  11
  -3  10 -22-2622.08 1959.96  11
  10  -3  22-2989.49 3733.40   8
 -10  -3  22-1545.50 3166.24   5
  10  -3  23-4905.63 6364.17  16
 -10  -3  23 6658.86 10418.2   2
   3  10 -23 5448.92 7021.80  11
  10  -3  23-1881.51 927.412   8
  10  -3  24-5258.35 6810.61  16
 -10  -3  24 6393.35 9662.98   2
  10  -3  24 1556.12 2354.97   8
  10   3 -24 18562.9 13242.3   1
  10  -3  25 799.097 7125.11  16
 -10  -3  25 9446.52 10850.1   2
  10  -3  25 5453.59 6134.16   8
  10   3 -25 10872.1 9900.22   1
  10  -3  26-1257.72 6345.63  16
 -10  -3  26 2033.51 8571.08   2
  10  -3  26 3539.26 4291.44   8
  10   3 -26 3864.17 9740.79   1
  10  -3  27 1353.52 7439.72  16
  10  -3  27-1399.67 5528.13   8
  10  -3  28 1818.04 6124.93  16
  10  -3  28-424.766 4215.92   8
  10  -3  29-1804.23 3045.47  16
 -10   4   0 112941. 17387.9   5
  10  -4   0 64033.8 14655.2   1
  10  -4   0 56467.5 13535.8  14
 -10   4   0 139277. 22860.6   4
  10   4   0 65467.9 16207.0   8
  10   4   0 92624.9 18322.4  18
  10  -4   0 65948.5 14607.2   6
 -10   4  -1 15335.0 7332.69   5
  10  -4   1 9615.44 5415.48  14
 -10   4   1 10154.5 5280.63   5
  10  -4  -1 8640.37 5541.61  14
  10   4   1 3458.31 3390.17   8
  10   4  -1 10922.3 4343.57   8
 -10   4   1 10823.1 5937.97   4
  10  -4  -1 8293.93 6087.44   1
  10   4   1 9617.82 4922.62  18
 -10   4  -1 16214.1 8254.91   4
  10   4  -1 14993.5 6834.81  18
  10  -4   1 8044.74 6043.36   6
  10  -4   1 11685.6 5368.33   1
  10  -4  -1 3665.15 4136.98   6
 -10   4  -2 65975.7 14293.1   5
 -10   4   2 52767.5 11991.2   5
  10  -4  -2 17388.6 7921.79   1
  10  -4   2 46052.1 12425.0  14
  10  -4  -2 25897.5 9404.63  14
 -10   4  -2 93295.2 19199.2   4
 -10   4   2 62527.2 14991.1   4
  10   4  -2 64956.6 15546.9   8
  10  -4   2 49802.7 13614.2   1
  10   4  -2 58287.3 16137.1  18
  10   4   2 32541.7 10210.2  18
  10  -4   2 47078.4 12164.5   6
 -10   4  -3 18933.0 6924.29   5
  10  -4   3 12477.3 5920.29   1
  10  -4   3 14844.3 7283.48  14
  10   4   3 3729.10 3753.58  18
  10   4  -3 10819.4 4862.94   8
  10   4  -3 10131.8 5517.24  18
 -10   4  -3 19137.7 10160.4   4
  10  -4   3 14732.0 6650.70   6
 -10   4  -3 4551.14 1529.50   2
  10   4  -4 7429.95 7725.43  18
 -10   4  -4 3099.62 1400.47   5
  10  -4   4 6630.02 4456.76  14
  10   4  -4 10041.8 6193.61   8
 -10   4  -4 12913.1 9320.62   4
  10  -4   4 15388.7 8186.19   6
  10  -4   4 16340.1 8580.81   1
 -10   4  -5 52669.0 13742.7   5
  10  -4   5 35077.7 10736.8  14
  10   4  -5 41111.5 10422.7   8
  10  -4   5 66495.9 15776.6   1
 -10   4  -5 42947.6 13995.6   4
  10   4  -5 30728.3 10281.5  18
  10  -4   5 40570.4 14228.0   6
 -10   4  -6-7455.95 6732.17   5
  10  -4   6-4396.88 6130.94   1
  10  -4   6-2897.11 2490.93  14
  10   4  -6-5643.66 5892.14  11
  10   4  -6-2189.79 3937.66   8
 -10   4  -6-6903.38 8443.81   4
  10   4  -6 184.345 2468.85  18
  10  -4   6 2925.42 5911.03   6
 -10   4  -7 13697.0 7258.83   5
  10  -4   7 21720.9 7852.75  14
  10   4  -7 12584.8 4922.68  11
 -10   4  -7 22997.7 11152.1   4
  10   4  -7 25976.8 7436.59   8
  10  -4   7 27508.4 8575.09   1
  10   4  -7 15268.0 7069.95  18
 -10   4  -8-3927.06 4758.40   5
  10  -4   8-3198.78 4528.73  14
  10   4  -8-7692.96 5920.85  11
  10  -4   8-12313.3 6306.47   1
 -10   4  -8-689.113 5704.24   4
  10   4  -8 696.217 1146.33   8
  10   4  -8-2514.48 2331.23  18
  10  -4   9 39210.9 12965.3   1
  10  -4   9 8755.36 5527.11  14
  10   4  -9 10631.3 7649.45  11
 -10   4  -9 13502.5 8829.10   4
  10   4  -9 14726.9 6330.64   8
  10  -4   9 24557.3 9867.60   8
  10  -4  10 10199.0 6092.81  14
 -10   4 -10 7368.82 5306.40   4
  10  -4  10 16279.2 7156.85   8
 -10   4 -11 249.100 2623.78   4
  10  -4  11 7192.58 4029.35   8
  10  -4  12 54034.5 12008.0   8
 -10  -4  12 14155.1 7781.61   2
  10  -4  13 5396.89 3250.58   8
   4  10 -13 9172.84 10961.4  18
 -10  -4  13 8056.60 7046.37   2
 -10  -4  14 13098.1 6764.33   2
   4  10 -14 50950.7 17463.3  18
  10  -4  14 35344.2 9436.64   8
   4 -10  14-1575.91 10492.0   6
  -4 -10  14 579.227 3301.09   6
 -10  -4  15 3085.40 4242.26   2
  10   4 -15 191.486 2031.36   1
   4  10 -15 7358.09 8791.90  18
  10  -4  15 3681.69 5208.25   8
   4 -10  15-867.295 2619.77   6
 -10  -4  16 2033.93 3109.00   2
  10   4 -16 847.099 4765.90   1
   4  10 -16 3103.45 6160.30  18
  10  -4  16 4422.84 6187.89  16
  10  -4  16 13846.4 7141.85   8
   4 -10  16 4897.22 9410.14   6
 -10  -4  17 699.689 1315.09   2
  10   4 -17-391.219 1669.70   1
  10  -4  17 1358.36 4584.08   8
   4  10 -17 4053.42 4685.26  18
   4 -10  17-1888.62 7920.19   6
  10  -4  17 4711.04 4860.74  16
 -10  -4  18 1865.03 5686.09   2
  10   4 -18 2404.19 4668.41   1
  10  -4  18 197.053 1144.50   8
   4  10 -18 8106.93 3929.09  18
  10  -4  18 1066.23 1788.46  16
  10   4 -19-1752.16 2167.97   1
 -10  -4  19 286.931 1790.58   2
  10  -4  19 187.718 2223.87   8
  10  -4  19 3233.44 3473.81  16
 -10  -4  20 872.514 3279.89   2
  10   4 -20-1905.72 4718.73   1
   4  10 -20 2616.64 2207.25  11
  -4  10 -20-1850.49 4934.60  11
   4  10 -20-904.357 1364.07  18
  10  -4  20 264.412 4143.97   8
  10  -4  20 1697.01 5918.04  16
 -10  -4  21 667.012 1684.75   2
  10   4 -21-399.418 4763.26   1
   4  10 -21 10057.0 9505.80  11
  10  -4  21 339.774 2925.23   8
   4  10 -21 1954.52 5778.86  18
  10  -4  21 506.452 1829.22  16
 -10  -4  22-1384.41 6808.32   2
  10   4 -22-2267.14 4494.87   1
   4  10 -22 6242.66 6548.40  11
  10  -4  22-431.191 2517.65   8
  10  -4  22-614.871 2342.31  16
 -10  -4  23 4053.57 7066.04   2
  10   4 -23-2032.44 2013.59   1
   4  10 -23 9645.75 9945.51  11
  10  -4  23 4266.29 4453.45   8
  10  -4  23 2316.05 5207.78  16
 -10  -4  24 3369.08 3753.53   2
  10   4 -24-1393.30 5516.31   1
  10  -4  24 3791.79 4317.66   8
  10  -4  24 3610.56 6327.12  16
 -10  -4  25 688.368 3322.76   2
  10   4 -25 1314.38 7253.04   1
  10  -4  25 2518.65 4413.68   8
  10  -4  25 5806.34 5991.08  16
 -10  -4  26 5069.57 5242.92   2
  10  -4  26 5854.18 7404.98   8
  10  -4  26 3408.52 9096.16  16
  10  -4  27 1117.14 7060.24  16
 -10  -4  27-10060.0 9115.05   2
  10  -4  27 2149.77 4850.12   8
  10  -4  28 4885.13 7491.60  16
 -10  -4  28 9964.56 8934.76   2
  10  -4  29 2805.36 5296.89  16
  10  -4  30 1193.65 3524.52  16
  10  -4  31 905.949 7357.62  16
  10   5   0 8556.31 5679.73  18
 -10   5  -1 44176.9 11122.6   5
  10  -5   1 23492.5 8927.48  14
 -10   5  -1 59603.2 15954.7   4
  10   5   1 26449.7 9006.86  18
  10   5  -1 40864.9 13749.7  18
 -10   5  -2 44038.5 10965.6   5
  10  -5   2 19485.3 8473.71  14
  10   5  -2 22693.8 9060.87   8
  10  -5   2 29151.8 8943.90   1
  10   5   2 13933.5 2649.99  18
  10   5  -2 36747.0 12588.4  18
 -10   5  -2 51186.4 14180.9   4
  10  -5   2 17680.5 7209.81   6
  10  -5   3 14296.2 6717.91   1
 -10   5  -3 15813.2 6657.83   5
  10  -5   3 6863.14 4230.26  14
  10   5  -3 7503.57 4205.55   8
 -10   5  -3 17173.3 8026.78   4
  10   5  -3 18474.9 7528.71  18
  10  -5   3 8132.06 5088.00   6
 -10   5  -4 53939.7 13129.1   5
  10  -5   4 28561.8 10197.5  14
  10   5  -4 41888.6 12473.5   8
 -10   5  -4 49964.1 14715.7   4
  10  -5   4 34365.4 10660.3   1
  10   5  -4 42820.8 13251.6  18
  10  -5   4 17626.6 10914.7   6
 -10   5  -5 6397.28 5607.07   5
  10  -5   5-282.717 2117.52  14
  10  -5   5-4051.49 4631.83   1
  10   5  -5-528.649 2705.38   8
 -10   5  -5 1047.52 1704.24   4
  10   5  -5 478.391 2785.17  18
  10  -5   5-2032.78 3738.41   6
  10  -5   6 41923.7 14103.4   6
 -10   5  -6 38130.5 10520.0   5
  10  -5   6 37862.2 10733.0  14
  10   5  -6 57291.4 12850.0   8
 -10   5  -6 69133.4 18737.2   4
  10   5  -6 62815.7 18274.2  18
  10  -5   6 69412.2 15287.8   1
 -10   5  -7 748.959 1528.38   5
  10  -5   7-3831.96 4343.57  14
  10  -5   7 1100.93 3390.44   1
  10   5  -7 4466.90 3754.80   8
 -10   5  -7 4822.37 2880.01   4
  10   5  -7-3870.35 3429.92  18
  10  -5   7 763.853 4801.59   6
  10  -5   8 54535.4 12169.0   1
 -10   5  -8 27187.2 10068.1   5
  10   5  -8 47118.8 13730.4  18
  10  -5   8 40452.5 12384.2  14
  10   5  -8 59021.7 17848.9  11
  10   5  -8 44013.9 9787.33   8
 -10   5  -8 32768.3 12949.2   4
 -10   5  -9-2568.37 3704.58   5
  10  -5   9-472.270 3264.95  14
 -10   5  -9-1601.05 2247.29   4
  10  -5   9-5517.97 5110.54   1
  10   5  -9-156.309 486.551   8
  10   5  -9-2407.07 4358.17  18
 -10   5 -10 16730.6 6234.25   5
  10  -5  10 28425.7 10782.1  14
  10  -5  10 36701.0 10415.4   1
  10   5 -10 24986.9 9443.73  11
 -10   5 -10 18666.6 8488.31   4
  10   5 -10 39637.5 8926.06   8
  10   5 -10 25280.6 9745.04  18
  10  -5  11 12192.2 5946.31  14
  10   5 -11 13076.3 6155.09  11
 -10   5 -11 7165.98 6125.82   4
  10   5 -11 17652.1 8871.47  18
  10  -5  12 21514.3 7354.32  14
 -10   5 -12 9389.59 5803.17   4
   5  10 -12 21997.0 12931.1  18
   5  10 -13 45025.8 16014.9  18
  10  -5  14 4010.71 6627.63   8
   5 -10  14-481.937 3246.08   6
   5 -10  15-225.705 5465.95   6
   5  10 -15 17967.2 10258.3  18
  10  -5  15 7756.78 5227.91   8
  10  -5  16 1763.09 3829.35   8
   5 -10  16-4084.54 7039.51   6
   5  10 -17-5390.27 3794.39  18
  10  -5  17-1298.36 4345.57   8
 -10  -5  17 3249.25 4497.21   2
  10  -5  18-1136.60 4176.24   8
 -10  -5  18-506.243 1777.60   2
   5  10 -19 5423.53 5792.61  11
  10  -5  19-2686.23 5208.33   8
   5  10 -19-1586.87 4295.03  18
 -10  -5  19-212.764 1538.97   2
 -10  -5  20 1401.08 2954.70   2
   5  10 -20 8769.81 11552.9  11
  10  -5  20 5044.22 6561.86   8
   5  10 -20 15234.9 9910.21  18
  10  -5  20 1534.42 1048.56  16
 -10  -5  21-2819.15 5818.59   2
   5  10 -21-2908.65 8082.95  11
  10  -5  21 2844.01 2963.41   8
   5  10 -21-29.5430 1756.21  18
  10  -5  21-2224.82 3325.88  16
 -10  -5  22 2834.82 6518.77   2
   5  10 -22 6289.82 9326.85  11
  10  -5  22 2355.10 6280.01   8
  10  -5  22 3579.88 4816.98  16
 -10  -5  23-69.2926 2341.48   2
  10  -5  23 4745.20 6452.49  16
  10  -5  23 424.970 2015.50   8
 -10  -5  24 5666.47 6017.41   2
  10  -5  24 941.105 4420.39   8
  10  -5  24 6845.37 8818.27  16
 -10  -5  25 1809.85 5248.56   2
  10  -5  25 1922.42 3990.00   8
  10  -5  25 210.133 4085.90  16
  10  -5  26 6113.81 6971.07   8
 -10  -5  26-227.660 1999.60   2
  10  -5  26 2068.39 4984.75  16
 -10  -5  27-332.552 1530.17   2
  10  -5  27 4521.83 6781.07  16
 -10  -5  28 1052.11 597.585   2
  10  -5  28 217.217 3297.64  16
 -10  -5  29 7688.69 7758.20   2
  10  -5  29 6072.81 4709.22  16
 -10  -5  30 4498.17 6747.67   2
  10  -5  30 11977.9 8060.91  16
 -10  -5  31 2236.01 7549.63   2
  10  -5  31-10378.7 6697.90  16
  10  -5  32 9431.64 7284.91  16
  10  -5  33-4979.86 4520.17  16
  10   6  -1 19288.7 9888.45  18
  10   6  -2 310.068 982.631  18
  10   6  -3 40586.0 14918.6  18
 -10   6  -4 3270.46 3383.94   5
  10  -6   4 3765.32 4675.23  14
  10   6  -4-1670.53 1678.70   8
  10   6  -4-891.438 474.020  18
 -10   6  -4 296.868 6349.93   4
  10  -6   4 4150.52 4804.10   1
  10  -6   4-5309.16 5291.39   6
 -10   6  -5 74408.7 14378.4   5
  10  -6   5 6704.33 8568.79  14
 -10   6  -5 70788.1 18186.5   4
  10  -6   5 24767.7 8596.27   1
  10   6  -5 28428.8 10913.2   8
  10   6  -5 46497.9 15362.2  18
  10  -6   5 15906.8 10493.9   6
 -10   6  -6 20917.3 7989.03   5
  10  -6   6 5273.45 7760.73  14
  10   6  -6 18989.3 4385.15   8
 -10   6  -6 21868.5 10182.9   4
  10  -6   6 22922.3 7947.59   1
  10   6  -6 23784.7 13118.1  18
  10  -6   6 7284.07 7916.43   6
 -10   6  -7 45083.6 12168.1   5
  10  -6   7 6557.54 9218.14  14
  10  -6   7 33418.4 9972.37   1
  10   6  -7 32733.0 10202.1   8
  10   6  -7 46758.9 17940.3  18
 -10   6  -7 60346.4 16453.4   4
  10  -6   7 15950.2 9797.91   6
 -10   6  -8 12958.9 5520.07   5
  10  -6   8 14212.2 6255.58  14
  10   6  -8 12561.8 5545.08   8
 -10   6  -8 17137.2 9292.16   4
  10   6  -8 21965.7 11756.4  18
  10  -6   8 16392.4 8384.63   1
  10  -6   8 6103.76 8085.46   6
 -10   6  -9 63029.2 15487.4   5
  10  -6   9 48611.9 13291.3  14
  10  -6   9 61233.5 13884.6   1
  10   6  -9 51150.9 10083.6   8
 -10   6  -9 57611.2 17315.2   4
  10   6  -9 48880.6 15493.1  18
  10  -6   9 37113.2 16885.7   6
 -10   6 -10-4553.67 3384.39   5
  10  -6  10 838.562 4152.20  14
  10   6 -10-3152.15 6260.55  11
 -10   6 -10 2862.25 5391.72   4
  10   6 -10-4025.69 4687.78  18
  10  -6  10-4825.86 6309.63   1
 -10   6 -11 17147.2 6370.62   5
  10  -6  11 10625.7 6369.03  14
  10   6 -11 16827.3 8597.76  11
 -10   6 -11 15616.4 7256.80   4
  10   6 -11 13518.2 7854.04  18
  10  -6  12 4964.91 4458.67  14
  10   6 -12 1725.42 6265.07  11
 -10   6 -12 2709.97 3213.33   4
   6  10 -12 9188.93 8016.91  18
  10   6 -12 3190.44 4237.69  18
  10  -6  13 1056.11 7838.93  14
  10   6 -13 1523.28 12054.0  11
 -10   6 -13 8300.28 5319.86   4
   6  10 -13 10773.9 6788.44  18
  10   6 -13 14649.4 8976.07  18
  10  -6  14-1048.78 1676.62  14
 -10   6 -14 7603.46 6667.70   4
  10   6 -14 285.625 7595.50  11
  -6  10 -14 13259.3 6656.36   4
   6  10 -14-6041.94 9512.71  18
   6 -10  14-123.928 10357.7   6
   6  10 -15 8793.24 12865.3  18
   6 -10  15-476.341 3150.21   6
   6  10 -16-222.269 12020.5  18
   6 -10  16 3120.85 9799.75   6
   6  10 -17 5763.53 5281.79  18
   6  10 -18 12193.5 9307.39  18
   6  10 -19-447.078 6552.49  11
   6  10 -19 1601.55 12782.3  18
   6  10 -20-1004.15 6510.82  11
   6  10 -20 11.6680 4031.67  18
   6  10 -21-2127.40 7302.89  18
   6  10 -21 5794.64 13258.5  11
   6  10 -22 247.601 6653.14  11
 -10  -6  24-569.864 2366.81   2
 -10  -6  25 4198.61 5759.06   2
 -10  -6  26 2501.16 3311.41   2
 -10  -6  27 6144.66 5517.93   2
  10  -6  27-106.233 3002.18  16
  10  -6  28-1847.18 3054.56  16
 -10  -6  28-2566.59 5266.50   2
  10  -6  29 255.936 3838.15  16
 -10  -6  29-3265.10 4477.86   2
  10  -6  30-394.540 3267.31  16
 -10  -6  30 5069.40 4181.29   2
  10  -6  31 5430.99 2496.74  16
 -10  -6  31-3538.08 5906.99   2
  10  -6  32 1726.55 3680.83  16
 -10  -6  32 5180.86 6315.08   2
 -10  -6  33 366.504 3032.67   2
  10  -6  33-4074.58 2640.02  16
  10  -6  34 8433.38 6358.36  16
  10  -6  35 1391.69 1578.31  16
  10   7  -3-1867.03 3070.67  18
  10   7  -4 12146.9 4373.34  18
  10   7  -5 26859.1 11965.6  18
  10   7  -6 14474.8 7091.47   8
 -10   7  -6 23626.0 10845.8   4
  10   7  -6 27248.1 12928.9  18
  10  -7   6 9673.78 7771.65   6
 -10   7  -7 49164.9 12313.2   5
  10  -7   7 11061.0 6346.22  14
  10  -7   7 4549.62 2561.92   1
  10   7  -7 34060.6 10087.1   8
 -10   7  -7 62959.1 16990.4   4
  10   7  -7 52345.1 16958.9  18
  10  -7   7 16058.6 10667.1   6
 -10   7  -8 39588.6 11176.2   5
  10  -7   8 13542.9 8342.59  14
  10   7  -8 18161.5 11092.2  18
  10   7  -8 27218.3 9031.36   8
  10  -7   8 14807.7 6317.83   1
 -10   7  -8 35386.4 12955.1   4
  10  -7   8 12501.4 7949.31   6
 -10   7  -9 19551.4 7803.27   5
  10  -7   9 20525.5 8333.27   1
  10   7  -9 22706.9 9480.65  18
  10  -7   9 5244.59 2245.10  14
 -10   7  -9 13835.0 7493.15   4
  10  -7   9 1152.68 2870.01   6
  10   7 -10 31224.3 12923.4  18
 -10   7 -10 24439.0 7699.08   5
  10  -7  10 14093.8 5796.79  14
 -10   7 -10 36916.4 13473.7   4
  10  -7  10 7934.61 9037.11   6
 -10   7 -11-1457.55 6353.18   5
  10  -7  11 13776.7 9869.23   6
  10  -7  11-448.099 5194.08  14
 -10   7 -11-11997.0 10451.3   4
  10   7 -11-2617.39 4058.88  18
  10  -7  12 1621.05 7258.25  14
  10   7 -12 7933.77 7165.18  11
  10   7 -12 9323.30 5029.34  18
 -10   7 -12 13337.2 8961.53   4
   7  10 -12 11392.0 7086.39  18
  10  -7  13 979.955 6282.32  14
  10   7 -13-948.176 8044.39  11
 -10   7 -13 6996.26 7343.55   4
   7  10 -13 1753.68 5086.01  18
  10   7 -13-589.823 2446.57  18
  10  -7  14 304.670 6605.67  14
  10   7 -14 795.857 8922.11  18
  10   7 -14 1453.58 9404.62  11
 -10   7 -14-2078.87 4846.81   4
   7  10 -14 21822.0 8943.71  18
  10  -7  15-27.1387 3213.65  14
  10   7 -15-417.770 4962.68  11
 -10   7 -15-4464.29 3977.24   4
   7  10 -15 2346.83 5389.89  18
  10  -7  16 756.183 5461.15  14
   7 -10  16 5711.24 4373.93   6
   7  10 -17 13581.1 7915.08  18
   7  10 -18 20676.9 13989.7  11
   7  10 -18 13303.8 10138.5  18
   7  10 -19-572.621 8829.49  11
   7  10 -19 2185.59 6621.12  18
   7  10 -20-4742.94 3302.26  11
   7  10 -20 674.345 6122.58  18
   7  10 -21 762.391 12068.1  11
   7  10 -22-177.951 4799.96  11
  10   8  -5 6948.08 6664.38  18
  10   8  -6 61310.1 19765.1  18
  10   8  -7 15520.5 10565.4  18
  10   8  -8 51507.9 17915.9  18
 -10   8  -9 17007.2 7013.74   5
 -10   8  -9 12758.7 7972.07   4
  10   8  -9 9973.47 6378.34  18
  10  -8   9-368.219 1973.60   6
 -10   8 -10 10577.1 5850.02   5
  10  -8  10 104.769 3081.00  14
 -10   8 -10 13574.5 8327.25   4
  10   8 -10 14211.9 10262.5  18
  10  -8  10 7415.46 10914.8   6
  10  -8  11 516.339 4461.28  14
 -10   8 -11 16340.0 10449.9   4
   8  10 -11 13555.3 12776.9  18
  10   8 -11 19091.6 11706.1  18
  10  -8  11-7648.64 11406.6   6
  10  -8  12-2146.20 4240.16  14
  10   8 -12-7125.31 5051.91  18
 -10   8 -12-6004.49 4654.78   4
   8  10 -12 2647.82 4643.79  18
  10  -8  12-2758.51 3079.93   6
  10  -8  13 471.244 3789.27  14
 -10   8 -13 5717.70 3263.32   4
   8  10 -13-956.534 7859.06  18
  10   8 -13 7327.02 7346.16  18
  10  -8  14-737.341 1429.37  14
  10   8 -14-1359.81 4295.05  11
 -10   8 -14 723.316 3381.64   4
  -8  10 -14 3846.91 5420.74   4
   8  10 -14 357.182 4750.81  18
  10   8 -14 273.426 1556.24  18
  10  -8  15-131.476 583.976  14
   8 -10  15-207.178 990.001  14
  10   8 -15 292.762 2287.54  11
 -10   8 -15 7524.23 5307.38   4
  -8  10 -15 1344.77 2914.65   4
   8  10 -15 9126.62 8254.89  18
   8 -10  15-6614.48 6482.77   6
  10   8 -15 792.806 5583.16  18
  10  -8  16 82.3374 3226.54  14
  10   8 -16 4017.37 9624.83  11
 -10   8 -16-1825.29 4612.41   4
   8  10 -16-1182.67 7487.57  18
  10   8 -16 969.365 5754.20  18
  10  -8  17-717.571 2181.30  14
  10   8 -17 1321.73 8460.02  11
   8  10 -17 12545.6 8267.39  18
   8  10 -18 110.064 11733.3  11
   8  10 -18-439.335 6992.06  18
   8  10 -19-1847.91 9399.43  11
   8  10 -19-2758.14 2966.53  18
   8  10 -20 2783.32 12316.6  11
   8  10 -20 888.909 9779.44  18
   8  10 -21 595.430 7551.45  11
  10   9  -8 1222.87 5642.78  18
  10   9  -9 12430.7 7708.71  18
  10   9 -10 11316.5 10779.8  18
 -10   9 -11 11425.1 11192.9   4
   9  10 -11 12295.8 13772.2  18
  10   9 -11-4852.65 3816.52  18
  10  -9  12 3069.41 7260.51  14
 -10   9 -12-4621.78 4382.99   4
   9  10 -12-9397.42 8554.37  18
  10   9 -12-3676.61 8185.73  18
  10  -9  12 6140.29 10975.2   6
  10  -9  13-595.656 4685.61  14
 -10   9 -13-4047.84 7920.69   4
  10   9 -13-771.379 6128.50  18
  10  -9  13-10386.3 10713.7   6
   9  10 -13-64.8596 8000.10  18
  10  -9  14-1388.45 6005.56  14
 -10   9 -14 13314.0 9628.42   4
  -9  10 -14 4207.10 6026.24   4
   9  10 -14 1269.34 8608.78  18
  10   9 -14 5556.41 5288.04  18
   9 -10  14-8295.55 5189.00   6
  10  -9  15 99.4294 1169.28  14
   9 -10  15-127.735 5682.74  14
  10   9 -15 3065.24 4905.91  11
 -10   9 -15-3656.88 6410.26   4
  -9  10 -15-5078.64 6955.45   4
   9  10 -15 2724.05 5775.95  18
  10   9 -15-3988.01 5626.22  18
   9 -10  15-2611.34 8900.33   6
  10  -9  16-16.7419 2192.43  14
   9 -10  16 39.2514 2973.79  14
  10   9 -16-191.357 10675.7  11
 -10   9 -16 3530.82 4805.49   4
   9  10 -16 937.819 3926.81  18
  10   9 -16-173.664 6754.24  18
  10  -9  17 10.6610 1262.82  14
   9  10 -17 1709.89 5703.46  11
  10   9 -17-58.4662 3210.99  11
   9  10 -17 6962.79 6450.03  18
  10   9 -17 133.303 3684.80  18
   9  10 -18-168.922 4945.73  11
  10   9 -18 1534.02 9271.52  11
   9  10 -18-1153.10 5945.05  18
   9  10 -19-1315.41 7321.57  11
  10   9 -19 667.761 10188.3  11
   9  10 -19 619.244 7219.96  18
   9  10 -20 877.106 9285.23  11
   9  10 -21-195.860 9138.77  11
  10  10 -11 11038.8 11123.6  18
  10  10 -12-11738.2 5631.97  18
  10  10 -13 14849.4 13980.4  18
 -10  10 -14 5695.86 4777.83   4
  10 -10  14 9648.83 10257.2   6
  10  10 -14-3448.76 7115.13  18
  10 -10  15 22.4696 7852.69  14
 -10  10 -15 7068.26 7750.76   4
  10  10 -15 4798.53 4101.10  18
  10 -10  16 45.6639 6039.26  14
  10  10 -16-4850.26 7709.99  11
  10  10 -16 18884.8 11887.2  18
  10  10 -17-886.430 7725.59  11
  10  10 -17 37.9037 5113.19  18
  10  10 -18-889.900 2198.02  18
  10  10 -18 159.781 6997.18  11
  10  10 -19-230.256 6798.65  11
  10  10 -19-492.641 1961.09  18
  10  10 -20-220.159 621.436  11
  11   0   0-3643.58 4299.91   1
 -11   0   0-107.378 3479.83   4
  11   0   0 661.742 2984.78   8
 -11   0   1 4221.75 3448.85   5
 -11   0  -1 2757.10 2522.13   4
  11   0  -1 2701.43 2664.81   1
  11   0   1 8620.87 5023.88   8
  11   0  -1 10697.1 4653.06   8
 -11   0   2 1915.16 2038.37   5
 -11   0   2-3210.09 4703.41   4
  11   0  -2-410.616 2690.96   1
  11   0   2 8191.92 6546.79   8
  11   0  -2-1080.86 2657.39   8
 -11   0   2 4415.64 3668.81   2
 -11   0   3 13643.9 7776.90   5
 -11   0   3 27918.5 8246.19   2
  11   0  -3 24967.6 8980.55  14
 -11   0   3 19191.0 8292.60   4
  11   0   3 38517.3 11353.0   8
  11   0  -3 41496.3 14194.0   1
 -11   0   4 1581.08 3420.74   5
  11   0  -4 2297.30 4029.79  14
 -11   0   4-6693.78 5392.79   2
 -11   0   4 1381.46 2964.96   4
  11   0   4-980.512 2143.15   8
  11   0  -4-7553.04 7854.57   1
  11   0  -5 93668.5 17446.3  14
 -11   0   5 110046. 21357.7   4
  11   0   5 119986. 18892.5   8
 -11   0   5 115989. 18465.5   2
 -11   0   5 87457.6 19466.9   5
  11   0  -5 172155. 30502.4   1
 -11   0   6-2116.69 4822.66   5
  11   0  -6-826.093 646.790   1
  11   0  -6 1617.52 341.963  14
 -11   0   6-3863.65 6319.07   2
  11   0   6 2252.22 2313.89   8
 -11   0   6-817.295 4356.59   4
  11   0   6 3444.73 3433.79  16
  11   0  -7 140650. 27894.6   1
  11   0  -7 79367.5 15201.0  14
 -11   0   7 82688.3 18878.5   4
  11   0   7 103957. 18535.9   8
  11   0  -7 133898. 14020.8   6
 -11   0   7 117096. 21276.3   2
  11   0   7 101222. 13242.7  16
 -11   0   7 89313.8 21107.6   5
  11   0   8-1309.12 3001.16  16
 -11   0   8 885.132 2130.67   5
  11   0  -8 3389.52 4264.14  14
  11   0  -8-7709.59 7817.15   1
 -11   0   8 553.474 998.374   2
  11   0   8-3779.27 2907.83   8
 -11   0   8-7056.63 6914.97   4
 -11   0   9 53359.6 15504.7   5
  11   0  -9 32687.8 10080.6  14
 -11   0   9 73291.7 17739.9   4
  11   0  -9 68581.5 20349.8   1
 -11   0   9 68841.8 17275.7   2
  11   0   9 74997.8 12059.9  16
  11   0  10-1023.89 3443.20  16
 -11   0  10 498.978 2861.22   5
  11   0 -10-6006.18 5104.53  14
  11   0  10-8950.23 6999.31   8
 -11   0  10-2514.53 3244.49   2
  11   0 -10-4585.86 5403.44   1
 -11   0  10 864.151 4563.68   4
  11   0  11 34284.9 9558.60  16
 -11   0  11 18085.4 7822.86   5
  11   0 -11 13124.3 5747.25  14
  11   0  11 24545.6 10790.2   8
 -11   0  11 12953.7 9413.91   2
 -11   0  11 27477.9 10080.5   4
  11   0 -11 13234.2 11644.0   1
  11   0  12-5265.54 5811.85  16
 -11   0  12-3171.44 6581.05   5
  11   0 -12-3055.10 2405.48  14
  11   0  12-1565.03 1454.32   8
 -11   0  12-1874.99 3638.99   2
 -11   0  12 1383.19 1957.92   4
  11   0 -12 10714.2 7816.48   1
  11   0  13 815.925 3564.55  16
 -11   0  13-1224.46 3783.24   5
  11   0 -13-885.765 3013.95  14
  11   0  13-452.995 3515.26   8
 -11   0  13 4172.44 6476.28   2
 -11   0  13-390.816 3184.41   4
  11   0 -13 2510.18 5443.01   1
  11   0 -14 1632.44 4560.69   1
  11   0  14 3231.09 2435.29  16
 -11   0  14-4722.62 4266.08   5
  11   0 -14 1532.41 4520.18  14
  11   0  14 5599.66 6484.43   8
 -11   0  14 4695.51 4948.11   2
 -11   0  14-2342.42 4074.65   4
  11   0 -15 3961.06 3381.63   1
  11   0  15 3115.41 4312.34  16
 -11   0  15 2327.09 2138.20   5
  11   0 -15 2681.95 4366.14  14
  11   0  15 2761.33 5478.65   8
 -11   0  15-2699.08 3393.88   2
  11   0  16-4566.50 7393.26  16
  11   0 -16 10882.0 9064.71   1
 -11   0  16 208.820 2982.96   5
  11   0 -16-193.048 6279.69  14
  11   0  16 985.835 2202.42   8
 -11   0  16-2354.10 1228.98   2
 -11   0  16-7141.08 7289.94   4
   0  11 -16-4023.08 5540.81  18
   0 -11  16 7261.53 10442.1   6
  11   0  17 8632.94 8636.82  16
  11   0  17 10300.4 4829.77   8
   0  11 -17 20539.7 10014.3  18
  11   0  18-2711.46 4376.05  16
  11   0  18-3275.61 5216.83   8
   0  11 -18-8589.12 3552.39  18
   0 -11  18-109.155 2064.02   6
  11   0  19 17662.2 16111.2  16
   0  11 -19 73884.8 20919.1  18
  11   0  19 62575.8 16250.2   8
  11   0  20-3750.08 8478.63  16
  11   0  20 4249.78 4076.07   8
   0  11 -20 18.9556 6144.76  18
   0  11 -21 110968. 22247.7  11
   0  11 -21 71725.5 16814.6  18
  11   0  21 68724.1 16990.7   8
   0  11 -22 9658.03 8329.00  11
   0  11 -22 3896.05 3823.15  18
   0  11 -23 17498.1 12222.8  11
   0  11 -24 8219.17 7520.96  11
 -11   1   0 3978.75 6993.95   5
  11  -1   0-1709.35 1258.54  14
 -11   1   0-2345.93 1635.95   4
  11   1   0 3032.32 3299.81   8
  11  -1   0 3615.52 5550.43   1
 -11   1   0 3372.84 2933.72   2
 -11   1  -1 7295.64 5446.39   5
 -11   1   1 321.380 1856.34   5
  11  -1  -1 1587.05 5453.44   1
  11  -1   1 1480.09 4257.84  14
 -11   1   1 967.256 1605.37   2
  11  -1  -1 1143.43 1040.54  14
 -11   1  -1 1176.80 3563.63   4
  11  -1   1-1964.51 3532.09   1
 -11   1   1 1146.58 2229.03   4
  11   1   1 294.360 2673.18   8
  11   1  -1 4758.85 4722.90   8
  11  -1   1 3298.51 4081.03   8
 -11   1  -2 1829.99 3254.07   5
  11  -1  -2 3221.48 4759.78   1
 -11   1   2 9541.10 7321.49   5
  11  -1  -2 5059.76 4581.53  14
  11  -1   2 3000.53 3971.89   1
 -11   1   2 7845.33 4234.67   2
 -11  -1   2-804.499 2620.61   4
 -11   1  -2-1300.93 3995.28   4
  11   1   2 2651.96 889.160   8
 -11   1   2 4928.63 2752.79   4
  11   1  -2 8070.59 4794.02   8
  11  -1   2 8138.86 4120.14   8
  11  -1   3 690.101 624.851   1
 -11   1   3-3668.68 3905.12   5
  11  -1  -3 1576.37 3947.00  14
  11   1  -3 3957.82 2392.04   1
  11  -1  -3-1622.47 1556.47   1
 -11  -1   3-1573.47 2169.27   4
 -11   1  -3-886.033 1977.25   4
 -11   1   3-945.659 1048.24   2
  11   1   3-780.067 2828.93   8
  11  -1  -3-2049.56 2935.97   6
 -11   1   3-2790.71 4517.38   4
  11  -1   3 1991.95 1818.34   8
  11   1  -3 192.028 1851.18   8
  11   1   3-860.648 2459.57  18
 -11  -1   4 20112.4 7769.90   5
 -11   1   4 40428.7 13309.2   5
  11  -1  -4 43632.8 12749.4  14
  11   1   4 58242.0 7732.96  11
  11   1  -4 44551.8 13030.3   1
 -11   1  -4 15242.5 7437.21   4
  11   1  -4 64532.0 13587.6   8
 -11  -1   4 20617.2 7580.99   4
  11  -1  -4 71495.2 18680.5   1
  11   1   4 50277.4 13063.6   8
 -11   1   4 45256.3 14021.6   4
  11  -1   4 52446.8 11541.1   8
  11   1   4 38538.8 8237.73  18
 -11   1   4 60980.9 13487.1   2
  11  -1  -4 60164.1 11132.6   6
  11   1   4 42579.0 7141.28  16
 -11  -1   4 22469.3 6319.41   2
 -11  -1   5 881.196 2614.44   5
 -11  -1   5-671.913 4352.64   2
 -11   1   5-1025.26 4531.76   5
  11  -1  -5-2972.70 3767.46  14
  11   1   5 2352.46 1560.61  11
 -11  -1   5 7726.14 5755.13   4
  11   1  -5 7067.39 6339.12   1
  11   1   5 896.358 2943.75   8
 -11   1   5 1304.07 591.462   2
  11  -1   5-2928.43 3545.74   8
  11  -1  -5 3757.34 6386.49   1
 -11   1   5 1637.31 4343.34   4
  11   1   5 295.304 1099.74  18
  11  -1  -5 109.011 937.363   6
  11   1   5 860.326 1494.62  16
  11  -1  -6 119039. 24741.2   1
 -11  -1   6 61737.4 13848.6   5
  11  -1  -6 84065.6 16329.0  14
 -11   1   6 129910. 22231.3   4
  11   1   6 122979. 23134.2   8
  11  -1   6 110191. 17003.2   8
 -11  -1   6 59062.2 13970.9   4
  11   1   6 102947. 13580.9  18
 -11  -1   6 67325.3 13736.3   2
  11  -1  -6 112717. 13725.0   6
 -11   1   6 106260. 17695.1   2
  11   1   6 122610. 13848.0  16
  11   1  -6 122952. 23361.9   1
 -11   1   6 96572.3 19108.2   5
  11   1   7-2038.75 2746.55  16
 -11  -1   7-3480.10 4160.17   5
 -11   1   7-15878.8 7357.01   5
  11  -1  -7-4236.51 4778.43  14
 -11  -1   7 413.016 811.348   2
  11   1   7-2265.37 3340.63   8
 -11  -1   7-2016.68 4567.54   4
  11  -1   7-2150.97 1888.23   8
 -11   1   7 878.112 1223.37   2
 -11   1   7-3862.16 4908.08   4
  11   1  -7-4587.62 5539.94   1
  11   1   7-2791.43 2028.14  18
  11  -1  -7-1619.11 1297.08   6
  11  -1  -7-19.7425 2387.05   1
 -11   1   8 61817.8 14855.0   5
  11  -1  -8 49597.9 14522.6   1
 -11  -1   8 43614.1 12230.9   5
  11  -1  -8 38207.0 10871.9  14
 -11  -1   8 60009.1 14522.4   2
 -11   1   8 89618.1 18153.3   4
  11   1   8 82792.1 19753.7   8
 -11  -1   8 60353.0 14869.2   4
  11   1   8 87802.5 13449.4  18
  11  -1  -8 44996.9 8203.15   6
 -11   1   8 63292.4 13710.8   2
  11   1   8 95297.0 15360.7  16
  11   1  -8 89923.3 22270.9   1
  11   1   9-5497.69 5047.27  16
 -11  -1   9-1757.29 3763.42   5
  11   1  -9-236.085 1613.80  14
  11  -1  -9-4204.15 4741.93   1
 -11   1   9 2382.58 4691.76   5
  11  -1  -9-205.668 3285.53  14
 -11  -1   9 4193.92 4195.61   2
  11   1   9 2963.70 1951.22   8
 -11  -1   9-318.626 4016.49   4
 -11   1   9-489.161 2164.82   2
 -11   1   9-140.936 1973.52   4
  11   1  -9-4683.14 6617.70   1
  11   1 -10 23689.1 14687.5   1
  11   1  10 19123.6 6290.40  16
 -11  -1  10 24952.8 11794.8   5
  11   1 -10 11202.4 5242.43  14
 -11   1  10 19852.7 7785.02   5
  11  -1 -10 12802.6 6541.04  14
  11  -1 -10 11451.2 7743.37   1
 -11  -1  10 22561.9 8334.94   2
  11   1  10 27680.1 11338.7   8
  11  -1  10 26944.0 8862.84   8
 -11  -1  10 21781.0 8777.25   4
 -11   1  10 18519.4 6429.84   2
 -11   1  10 31016.1 10489.1   4
  11  -1  10 26345.6 7125.33  16
  11  -1  11 2119.97 1930.72  16
  11   1  11 2783.30 4038.63  16
 -11  -1  11-8496.33 7364.03   5
  11   1 -11-1443.10 2042.87  14
  11   1 -11-394.396 1390.87   1
 -11   1  11 26.6489 3134.43   5
  11  -1 -11 3484.56 3975.78  14
  11  -1 -11 6390.28 7277.96   1
 -11  -1  11 151.444 1960.50   2
  11   1  11 486.043 2694.98   8
  11  -1  11 96.5836 1953.86   8
 -11  -1  11-5052.77 5360.92   4
 -11   1  11-3244.30 5543.09   2
 -11   1  11-531.450 1215.23   4
  11  -1  12-2916.27 942.309  16
  11   1  12 2591.10 4061.62  16
 -11  -1  12-33.4166 3559.04   5
  11   1 -12 1768.91 2123.04  14
 -11   1  12 3233.80 5204.95   5
  11   1 -12 1570.57 4424.26   1
  11  -1 -12 214.731 2215.77  14
 -11  -1  12 664.752 3846.45   2
  11   1  12 5791.14 7289.25   8
  11  -1 -12 2497.99 3767.67   1
  11  -1  12 1173.12 2332.36   8
 -11  -1  12-2855.80 6334.50   4
 -11   1  12-4673.81 5410.58   2
 -11   1  12 3363.44 1535.43   4
  11  -1  13 2383.73 3449.58  16
  11   1  13 865.296 1447.35  16
 -11  -1  13-2495.16 5469.69   5
  11   1 -13 1537.46 574.275  14
 -11   1  13 3718.51 4529.70   5
  11  -1 -13 3429.04 2059.42  14
  11   1 -13 7276.81 8534.20   1
  11   1  13-4627.36 5534.25   8
 -11  -1  13 7894.92 6252.40   2
  11  -1  13 3121.67 3404.38   8
  11  -1 -13 5643.67 7986.83   1
 -11  -1  13-3570.82 4945.44   4
 -11   1  13 1403.59 3507.19   2
  11  -1  14-1510.41 4108.18  16
  11   1  14-725.847 2518.70  16
 -11  -1  14 12519.9 7308.56   5
  11   1 -14-3817.73 4252.76  14
  11   1 -14-5562.91 9391.52   1
  11   1  14-2724.49 6429.94   8
 -11  -1  14 1433.89 4067.55   2
  11  -1  14-3109.67 2933.30   8
 -11  -1  14 4130.22 1377.48   4
  11  -1  15-1706.55 2123.85  16
  11   1  15 5827.11 4581.69  16
 -11  -1  15-3628.42 4056.72   5
  11   1 -15 2630.19 1806.06  14
  11   1  15-1775.48 3968.08   8
  11   1 -15-8905.74 8099.16   1
 -11  -1  15-1114.21 4690.11   2
  11  -1  15-351.245 594.956   8
 -11  -1  15 640.903 3337.52   4
  11  -1  16 6363.53 6206.86  16
  11   1  16 445.023 2433.00  16
 -11  -1  16 4597.52 4861.29   5
  11   1 -16-1191.23 3019.34  14
  11   1  16 94.0177 2495.37   8
   1  11 -16 1156.93 3484.49  18
  11  -1  16 8965.49 6197.83   8
  11   1 -16-907.856 8167.57   1
 -11  -1  16-384.031 4599.16   2
 -11  -1  16 12812.5 7984.54   4
  -1  11 -16 2050.13 3249.71  18
  -1 -11  16 5766.94 9414.39   6
   1 -11  16 17846.3 12116.5   6
  11  -1  17 1407.56 2610.38  16
  11   1  17-2455.74 3463.58  16
 -11  -1  17 4446.36 4395.34   5
  11   1 -17 5272.98 3572.28  14
  -1  11 -17-2349.44 3028.32  18
  11   1  17-2382.43 1424.82   8
  11  -1  17 2996.68 6511.88   8
 -11  -1  17-742.422 3955.13   2
  11   1 -17 35601.0 24918.8   1
 -11  -1  17-450.461 3143.46   4
   1  11 -17-538.156 5091.05  18
  -1 -11  17 44565.7 28338.4   6
  11  -1  18 12914.7 11481.5  16
 -11  -1  18 11120.1 9573.33   5
   1  11 -18 33948.4 19373.1  18
  11  -1  18 28644.5 12920.4   8
 -11  -1  18 8057.29 9053.32   2
  11   1 -18-1421.54 5219.32   1
   1 -11  18 683.064 4147.10   6
 -11  -1  18 24123.5 8553.65   4
  -1  11 -18 34670.1 14187.4  18
  11  -1  19 1318.21 2661.14  16
 -11  -1  19 1777.34 3035.25   5
  11  -1  19 1602.43 4130.48   8
 -11  -1  19-2615.15 5523.14   2
  11   1 -19 116.608 6522.01   1
  -1  11 -19-6381.92 6398.55  18
   1  11 -19-13033.8 7540.26  18
  11  -1  20 24509.3 15996.9  16
 -11  -1  20 36724.6 14084.1   5
  11  -1  20 41098.7 14261.7   8
 -11  -1  20 23566.1 14843.8   2
  11   1 -20 2695.17 10828.1   1
  -1  11 -20 58196.0 16841.6  18
   1  11 -20 57621.9 17058.5  18
  11  -1  21-3088.07 3563.43  16
  -1  11 -21-5050.58 7804.07  11
  11  -1  21 5406.16 5958.33   8
   1  11 -21 3538.37 9558.41  18
  11  -1  22 13702.5 13149.6  16
   1  11 -22 18440.8 13878.3  11
  -1  11 -22 10761.6 11949.9  11
  11  -1  22 23427.1 11374.6   8
   1  11 -22 20493.7 12373.4  18
  11  -1  23-1636.49 8517.16  16
   1  11 -23 5120.19 6935.38  11
  -1  11 -23-1723.53 4486.22  11
  11  -1  23 5409.98 3905.56   8
  11  -1  24 3529.84 9070.83  16
   1  11 -24 3060.65 5250.75  11
  -1  11 -24-1372.07 5735.11  11
  11  -1  24 16987.0 9856.31   8
 -11   2   0-44.7782 5559.11   5
  11  -2   0 3283.22 4792.11  14
  11  -2   0-1670.65 6429.88   1
  11   2   0-338.738 2245.04  11
 -11   2   0 1056.13 2314.66   2
  11   2   0-653.246 2718.59  18
  11   2   0-2420.90 1213.41   8
 -11   2   0-4378.40 7725.18   4
  11  -2   0 2817.22 4583.15   6
  11  -2   1 7842.23 6143.90   1
 -11   2  -1 5518.58 5718.22   5
 -11   2   1 4731.41 6702.79   5
  11  -2   1 6448.60 5277.37  14
 -11   2  -1 4048.07 2422.48   2
  11  -2  -1 4455.26 2064.80  14
  11   2   1 6085.04 3346.72  11
  11   2  -1 4578.68 2363.11  11
  11   2   1 5284.12 5939.66   8
  11  -2  -1 4860.09 4649.94   1
 -11   2   1 6186.96 3381.04   2
  11   2  -1 3901.99 5308.23   8
 -11   2  -1 1176.66 2811.58   4
 -11   2   1 9452.48 9478.56   4
  11   2   1 2519.27 1680.94  18
  11   2  -1 5332.90 3330.75  18
  11  -2  -1 991.402 1923.74   6
 -11   2  -2-559.791 1650.25   5
 -11   2   2 2901.53 3507.82   5
  11  -2   2 1031.82 778.468  14
  11  -2  -2-1179.00 1270.30  14
  11   2   2-447.645 1846.93   8
 -11   2  -2 2836.07 5488.68   4
  11   2  -2-236.861 3316.64   8
 -11   2   2 2160.29 3631.74   2
 -11   2   2 3376.46 4061.22   4
  11  -2  -2 1066.87 3153.36   1
  11  -2   2 1368.18 2634.59   1
  11   2   2 2671.43 4495.47  18
  11  -2  -2 1549.70 2242.62   6
  11   2   2-355.315 405.229  16
 -11   2  -2 31.3999 1912.71   2
  11   2   3 2788.55 1674.90  16
 -11   2  -3 4614.88 3273.48   5
  11  -2   3 673.818 2754.88  14
 -11   2   3-5879.58 6241.37   5
  11  -2  -3 3323.06 4354.63  14
  11  -2   3 3344.60 2644.70   8
  11   2   3-826.650 2438.18   8
 -11   2  -3 6574.26 6022.16   4
  11  -2   3 6215.85 6292.81   1
  11   2  -3 4172.02 3290.64   8
 -11   2   3 1433.34 1257.53   2
 -11   2   3 5587.97 5043.35   4
  11   2   3 1414.13 3133.17  18
  11  -2  -3 11043.9 6276.20   6
  11  -2  -3 771.630 4091.89   1
 -11   2  -4 5108.95 4906.44   5
  11   2   4 2475.87 1938.18  16
  11  -2  -4 7629.95 7166.44   1
  11  -2   4 1098.99 286.851  14
 -11   2   4 4549.98 1608.94   5
  11  -2  -4 1697.37 2996.90  14
  11  -2   4 7353.33 5330.70   1
 -11   2  -4 7517.65 7331.95   4
  11   2   4-344.825 2916.64   8
  11   2  -4 4375.09 3519.06   8
 -11   2   4 4624.85 4533.35   4
 -11   2   4-491.694 1280.70   2
  11  -2   4 1278.62 1051.04   8
  11   2   4 4838.28 4413.49  18
  11  -2  -4 3800.24 3899.37   6
  11  -2   5 48734.0 12586.3   1
  11   2   5 35639.8 7160.08  16
 -11   2   5 43482.6 13006.5   5
  11  -2  -5 24188.3 8536.73  14
  11  -2  -5 34776.4 12609.9   1
 -11   2   5 37444.3 8365.59   2
 -11   2   5 56816.4 14770.2   4
  11   2  -5 53984.2 12343.7   8
 -11   2  -5 18574.7 8160.76   4
  11   2   5 36887.5 12170.5   8
  11  -2   5 44709.7 10687.1   8
  11   2   5 44294.3 10717.4  18
  11  -2  -5 25327.3 7428.07   6
  11   2   6 560.210 217.065  16
  11   2  -6 3615.52 7283.93   1
 -11   2   6 1486.68 3165.04   5
  11  -2  -6 36.4431 837.450  14
 -11   2  -6 2146.48 2490.92   4
  11   2   6-3696.25 5093.41   8
  11  -2  -6-6443.58 6576.43   1
  11  -2   6 1169.30 2741.53   8
 -11   2   6 71.4764 2044.19   2
 -11   2   6 1658.74 2200.58   4
  11   2   6-520.177 2119.10  18
 -11  -2   6 781.647 1902.63   2
  11  -2  -6-965.926 2844.11   6
  11   2   7 27785.7 6503.63  16
 -11   2   7 46721.6 12947.9   5
  11  -2  -7 29996.6 9151.94  14
  11   2  -7 48963.5 15053.0   1
 -11  -2   7 15481.8 7246.91   4
  11  -2   7 49725.4 14995.5   8
  11   2   7 39342.7 13667.0   8
  11  -2  -7 23334.1 9208.53   1
  11   2   7 29675.8 8245.58  18
 -11   2   7 48364.9 13468.8   4
 -11   2   7 34751.8 9239.88   2
 -11  -2   7 21325.7 7543.56   2
 -11  -2   8-3316.35 3547.85   5
 -11  -2   8 5292.87 4722.28   2
  11   2   8 926.816 1314.29  16
 -11   2   8 3938.99 3616.26   5
  11  -2  -8-651.617 2974.52  14
  11   2  -8 1088.25 939.690   1
 -11  -2   8 2125.70 2783.70   4
  11   2   8 8213.43 5527.20   8
  11   2   8 94.4284 480.064  18
  11  -2  -8 6809.22 6048.81   1
 -11   2   8 3948.28 2409.38   4
 -11   2   8 849.501 2356.62   2
 -11  -2   9 6946.57 4270.27   5
 -11  -2   9 17662.5 7360.53   2
  11   2   9 9583.35 4286.62  16
 -11   2   9 16554.3 7146.69   5
  11  -2  -9 5758.19 3740.04  14
 -11  -2   9 2792.55 2301.72   4
  11   2   9 13909.0 4370.96   8
  11   2  -9 18310.5 9691.74   1
  11  -2   9 27665.6 11865.8   8
  11   2   9 4371.91 1076.87  18
 -11   2   9 20174.2 8604.91   4
  11  -2  -9 8519.13 7934.39   1
 -11  -2  10 961.085 1699.08   5
 -11  -2  10-4889.91 4546.04   2
  11   2  10-53.6318 4390.64   8
 -11  -2  10-1066.25 981.218   4
  11   2 -10 2209.31 5390.50   1
  11  -2  10 1558.86 3397.25   8
 -11  -2  11 612.533 2208.17   5
 -11  -2  11 1231.82 1374.21   2
  11   2  11-1534.44 3934.78   8
 -11  -2  11-1731.20 1449.48   4
  11  -2  11 4760.76 4262.68   8
  11   2 -11 748.270 3347.06   1
  11  -2  11 3834.71 3752.96  16
 -11  -2  12-409.380 1456.33   5
 -11  -2  12-4492.99 4446.40   2
  11   2  12 944.452 1348.86   8
 -11  -2  12 1467.01 1105.54   4
  11  -2  12 776.968 761.287   8
  11   2 -12-1505.39 3780.96   1
  11  -2  12 3058.77 3856.50  16
 -11  -2  13-1777.95 994.571   5
 -11  -2  13-1132.00 2502.02   2
  11   2  13-3957.27 5536.53   8
 -11  -2  13 750.202 2406.92   4
  11  -2  13-2518.77 4156.64   8
  11   2 -13 3674.09 6087.00   1
  11  -2  13 2366.08 1317.07  16
 -11  -2  14-560.504 4778.00   5
 -11  -2  14 1645.83 3500.97   2
 -11  -2  14-1471.34 1998.87   4
  11  -2  14 4829.29 4265.47   8
  11   2 -14 2010.10 5221.86   1
  11  -2  14 3299.76 2614.77  16
  11  -2  15-644.634 5259.09  16
 -11  -2  15-29.8964 3419.11   5
 -11  -2  15 4096.55 4275.12   2
 -11  -2  15 6151.91 4726.73   4
  11  -2  15 1897.67 2861.00   8
  11   2 -15 6417.74 9885.25   1
  11  -2  16 69.9129 4639.37  16
 -11  -2  16-6697.38 6158.13   5
 -11  -2  16 1472.14 1595.58   2
 -11  -2  16 1586.68 1314.92   4
  11  -2  16-2316.63 5070.91   8
  -2  11 -16 806.619 9485.68  18
   2  11 -16 2591.62 1120.38  18
  -2 -11  16 2908.59 8562.47   6
   2 -11  16 16016.5 19732.0   6
  11   2 -16-1639.59 8326.55   1
  11   2 -17-3812.60 1598.82   1
  11  -2  17 803.393 3130.38  16
 -11  -2  17 3808.27 3860.59   5
 -11  -2  17-1665.57 3771.87   2
  11  -2  17 8218.35 5511.57   8
 -11  -2  17 3300.95 3589.34   4
   2  11 -17 1580.32 3942.88  18
  -2  11 -17-2770.15 7652.52  18
  -2 -11  17-2311.01 9453.83   6
   2 -11  17 6499.85 16462.2   6
  11  -2  18-2764.76 5993.95  16
  11   2 -18-1697.74 8577.34   1
 -11  -2  18-2202.00 267.182   5
 -11  -2  18-3837.44 6358.02   2
  11  -2  18 266.913 2498.69   8
   2 -11  18-1930.71 8583.40   6
  -2  11 -18-11237.9 9357.83  18
   2  11 -18-3014.69 7044.59  18
  11  -2  19 6038.64 8380.04  16
  11   2 -19-1636.06 3751.40   1
 -11  -2  19 4072.85 2893.90   5
 -11  -2  19 5795.98 8205.30   2
  11  -2  19 13894.5 7056.55   8
   2  11 -19 24970.9 12104.8  18
  11  -2  20 2169.34 2032.70  16
  11   2 -20-2316.34 10147.7   1
 -11  -2  20-3823.96 3292.56   5
 -11  -2  20-4051.91 6529.19   2
  11  -2  20 229.961 2968.64   8
   2  11 -20-187.104 3515.05  18
  11  -2  21-1507.67 2130.29  16
  11   2 -21-1692.10 10449.1   1
 -11  -2  21 8702.13 8255.50   5
  -2  11 -21 19140.1 9049.31  11
   2  11 -21 39188.1 14091.3  11
 -11  -2  21 3366.31 8954.96   2
  11  -2  21 23432.7 8252.11   8
   2  11 -21 2879.12 7390.81  18
  11  -2  22-2567.72 5320.17  16
  11   2 -22 3790.06 12877.7   1
 -11  -2  22 1170.62 6067.89   5
   2  11 -22 1675.62 3565.65  18
   2  11 -22-20000.8 10440.3  11
  -2  11 -22-5729.40 9153.40  11
 -11  -2  22-1447.47 6323.15   2
  11  -2  22 3696.33 2532.49   8
  11  -2  23 3234.17 7724.29  16
  11   2 -23 10447.6 21832.8   1
 -11  -2  23 1100.44 3950.12   5
   2  11 -23 3911.94 3605.36  11
  -2  11 -23 5628.00 8358.75  11
 -11  -2  23 246.789 5118.45   2
  11  -2  23-5564.44 6803.80   8
  11  -2  24-336.343 3524.95  16
   2  11 -24-2054.80 3226.21  11
  11  -2  24-1616.72 1618.42   8
  11  -2  25-755.214 5330.97  16
  11  -2  25 1755.31 2118.21   8
  11  -2  26-910.062 3169.32  16
  11  -2  26 5629.64 5498.25   8
  11   3   0 58099.3 14338.6  18
 -11   3   0 46042.8 12794.3   5
  11  -3   0 45616.0 12892.0  14
  11   3   0 60137.6 15243.5   8
 -11   3   0 69064.3 17887.2   4
 -11   3   0 41915.3 7303.25   2
  11  -3   0 60669.2 13609.0   6
  11  -3   0 49609.2 15062.4   1
 -11   3  -1 184.643 4599.00   5
  11  -3  -1 4246.42 5003.70   1
 -11   3   1 2297.58 2281.20   5
  11  -3   1 2772.98 1343.05  14
  11  -3  -1 1291.11 2334.90  14
  11   3   1-7136.49 9208.08   8
  11   3  -1-2713.67 4879.98   8
 -11   3  -1 4767.88 2121.58   2
 -11   3  -1-2164.59 6068.17   4
  11  -3   1 7348.43 7216.14   1
 -11   3   1 2.06886 2761.22   4
 -11   3   1 1777.83 1908.35   2
  11   3   1-24.5681 4615.22  18
  11   3  -1 5979.02 5137.77  18
  11  -3   1 3884.36 3936.75   6
  11  -3  -1 1471.38 2782.58   6
 -11   3  -2 16706.4 9216.03   5
  11  -3   2 13123.0 7225.62  14
 -11   3   2 16837.2 8507.32   5
  11  -3  -2 15128.4 7726.09  14
  11   3  -2 13900.4 6236.55  11
  11   3   2 11763.6 2927.43  18
  11  -3  -2 10465.8 7177.98   1
  11  -3   2 16331.3 8390.70   1
  11   3   2 13008.2 7179.82   8
 -11   3   2 18299.0 8690.93   4
  11   3  -2 14744.5 6037.20   8
 -11   3  -2 17052.1 8960.05   4
 -11   3   2 12506.7 4504.26   2
  11   3  -2 9781.22 5003.91  18
  11  -3  -2 11026.8 5425.51   6
  11  -3   2 23208.0 9235.74   6
 -11   3  -3 7789.27 6743.52   5
  11  -3   3 5372.86 108.353   1
  11  -3   3 8201.56 6186.19  14
 -11   3   3 6515.03 4548.34   5
  11  -3  -3 7200.21 5441.85  14
  11   3  -3-919.438 1524.65  11
  11   3   3 3842.66 5312.62   8
  11   3  -3 5403.69 2526.24   8
 -11   3  -3 5913.07 6156.93   4
  11  -3  -3-3121.54 5239.54   1
 -11   3   3 4276.07 4018.49   4
  11   3   3 7976.90 6438.27  18
  11   3  -3 3111.16 4261.06  18
 -11   3   3 3255.08 2302.37   2
  11  -3  -3 2111.90 914.865   6
  11   3  -4 3354.67 3203.00  18
 -11   3  -4 1313.79 1360.94   5
  11  -3   4 5053.24 1506.07  14
 -11   3   4 3455.68 3481.06   5
  11  -3  -4 3141.60 3511.61  14
  11   3  -4 3191.97 2497.15  11
  11   3   4-3869.78 5250.24   8
  11  -3   4 19363.5 9465.78   1
 -11   3  -4 3221.93 7061.60   4
  11   3  -4 2630.83 3805.23   8
  11   3   4 6478.16 4565.87  18
 -11   3   4 197.058 3166.41   4
 -11   3   4 2333.84 1722.13   2
  11  -3  -4 4025.88 4184.45   1
  11  -3  -4-224.733 1739.55   6
 -11   3  -5 3453.03 4383.05   5
  11  -3  -5 5673.06 5527.77   1
  11  -3   5 3368.41 2494.47  14
 -11   3   5 11034.0 5498.29   5
  11  -3  -5 3728.40 3700.24  14
  11   3  -5 7519.76 4769.18  11
  11   3   5 4620.49 4157.56   8
 -11   3  -5 7470.01 5633.54   4
  11  -3   5 10705.3 6672.32   1
  11   3  -5 10392.2 6671.27   8
  11   3   5 7928.19 5499.11  18
 -11   3   5 12666.3 6446.83   4
  11   3  -5 8626.42 4939.59  18
 -11   3  -6 9220.05 6915.27   5
  11   3   6 5402.03 2878.54  18
  11  -3   6 17369.1 8795.07  14
 -11   3   6 13832.5 7040.65   5
  11  -3  -6 11391.0 6499.63  14
  11  -3  -6 4911.87 4599.96   1
  11  -3   6 15284.6 10002.6   1
  11   3   6 14443.3 9761.89   8
 -11   3  -6 10076.2 7476.21   4
  11   3  -6 15148.2 7017.73   8
  11  -3   6 31007.8 11368.9   8
  11  -3   7 26251.5 8320.05  14
  11   3   7 452.315 3531.90   8
 -11   3  -7 17741.9 11137.5   4
  11   3   7 4571.14 4077.65  18
  11   3  -7 10672.3 5486.28   8
  11  -3   7 17899.1 21691.2   1
 -11   3  -8 2433.38 7076.08   4
  11  -3   8 8346.77 7780.48   8
  11  -3   9-1131.08 2554.45   8
 -11  -3   9-3291.15 4539.88   2
  11   3 -10 2325.54 3540.13   1
  11  -3  10 3128.46 3307.36   8
 -11  -3  10-1719.14 3867.82   2
 -11  -3  11 1318.95 2555.06   2
  11   3 -11 6045.48 6349.11   1
  11  -3  11-4927.67 4596.55   8
 -11  -3  12 7047.69 6720.78   2
  11   3 -12 3218.27 4488.61   1
  11  -3  12 16701.8 5128.81   8
 -11  -3  13 6775.20 5899.42   2
  11   3 -13 3290.42 5723.06   1
  11  -3  13-1300.61 839.742   8
 -11  -3  14 4813.32 5172.82   2
 -11  -3  14 1496.88 3768.23   4
  11   3 -14 940.046 5468.11   1
  11  -3  14 9237.95 5400.63   8
  11  -3  14 521.877 3028.65  16
 -11  -3  15 831.689 2734.41   5
 -11  -3  15-332.398 598.023   2
 -11  -3  15 2078.44 2355.47   4
  11   3 -15-592.134 5541.39   1
  11  -3  15 782.772 3333.29   8
   3  11 -15 2573.40 7259.49  18
  11  -3  15 957.967 3214.80  16
 -11  -3  16 253.207 3261.83   5
 -11  -3  16-3808.89 5653.05   2
 -11  -3  16 1807.98 3135.06   4
  11   3 -16 1404.56 6127.04   1
  11  -3  16 1657.04 2041.13   8
   3  11 -16 4034.81 5602.61  18
  -3 -11  16 2104.13 2909.04   6
   3 -11  16 20201.9 21507.2   6
  11  -3  16 4570.04 7169.44  16
 -11  -3  17 4223.46 4396.66   5
 -11  -3  17 1017.93 794.021   2
  11   3 -17-1766.31 1457.37   1
  11  -3  17 1048.65 3966.22   8
   3  11 -17-3669.36 8774.00  18
   3 -11  17-552.321 9017.04   6
  11  -3  17 866.176 4003.99  16
 -11  -3  18-1727.09 5035.74   5
 -11  -3  18 1093.85 2758.99   2
  11   3 -18 1551.70 3244.91   1
  11  -3  18-51.5472 3742.76   8
   3  11 -18 9553.71 9070.50  18
   3 -11  18 4271.98 11423.8   6
  11  -3  18-2341.30 4382.84  16
 -11  -3  19 2547.96 5244.04   5
 -11  -3  19-997.687 3212.57   2
  11   3 -19 961.307 6629.74   1
  11  -3  19-3562.33 3988.45   8
   3  11 -19-51.8267 5431.53  18
  11  -3  19 3320.46 4875.84  16
  11  -3  20 1887.09 7311.85  16
 -11  -3  20 539.431 2654.78   5
 -11  -3  20 6068.16 6997.42   2
  11  -3  20 2408.21 6148.86   8
  11   3 -20 1253.25 2552.58   1
   3  11 -20 7294.56 2963.07  18
  11  -3  21 1376.89 3066.45  16
 -11  -3  21 2368.25 5387.60   2
   3  11 -21-3410.67 7740.62  11
  -3  11 -21 7409.95 8289.95  11
  11  -3  21-1405.18 4285.74   8
   3  11 -21 11477.4 9471.91  18
  11  -3  22 543.830 3649.58  16
 -11  -3  22 5167.20 6681.52   5
 -11  -3  22 10531.5 13606.6   2
   3  11 -22 2248.94 7146.82  11
  -3  11 -22-2085.78 2122.20  11
  11  -3  22 1488.83 3008.27   8
   3  11 -22-3338.55 5774.14  18
  11  -3  23 2393.83 3945.42  16
   3  11 -23 4461.68 8352.98  11
  11  -3  23 1945.60 4126.73   8
  11  -3  24-163.380 3017.03  16
 -11  -3  24 2367.99 8656.93   2
   3  11 -24 5067.12 2268.32  11
  11  -3  24 2172.24 3770.05   8
  11  -3  25-5425.38 6228.78  16
 -11  -3  25 1697.28 9397.38   2
  11  -3  25-997.291 4418.35   8
  11   3 -25-43.4926 6416.76   1
  11  -3  26 1576.39 5802.73  16
 -11  -3  26 7350.42 12747.6   2
  11   3 -26 27891.1 16749.9   1
  11  -3  26-399.802 5128.79   8
  11  -3  27-460.411 4116.38  16
  11  -3  27-111.205 3499.30   8
  11  -3  28 1388.37 4305.41  16
  11  -3  28 1839.88 7722.69   8
  11  -3  29-972.206 2931.23  16
 -11   4   0 8360.49 5466.57   5
  11  -4   0 9490.80 6738.43  14
  11   4   0 9563.23 8766.76   8
  11  -4   0 5680.68 5672.69   1
 -11   4   0 8975.37 6442.87   4
  11   4   0 9156.14 4270.17  18
  11  -4   0 5908.73 5564.32   6
  11  -4  -1 35973.3 12407.3   1
 -11   4   1 58491.9 13844.3   5
 -11   4  -1 59572.9 14407.0   5
  11  -4   1 34279.4 11189.8  14
  11  -4  -1 29454.4 10048.3  14
 -11   4  -1 67566.9 18026.2   4
  11  -4   1 18293.2 14867.0   1
  11   4   1 35245.9 12143.9   8
  11   4  -1 55267.3 14886.1   8
 -11   4  -1 28612.3 5248.41   2
  11   4   1 50274.8 12973.0  18
 -11   4   1 57489.0 15559.6   4
  11   4  -1 62183.6 15545.1  18
  11  -4   1 51476.6 12596.4   6
  11  -4  -1 35347.0 11712.6   6
  11  -4   2-1252.28 1631.34   1
 -11   4  -2 2244.13 1963.24   5
  11  -4   2-1368.93 4430.02  14
 -11   4   2 2504.70 2432.47   5
  11  -4  -2 277.265 2049.22   1
  11  -4  -2-635.458 2406.20  14
  11   4   2 448.203 4475.16   8
  11   4  -2 2793.53 607.042   8
 -11   4  -2 6235.75 7478.75   4
  11   4   2 5193.18 4964.36  18
 -11   4   2 10746.0 7305.06   4
  11   4  -2 4396.31 3014.43  18
  11  -4   2 2497.30 1960.67   6
 -11   4  -3 8097.56 3965.27   5
  11  -4   3 11448.1 6902.82  14
  11   4   3 4636.73 6298.14   8
  11   4  -3 14791.2 7121.30   8
 -11   4  -3 13310.9 8739.90   4
  11   4   3 6114.42 4019.20  18
  11   4  -3 11507.2 6114.47  18
  11  -4   3 18158.4 10015.7   1
  11  -4   3 9471.79 5176.11   6
 -11   4  -4 10905.8 6963.40   5
  11  -4   4 11178.6 6509.96  14
  11  -4   4 21383.7 9820.19   1
  11   4  -4 20403.4 7415.71   8
 -11   4  -4 13453.6 7411.06   4
  11  -4   4 13835.9 7585.05   6
  11   4   4 11226.2 6468.79  18
  11   4  -4 15833.0 6171.41  18
 -11   4  -5 7803.60 8973.80   5
  11  -4   5 1903.05 7047.75   1
  11  -4   5 3331.95 2761.82  14
  11   4  -5 5216.25 4211.39  11
  11   4  -5 10485.6 6758.19   8
 -11   4  -5 7937.35 2319.89   4
  11   4   5 1378.58 2473.46  18
  11   4  -5 1324.45 1287.04  18
  11  -4   5 12504.7 7449.83   6
 -11   4  -6 19123.3 8009.65   5
  11  -4   6 23413.3 8038.29  14
  11   4  -6 11689.7 5500.68  11
 -11   4  -6 16186.6 10837.1   4
  11   4  -6 21431.9 7899.54   8
  11   4  -6 14589.9 7879.15  18
  11  -4   6 20010.5 11136.3   1
 -11   4  -7 4068.29 3819.53   5
  11  -4   7-935.460 4269.36  14
  11   4  -7-423.062 820.751  11
 -11   4  -7 5485.40 4970.92   4
  11  -4   7 3120.55 3654.67   1
  11   4  -7 2674.91 2665.59   8
  11   4  -7 1798.49 1340.44  18
 -11   4  -8 8282.81 5666.80   5
  11  -4   8 6138.02 7777.36  14
  11   4  -8 19247.2 8918.26  11
 -11   4  -8 1677.86 2883.74   4
  11   4  -8 11872.3 5102.35   8
  11  -4   9-2294.08 4512.42  14
 -11   4  -9-1881.00 4941.69   4
  11   4  -9-2276.93 3147.91   8
 -11   4 -10-3208.35 3324.30   4
  11  -4  10 3570.19 2391.05   8
  11  -4  11 18914.8 5728.87   8
  11  -4  12 13076.5 5979.50   8
  11  -4  13 23627.2 8128.07   8
 -11  -4  13 9781.04 7303.77   2
  11  -4  14-1570.59 1346.35   8
 -11  -4  14 3785.15 6496.54   2
 -11  -4  15 1309.52 2444.81   2
  11  -4  15 8828.72 6677.22   8
   4  11 -15 14049.1 14696.1  18
 -11  -4  16-125.925 3068.84   2
   4  11 -16 1591.82 6056.29  18
  11  -4  16 4192.30 4468.56   8
   4 -11  16-1574.53 5200.94   6
 -11  -4  17 553.102 2734.29   2
  11   4 -17 298.567 2263.46   1
  11  -4  17 1980.34 4295.68   8
   4  11 -17 1685.45 7174.00  18
   4 -11  17-2978.93 10154.7   6
  11  -4  17-3023.76 4452.16  16
 -11  -4  18 4467.98 5517.65   2
  11   4 -18 4038.33 7189.15   1
  11  -4  18 273.352 1327.31   8
   4  11 -18 11786.7 11019.5  18
  11  -4  18-2211.92 4151.59  16
 -11  -4  19 1448.81 3167.93   2
  11   4 -19 38.1720 2897.35   1
  11  -4  19 829.583 2152.55   8
   4  11 -19-978.312 4249.06  18
  11  -4  19 3839.87 4326.95  16
 -11  -4  20-441.722 2352.45   2
  11   4 -20-1120.99 5618.06   1
  11  -4  20-1460.72 2969.87   8
   4  11 -20 2823.30 1252.93  18
  11  -4  20 824.765 1758.78  16
 -11  -4  21-672.984 1092.53   2
  11   4 -21 5900.51 4526.00   1
   4  11 -21-3432.64 6114.35  11
  11  -4  21-1245.71 4193.05   8
   4  11 -21 7104.56 7358.72  18
  11  -4  21-2636.01 4032.36  16
 -11  -4  22 4623.28 6383.13   2
  11   4 -22-6963.23 10112.2   1
   4  11 -22-2384.48 696.008  11
  11  -4  22-2385.78 3933.53   8
   4  11 -22 2929.39 5036.52  18
  11  -4  22 538.555 4530.05  16
 -11  -4  23-4562.24 3091.46   2
  11   4 -23-899.871 6312.28   1
   4  11 -23-183.528 3433.86  11
  11  -4  23 973.449 304.081   8
  11  -4  23 1685.86 2663.15  16
 -11  -4  24-3555.52 5483.40   2
  11   4 -24 277.677 4797.20   1
   4  11 -24-2628.12 7126.90  11
  11  -4  24 2908.39 4116.15   8
  11  -4  24 1027.67 2070.29  16
 -11  -4  25-367.336 4665.21   2
  11   4 -25 447.565 6882.74   1
  11  -4  25 796.782 2900.50   8
  11  -4  25 636.721 4486.04  16
 -11  -4  26 162.484 6259.87   2
  11   4 -26-7885.38 10152.9   1
  11  -4  26 669.290 2459.54   8
  11  -4  26 1564.06 2158.72  16
 -11  -4  27 4519.20 7087.89   2
  11  -4  27 3365.41 5118.46   8
  11  -4  27 5160.40 6959.32  16
 -11  -4  28 1927.06 6503.30   2
  11  -4  28 5479.14 8354.07  16
  11  -4  29 7911.45 9101.31  16
  11  -4  30 1610.09 4737.21  16
  11  -4  31-1205.18 2906.17  16
  11   5   0 7871.89 4803.46   8
 -11   5   0 40980.6 13561.4   4
  11   5   0 25781.2 10773.0  18
 -11   5  -1 21747.3 8321.91   5
  11  -5   1 2946.08 5417.31   1
  11  -5   1-469.227 3489.34  14
  11   5  -1 9214.86 5832.61   8
  11   5   1 11260.8 6156.12  18
  11   5  -1 6549.54 1758.47  18
 -11   5  -1 12619.9 6243.95   4
  11  -5   1 16502.8 9102.30   6
 -11   5  -2 43213.1 11800.7   5
  11  -5   2 27262.0 8705.07  14
  11   5  -2 24989.7 10344.7   8
  11   5   2 23973.3 9887.53  18
 -11   5  -2 38337.1 13058.4   4
  11   5  -2 50057.5 16085.6  18
  11  -5   2 25336.6 8814.88   1
  11  -5   2 11420.6 7781.35   6
 -11   5  -3 20380.9 8428.34   5
  11  -5   3 10666.0 5669.43  14
  11   5  -3 6771.20 3281.69   8
  11  -5   3 2505.21 7269.01   1
 -11   5  -3 27686.1 11474.5   4
  11   5   3 6979.14 5601.68  18
  11   5  -3 13357.1 7776.96  18
  11  -5   3 11103.4 8654.48   6
  11  -5   4 3332.43 6903.31   1
 -11   5  -4-48.1012 3123.88   5
  11  -5   4-894.844 1749.36  14
  11   5  -4 2843.06 4014.04   8
 -11   5  -4 2590.17 5547.53   4
  11   5  -4-1310.80 2803.98  18
  11  -5   4-9837.16 8135.15   6
 -11   5  -5 17163.8 4781.63   5
  11  -5   5 2499.25 6278.23  14
  11   5  -5 18544.9 6931.34   8
 -11   5  -5 22083.7 11291.7   4
  11   5  -5 23643.7 12342.5  18
  11  -5   5 1952.07 3416.63   1
  11  -5   5 4472.77 4627.94   6
 -11   5  -6 14174.1 8489.72   5
  11  -5   6 3434.39 4109.19  14
  11  -5   6 4809.69 5614.66   1
  11   5  -6 2755.01 2021.32   8
 -11   5  -6 1315.54 6097.47   4
  11   5  -6-307.204 3929.47  18
  11  -5   6 2565.05 5603.02   6
 -11   5  -7 42084.4 12946.0   5
  11  -5   7 11930.7 13660.2   1
  11  -5   7 8718.12 11084.9  14
  11   5  -7 45895.6 13680.6  11
  11  -5   7 23513.0 12308.9   6
  11   5  -7 37232.1 10441.1   8
 -11   5  -7 25349.3 12447.4   4
  11   5  -7 26396.5 9806.99  18
 -11   5  -8 9366.76 6598.13   5
  11  -5   8-1732.69 5906.96  14
  11   5  -8-808.001 4509.75  11
 -11   5  -8 4014.18 4882.02   4
  11   5  -8 2113.20 2851.33   8
  11  -5   8 1206.27 6629.15   1
  11   5  -8 2851.32 3771.62  18
 -11   5  -9 11888.2 5598.08   5
  11  -5   9 15962.9 7425.13  14
  11   5  -9 7095.90 5480.78  11
  11  -5   9 6141.93 2984.10   1
 -11   5  -9 1857.84 1988.48   4
  11   5  -9 16725.8 5785.23   8
  11   5  -9 10126.9 6869.56  18
 -11   5 -10 513.071 3243.44   5
  11  -5  10 3479.33 5446.40   1
  11  -5  10-1724.78 2412.93  14
  11   5 -10-597.758 1973.98  11
 -11   5 -10 7071.06 5871.58   4
  11   5 -10 5148.30 3741.61   8
  11   5 -10 724.693 2318.38  18
  11  -5  11 5027.39 4338.38  14
 -11   5 -11-929.519 388.980   4
  11  -5  12 8976.67 6732.87  14
 -11   5 -12 7645.25 5851.92   4
  11  -5  15 1914.37 6032.48   8
   5  11 -15 12586.8 10552.4  18
   5  11 -16-7719.51 10485.2  18
  11  -5  16 763.562 1277.50   8
   5 -11  16-1333.23 3063.36   6
  11  -5  17-1595.21 3348.96   8
   5 -11  17-1578.61 4961.58   6
  11  -5  18-116.779 3586.70   8
   5  11 -18 5374.53 8360.49  18
 -11  -5  18-596.946 390.889   2
  11  -5  19 6119.46 4155.50   8
   5  11 -19 5552.00 4047.50  18
 -11  -5  19-1623.06 3735.98   2
   5  11 -20-57.3953 8141.21  11
  11  -5  20 1574.45 1908.36   8
   5  11 -20-598.296 1344.97  18
 -11  -5  20 1662.85 1832.06   2
   5  11 -21-19.4565 3696.10  11
  11  -5  21 2610.29 4306.10   8
   5  11 -21 4619.83 4572.03  18
 -11  -5  21 302.328 2360.59   2
 -11  -5  22 953.292 4057.44   2
   5  11 -22-167.884 4357.14  11
  11  -5  22 4340.52 4816.34   8
   5  11 -22 360.036 3252.02  18
  11  -5  22-4000.29 6093.83  16
 -11  -5  23 1344.15 3439.59   2
   5  11 -23 4901.87 8024.41  11
  11  -5  23 2588.28 5006.92   8
  11  -5  23-1744.06 4978.82  16
 -11  -5  24-1721.96 4609.54   2
  11  -5  24-210.505 2904.53   8
  11  -5  24 422.363 4064.01  16
 -11  -5  25 2474.25 3113.51   2
  11  -5  25 374.773 5387.29   8
  11  -5  25 2984.29 4997.99  16
 -11  -5  26 5411.75 6452.11   2
  11  -5  26 8682.66 4964.40   8
  11  -5  26 5592.18 7465.16  16
 -11  -5  27 4026.52 4520.58   2
  11  -5  27 3041.45 6960.20  16
 -11  -5  28 6044.05 10368.7   2
  11  -5  28 2935.79 8063.12  16
 -11  -5  29 3105.87 3194.67   2
  11  -5  29 3553.11 8806.05  16
 -11  -5  30 9565.80 8122.43   2
  11  -5  30 3328.47 8172.49  16
  11  -5  31-475.297 4194.42  16
  11  -5  32 2167.75 4219.22  16
  11  -5  33 943.613 3461.51  16
  11   6   0 21897.1 10814.6  18
  11   6  -1 11017.3 5226.53  18
  11   6  -2 9567.71 6867.44   8
  11   6  -2 12846.9 7276.74  18
  11   6  -3-3820.69 4539.34   8
 -11   6  -3 3478.62 3352.73   4
  11   6  -3 7546.32 6605.56  18
  11  -6   4 7137.31 8272.02   1
 -11   6  -4 20000.6 7762.15   5
  11  -6   4 2210.47 4059.91  14
  11   6  -4 14941.8 7973.87   8
 -11   6  -4 18988.1 10062.7   4
  11   6  -4 4382.24 5328.81  18
  11  -6   4 4581.22 5476.96   6
 -11   6  -5 4820.61 5290.07   5
  11  -6   5-182.926 3708.60  14
  11   6  -5 2260.50 3532.04   8
  11  -6   5 3070.79 4699.41   1
 -11   6  -5 4225.19 3101.24   4
  11   6  -5-2286.96 1839.94  18
  11  -6   5 1421.29 3339.22   6
  11  -6   6 5044.49 9135.80   1
 -11   6  -6 24400.8 8162.48   5
  11  -6   6 1390.35 6515.26  14
  11   6  -6 25154.5 10763.6   8
 -11   6  -6 25565.2 10750.9   4
  11   6  -6 27121.0 11826.9  18
  11  -6   6 8319.28 7939.31   6
 -11   6  -7 6325.84 1817.53   5
  11   6  -7 11892.8 6032.44   8
 -11   6  -7 14869.6 9524.81   4
  11   6  -7 14263.2 9734.38  18
  11  -6   7 3969.23 6706.32   1
  11  -6   7 12215.8 9191.46   6
 -11   6  -8 34183.1 12388.9   5
  11  -6   8 27547.4 10400.1  14
  11  -6   8 4339.57 10256.3   1
  11   6  -8 39051.3 10014.4   8
 -11   6  -8 33568.3 13882.6   4
  11   6  -8 22300.1 11200.5  18
  11  -6   8 26587.8 12460.6   6
  11  -6   9-3135.37 4199.22   1
 -11   6  -9 7256.60 4594.45   5
  11  -6   9 5127.56 5450.88  14
  11   6  -9 10545.1 10530.0  11
  11   6  -9 8174.68 5341.26   8
 -11   6  -9-1663.01 4835.43   4
  11   6  -9-3371.07 5806.97  18
 -11   6 -10 4092.03 4778.36   5
  11  -6  10 5747.70 6387.01  14
  11   6 -10 4429.54 3073.45  11
 -11   6 -10 5200.43 7209.60   4
  11  -6  10 3916.83 7174.96   1
  11   6 -10 14903.1 7691.47  18
 -11   6 -11 11642.2 6666.89   5
  11  -6  11 8551.19 3831.94  14
  11   6 -11-567.967 2172.65  11
 -11   6 -11 918.942 4257.51   4
  11   6 -11 2873.21 3947.94  18
  11  -6  12-129.107 4147.55  14
  11   6 -12 395.312 10571.1  11
 -11   6 -12 6268.46 5104.17   4
  11   6 -12 851.946 2697.18  18
  11  -6  13-453.007 3939.40  14
  11   6 -13 1708.01 10902.7  11
 -11   6 -13-2754.30 4952.83   4
   6  11 -14 29469.1 14773.7  18
   6  11 -15 1536.64 3208.35  18
   6  11 -16 6098.82 8391.94  18
   6 -11  16 975.179 5838.37   6
   6  11 -17 6672.24 10663.9  18
   6 -11  17 2653.36 8665.06   6
   6  11 -18 10257.9 7860.12  18
   6  11 -19 7545.04 6610.49  18
   6  11 -20 953.623 2408.68  11
   6  11 -20-2525.96 6556.04  18
   6  11 -21 1840.55 8638.43  11
   6  11 -21 299.989 6566.47  18
   6  11 -22 5064.40 7306.45  11
   6  11 -22 1752.49 5258.24  18
   6  11 -23 4069.33 9038.56  11
 -11  -6  29-672.966 2535.22   2
 -11  -6  30-569.089 5281.94   2
  11   7  -2-272.451 2680.87  18
  11   7  -3 9206.97 6361.88  18
  11   7  -4 15828.9 11630.7  18
  11   7  -5 3961.23 1905.92   8
  11   7  -5 7057.36 5731.42  18
  11  -7   6 3704.75 6544.32   1
 -11   7  -6 33776.3 11958.7   5
  11   7  -6 22703.1 9314.91   8
 -11   7  -6 42579.1 14710.7   4
  11   7  -6 47484.0 17295.8  18
  11  -7   6-2977.70 3677.04   6
 -11   7  -7 25967.2 10612.5   5
  11  -7   7 206.883 2952.02  14
  11   7  -7 13903.1 7460.18   8
  11  -7   7 2155.80 4215.55   1
 -11   7  -7 25870.8 11235.7   4
  11   7  -7 26062.7 13908.1  18
  11  -7   7 894.002 3391.04   6
  11  -7   8 3640.64 7617.17   1
 -11   7  -8 12704.7 5240.50   5
  11  -7   8 2016.44 2400.02  14
  11   7  -8 19816.3 7971.77   8
 -11   7  -8 11028.2 7845.33   4
  11   7  -8 32619.2 14246.0  18
  11  -7   8 12568.2 12495.2   6
 -11   7  -9 12785.2 6712.61   5
  11  -7   9 716.670 1153.40  14
  11  -7   9 5129.79 7324.32   6
 -11   7  -9 7792.11 7325.01   4
  11  -7   9 8177.47 5635.24   1
  11   7  -9 19007.1 10407.6  18
  11   7 -10-465.293 5405.02  18
 -11   7 -10 10757.4 7596.58   5
  11  -7  10 1944.08 4390.77  14
 -11   7 -10 645.802 795.730   4
  11  -7  10 1781.20 8839.24   6
 -11   7 -11 4948.38 3936.69   5
  11  -7  11 133.881 5035.49  14
  11   7 -11 18241.5 10232.7  11
  11   7 -11 4604.90 5921.48  18
 -11   7 -11 18629.8 11452.6   4
  11  -7  12 45.6302 4539.12  14
  11   7 -12-198.241 10144.7  11
 -11   7 -12 5239.63 4636.95   4
  11   7 -12-537.109 3497.30  18
  11  -7  13 114.016 3385.52  14
  11   7 -13-200.694 1065.78  11
  11   7 -13-376.464 1656.14  18
  11  -7  14 1403.46 2450.86  14
  11   7 -14 1071.08 8729.79  11
 -11   7 -14-6979.74 7043.35   4
   7  11 -14 11058.5 9411.49  18
  11   7 -14 86.9561 3554.58  18
  11  -7  15 563.801 2786.02  14
 -11   7 -15 3315.77 3240.57   4
  11   7 -15 480.259 6556.20  11
   7  11 -15 13172.3 10861.5  18
   7  11 -16 31961.9 14629.5  18
   7  11 -17 8195.62 1255.15  18
   7 -11  17 7697.77 11845.2   6
   7  11 -18 11987.0 11112.8  18
   7  11 -19 1621.68 3955.25  11
   7  11 -19 1702.29 3535.05  18
   7  11 -20 600.517 5298.55  11
   7  11 -20-727.423 8896.40  18
   7  11 -21 1283.34 9579.30  11
   7  11 -21-829.202 5715.43  18
   7  11 -22-871.507 5613.11  11
   7  11 -23 13290.7 12584.1  11
  11   8  -5 19983.8 10632.6  18
  11   8  -6-538.206 5579.78   8
  11   8  -6-3097.04 8672.50  18
  11   8  -7 25334.4 9799.21   8
  11   8  -7 27828.7 14013.9  18
  11   8  -8 10285.7 9053.20  18
 -11   8  -9 23006.5 9967.41   5
  11  -8   9 10809.4 10121.5  14
 -11   8  -9 10733.6 8020.86   4
  11   8  -9 4831.99 7099.77  18
  11  -8   9 4502.80 7468.95   6
 -11   8 -10-1732.78 4325.74   5
  11  -8  10 8154.65 5947.05  14
 -11   8 -10 4360.60 4572.01   4
  11   8 -10 16033.8 11077.4  18
  11  -8  10 10761.8 11055.2   6
  11  -8  11-252.376 5943.93  14
 -11   8 -11-6866.64 7529.95   4
  11   8 -11 3400.30 2236.88  18
  11  -8  11-12051.3 10321.7   6
  11  -8  12-1576.29 471.796  14
 -11   8 -12 10191.2 7700.28   4
  11   8 -12 5496.89 1756.20  18
  11  -8  13-2210.21 5253.94  14
  11   8 -13 2.77879 3785.61  11
 -11   8 -13 6468.49 7364.43   4
  11   8 -13-1631.13 5184.12  18
  11   8 -14 223.864 698.616  18
  11  -8  14-356.041 3118.32  14
  11   8 -14 440.028 1778.59  11
 -11   8 -14 5800.10 7701.15   4
   8  11 -14-1456.65 5051.80  18
  11  -8  15-3078.59 5292.47  14
  11   8 -15 552.201 4965.41  11
 -11   8 -15-712.168 6191.12   4
  11   8 -15 1340.27 2346.77  18
  11  -8  16-2142.35 2364.33  14
 -11   8 -16 5400.32 6090.76   4
  11   8 -16 82.1624 1720.73  11
   8  11 -17 6607.00 7039.45  18
   8  11 -18-4423.83 9290.64  18
   8  11 -19 1179.45 10388.4  11
   8  11 -19 1063.79 2604.29  18
   8  11 -20-1792.18 8799.05  11
   8  11 -20-937.409 3637.17  18
   8  11 -21 1633.68 12770.3  11
   8  11 -21 851.177 7704.79  18
   8  11 -22-2146.56 1561.29  11
  11   9  -7 61684.5 24403.7  18
  11   9  -8 34579.9 19007.8  18
  11   9  -9-3650.71 5378.24  18
  11   9 -10-4693.10 3112.19  18
  11  -9  11 5229.24 9319.69   6
 -11   9 -11 570.632 7156.97   4
  11   9 -11 9903.64 11681.1  18
  11  -9  12 217.856 3746.87  14
  11  -9  12 9627.20 4944.99   6
 -11   9 -12 7842.36 9952.03   4
  11   9 -12 6743.41 5617.17  18
  11  -9  13 281.546 2174.87  14
  11   9 -13-4936.87 7614.13  18
 -11   9 -13-3922.09 5818.40   4
  11  -9  14-241.356 4632.24  14
  11   9 -14 2987.16 6428.34  11
 -11   9 -14 7884.46 9760.76   4
   9  11 -14 3963.81 13493.0  18
  11   9 -14 5151.26 3960.23  18
  11  -9  15 2116.71 2499.88  14
  11   9 -15-288.273 10369.0  11
 -11   9 -15 1164.61 5239.72   4
   9  11 -15 4207.73 14909.6  18
  11   9 -15-647.013 4817.53  18
  11  -9  16 1932.12 5326.20  14
  11   9 -16 2148.57 7642.90  11
 -11   9 -16 2179.32 2377.52   4
   9  11 -16-3034.39 7695.18  18
  11   9 -16-736.540 8350.19  18
  11  -9  17-48.5287 1076.95  14
  11   9 -17 182.810 7384.69  11
   9  11 -17 5427.54 4437.95  18
  11   9 -17 1275.78 5704.86  18
   9  11 -18 18663.2 13656.3  11
  11   9 -18 3167.85 10825.1  11
   9  11 -18 10958.0 9554.79  18
   9  11 -19-72.2438 6640.11  11
   9  11 -19-1173.17 5172.67  18
   9  11 -20 531.038 1871.30  11
   9  11 -20 636.713 6591.26  18
   9  11 -21 11.8033 4405.58  11
   9  11 -22 6943.56 7495.11  11
  11  10 -10-3289.22 7425.45  18
  11  10 -11-86.8591 8428.66  18
  11  10 -12-15038.5 12730.7  18
  10  11 -13 7696.26 23422.4  18
  11  10 -13 17002.8 12010.0  18
 -11  10 -14 12575.4 10471.8   4
  10  11 -14 1117.08 9143.72  18
  11  10 -14-2860.69 8368.09  18
  11 -10  15-133.643 1712.80  14
  11  10 -15 9649.09 8755.48  11
 -11  10 -15 2293.16 5059.12   4
  10  11 -15 10516.4 10156.2  18
  11  10 -15 7584.67 6163.82  18
  11 -10  16-210.663 134.347  14
  11  10 -16-5382.84 14002.3  11
 -11  10 -16 5596.50 5565.41   4
  10  11 -16-107.471 6199.57  18
  11  10 -16-565.273 7914.84  18
  10  11 -17 5080.32 7089.84  11
  11  10 -17-710.123 7762.15  11
  10  11 -17-5332.77 6721.32  18
  11  10 -17-205.917 3754.51  18
  10  11 -18-1701.22 10720.5  11
  11  10 -18 923.156 1747.35  11
  10  11 -18-246.114 3454.39  18
  11  10 -18 1256.23 7732.54  18
  10  11 -19-173.690 5712.23  11
  11  10 -19-1112.64 5635.46  11
  10  11 -19-1625.94 4073.04  18
  10  11 -20-2990.69 6036.42  11
  10  11 -20-825.062 6102.29  18
  10  11 -21 353.789 5121.22  11
  11  11 -13 15796.0 13587.7  18
  11  11 -14 27776.1 15260.2  18
  11  11 -15-4820.64 6553.75  18
  11  11 -16 11310.2 6217.60  18
  11  11 -17-597.727 11157.9  11
  11  11 -17-169.080 1861.25  18
  11  11 -18 964.922 6306.61  11
  11  11 -18 145.735 2453.21  18
  11  11 -19 386.069 5147.37  11
  11  11 -19 990.236 5633.58  18
  11  11 -20 6135.53 3363.02  11
  11  11 -21 42.9971 9081.49  11
  12   0   0 13912.8 7712.81   1
 -12   0   0 4259.21 4175.91   4
  12   0   0 19590.3 8805.83   8
  12   0  -1-783.611 4562.53   1
 -12   0   1-488.335 1950.17   4
  12   0   1-349.488 2191.89   8
  12   0  -1 197.810 2356.20   8
 -12   0   2 16187.2 7985.31   5
  12   0  -2 27965.0 10567.0   1
 -12   0   2 4215.38 4256.98   4
  12   0   2 21267.8 7559.31   8
 -12   0   2 19683.8 7572.96   2
 -12   0   3 2958.19 2896.50   2
 -12   0   3-26.6372 2623.83   5
 -12   0   3 1345.61 2540.78   4
  12   0  -3 2844.20 4964.10   1
  12   0   3 2523.56 3835.64   8
 -12   0   4 45742.2 12927.1   5
  12   0   4 88572.8 16315.3   8
 -12   0   4 50142.9 13375.8   4
 -12   0   4 69051.7 13541.7   2
  12   0  -4 101469. 21777.1   1
 -12   0   5-6512.31 5240.50   5
  12   0  -5-1478.47 2173.20  14
 -12   0   5-1365.67 2839.79   2
 -12   0   5 1294.48 2948.59   4
  12   0   5-3001.45 4340.99   8
  12   0  -5-4808.99 5914.87   1
  12   0  -6 95178.7 16662.6  14
 -12   0   6 96777.4 20306.6   4
  12   0   6 109475. 18388.3   8
 -12   0   6 106511. 17691.4   2
  12   0  -6 147551. 28795.4   1
 -12   0   6 83085.4 18514.2   5
  12   0  -7 4547.84 7990.17   1
 -12   0   7-5191.94 5635.78   5
  12   0  -7 612.668 3936.17  14
 -12   0   7-8021.99 6809.37   2
  12   0   7 681.591 1863.94   8
 -12   0   7 572.790 3746.43   4
  12   0   7 1400.17 2067.62  16
  12   0  -8 132543. 28559.9   1
  12   0  -8 58516.8 14228.0  14
 -12   0   8 97507.9 20402.9   4
  12   0   8 135119. 21162.8   8
 -12   0   8 125472. 22209.6   2
  12   0   8 121662. 15247.6  16
 -12   0   8 93602.1 21042.4   5
 -12   0   9-5123.64 4897.61   5
  12   0  -9 1885.17 2810.72  14
  12   0  -9-1277.09 3423.54   1
 -12   0   9-2123.08 5841.39   2
  12   0   9 2780.78 1922.23   8
 -12   0   9-3024.07 4514.78   4
  12   0   9 1551.36 3460.08  16
  12   0  10 48582.7 9894.24  16
 -12   0  10 52429.6 17197.4   5
  12   0 -10 12076.5 4708.45  14
  12   0 -10 49401.6 17983.4   1
 -12   0  10 41432.2 14186.9   2
  12   0  10 53723.0 14866.4   8
 -12   0  10 57643.0 15468.1   4
  12   0  11-382.133 2404.60  16
 -12   0  11 6235.12 8782.35   5
  12   0 -11 4054.92 2938.73  14
  12   0 -11 3982.76 6928.40   1
  12   0  11 2727.53 1699.84   8
 -12   0  11 1617.44 3438.97   2
 -12   0  11-1862.50 1763.54   4
  12   0  12 19440.3 7040.56  16
 -12   0  12 11181.8 8475.01   5
  12   0 -12 3624.52 4180.21  14
  12   0  12 27526.2 11166.1   8
 -12   0  12 21905.2 11364.1   2
  12   0 -12 13944.9 10422.2   1
 -12   0  12 17460.5 9081.98   4
  12   0  13 1787.10 4875.11  16
 -12   0  13 4299.93 2184.15   5
  12   0 -13-2460.07 3652.78  14
  12   0  13 11060.9 6405.43   8
 -12   0  13-1773.77 4090.40   2
  12   0 -13-1017.86 3889.20   1
 -12   0  13 796.145 3483.26   4
  12   0  14 5889.68 5618.33  16
 -12   0  14 1800.35 3265.00   5
  12   0 -14-306.408 6123.84  14
  12   0  14 2736.16 301.724   8
 -12   0  14-526.429 2144.35   2
 -12   0  14 4078.22 3950.13   4
  12   0  15 6242.37 5989.61  16
 -12   0  15-5305.02 6654.07   5
  12   0  15 12747.5 9526.69   8
 -12   0  15 4905.15 6234.07   4
  12   0  16 6490.96 9906.19  16
 -12   0  16 16675.5 5257.39   5
  12   0 -16 762.657 5246.69  14
  12   0  16 19359.7 11568.0   8
 -12   0  16 7868.41 8404.85   2
 -12   0  16 26595.4 9184.65   4
  12   0 -16-3873.23 4324.80   1
  12   0  17-2616.77 5405.41  16
  12   0  17-7434.92 6536.99   8
  12   0  18 17015.0 15328.4  16
  12   0  18 36287.6 15421.2   8
   0  12 -18 55417.7 16616.9  18
   0 -12  18 771.890 6174.51   6
  12   0  19-1620.85 6898.02  16
   0  12 -19 1080.31 10518.5  18
  12   0  19-12118.3 9985.73   8
  12   0  20 21580.7 16876.0  16
  12   0  20 50157.2 19487.6   8
  12   0  21-32.8379 4357.05  16
  12   0  21 2964.52 17411.0   8
   0  12 -21-6990.33 6893.02  18
   0  12 -22 63722.0 17844.0  11
   0  12 -22 24877.5 14816.8  18
   0  12 -23-6527.94 4181.84  11
   0  12 -24 13575.2 11666.3  11
   0  12 -25 1508.21 2846.23  11
 -12   1   0 4296.30 4523.97   5
  12  -1   0 2266.40 5064.17  14
 -12   1   0 2724.21 3376.65   4
  12  -1   0 4112.12 5530.15   1
  12   1   0 3464.73 2830.98   8
 -12   1  -1 1428.82 3706.05   5
 -12   1   1 6728.96 3777.29   2
 -12   1   1 7889.08 6297.52   5
  12  -1  -1 11909.2 6167.69  14
  12  -1   1 8489.20 4726.07   1
 -12   1  -1 3699.46 5152.64   4
 -12   1   1 2875.53 3362.09   4
  12   1   1 6921.64 4429.13   8
  12   1  -1 7399.76 5040.90   8
  12  -1  -1 9291.12 6293.83   1
  12  -1   1 8764.06 5559.04   8
 -12   1   2 743.438 2375.66   5
  12  -1   2 6316.10 5527.84   1
  12  -1  -2 41.8280 2681.01  14
 -12   1   2 1187.66 3149.89   2
 -12   1  -2-73.3385 4732.87   4
 -12   1   2 6942.57 6998.37   4
  12   1   2 1728.46 2073.54   8
  12   1  -2-2538.78 3199.22   8
  12  -1   2 4110.24 4250.34   8
  12  -1  -2 606.655 2964.59   1
  12  -1  -3 61414.5 17674.5   1
  12   1  -3 47087.6 14681.7   1
 -12   1   3 33940.9 12057.3   5
  12  -1  -3 37787.3 10622.3  14
 -12   1   3 39904.3 10038.4   2
 -12  -1   3 22581.3 9660.15   4
 -12   1  -3 25316.9 9468.95   4
  12   1   3 42618.1 10650.1   8
 -12   1   3 27779.9 11473.6   4
  12  -1   3 50402.0 12592.5   8
  12   1  -3 49139.0 12218.2   8
 -12   1   4-1926.42 4403.85   5
  12  -1  -4 4771.66 4994.93  14
  12  -1  -4-4535.55 4233.03   1
  12   1  -4 1242.97 3100.09   1
 -12  -1   4 287.604 2223.75   4
 -12   1   4-860.807 4976.13   2
  12   1   4-4258.48 4947.44   8
 -12   1   4-4976.73 7755.70   4
  12  -1   4-1398.44 2354.06   8
  12  -1  -4-285.846 3931.43   6
 -12  -1   5 28274.0 9490.20   5
 -12   1   5 71349.5 18837.1   5
  12  -1  -5 46116.0 13169.1  14
 -12   1   5 89359.3 20606.0   4
  12   1  -5 61964.1 15444.0   1
  12  -1  -5 85752.2 22601.7   1
  12   1   5 77607.7 15791.4   8
  12  -1   5 72543.5 14125.9   8
 -12  -1   5 32302.1 9184.51   4
  12   1   5 59082.1 9559.96  18
  12  -1  -5 102686. 15413.0   6
 -12   1   5 93826.8 17869.1   2
 -12  -1   5 50856.5 12716.9   2
 -12  -1   6-718.101 2548.82   5
 -12  -1   6 1290.13 2166.68   2
 -12   1   6-2153.81 4186.89   5
  12  -1  -6-1068.48 2163.60  14
 -12  -1   6-2446.69 1390.17   4
  12   1  -6 2180.30 4942.18   1
  12  -1  -6-3560.80 4308.93   1
 -12   1   6-2782.81 4654.53   2
  12   1   6-2787.55 5586.01   8
  12  -1   6-3411.65 4233.56   8
 -12   1   6 13630.3 7833.52   4
  12   1   6-815.420 2525.24  18
  12  -1  -6 2496.81 1824.65   6
  12  -1  -7 137750. 27602.2   1
 -12  -1   7 63621.0 15122.8   5
  12  -1  -7 80941.1 16889.4  14
 -12  -1   7 73229.3 16073.2   4
 -12   1   7 137591. 25228.5   4
  12   1   7 130210. 23358.2   8
  12  -1   7 115437. 18110.2   8
 -12  -1   7 85206.0 16159.4   2
 -12   1   7 140741. 21738.8   2
  12   1  -7 124589. 24017.4   1
 -12   1   7 119763. 22624.4   5
 -12  -1   8-1895.82 3791.11   5
 -12   1   8 269.044 1464.68   5
 -12  -1   8-6089.85 4808.11   2
  12  -1  -8-3571.19 4310.27  14
  12   1   8-2498.75 1674.22   8
 -12  -1   8-1889.38 4192.45   4
 -12   1   8-4212.61 4065.99   2
  12  -1   8-1809.29 2201.22   8
  12   1  -8-5258.58 3906.87   1
 -12   1   8-448.725 5339.95   4
  12  -1  -8 2509.22 6601.76   1
 -12  -1   9 31595.3 11498.4   5
 -12   1   9 47976.7 13064.7   5
  12  -1  -9 30416.0 11500.1  14
 -12  -1   9 45412.0 13570.0   2
  12  -1   9 68012.5 14489.8   8
  12   1   9 68938.8 18775.0   8
 -12  -1   9 37486.9 12566.9   4
 -12   1   9 68798.1 16316.9   4
  12   1  -9 66609.5 19599.6   1
 -12   1   9 65159.7 14981.1   2
  12  -1  -9 25485.6 11441.4   1
  12   1   9 72838.7 13122.7  16
  12  -1 -10-4376.97 4610.39   1
  12   1  10-174.212 698.321  16
 -12  -1  10 312.608 4064.19   5
 -12   1  10-8063.92 7952.42   5
  12  -1 -10 2745.30 3530.88  14
 -12  -1  10-5334.10 4986.69   2
  12   1  10-5454.46 6940.84   8
 -12  -1  10 534.396 1884.64   4
  12  -1  10-2729.33 2313.08   8
 -12   1  10 3343.85 3176.28   2
 -12   1  10 519.905 655.922   4
  12   1 -10 7419.50 7369.35   1
  12  -1  10 792.111 2849.24  16
  12  -1 -11 10275.3 8079.01   1
  12   1  11 21521.6 8766.57  16
 -12  -1  11 9614.10 6444.78   5
 -12   1  11 9282.13 4843.63   5
  12  -1 -11 7663.64 6618.18  14
 -12  -1  11 12105.4 8450.16   2
  12   1  11 11922.8 5302.10   8
 -12  -1  11 14714.4 6593.20   4
  12  -1  11 22916.5 7895.04   8
 -12   1  11 6388.93 6355.99   2
 -12   1  11 15454.0 8129.02   4
  12  -1  11 13611.8 5175.93  16
  12   1 -11 9638.20 9074.58   1
  12   1 -12-245.866 6421.87   1
  12   1  12-2747.28 3389.69  16
 -12  -1  12-3725.15 3700.78   5
  12  -1 -12-2050.29 5750.58   1
 -12   1  12 3756.18 3857.28   5
  12  -1 -12 4594.65 3944.44  14
 -12  -1  12-2593.58 4419.25   2
  12   1  12-4120.42 7095.52   8
  12  -1  12-6973.39 4687.74   8
 -12  -1  12 3403.40 5321.21   4
 -12   1  12-2378.55 2278.02   2
 -12   1  12-1503.79 3568.23   4
  12  -1  12 3200.11 4773.41  16
  12  -1  13 3686.36 4004.53  16
  12   1  13 8441.85 3068.55  16
  12   1 -13 2599.40 3697.26   1
 -12  -1  13 4732.78 6006.22   5
  12   1 -13 958.630 1261.51  14
  12  -1 -13 5064.59 7699.54   1
 -12   1  13 12637.3 7571.93   5
  12  -1 -13 2912.65 3980.41  14
 -12  -1  13 8970.38 5248.98   2
  12   1  13-9699.68 8907.90   8
  12  -1  13 6046.18 5206.96   8
 -12  -1  13 4840.07 7693.79   4
 -12   1  13 7058.69 6199.41   2
 -12   1  13 4688.00 4520.56   4
  12  -1  14-975.196 3532.98  16
  12   1  14-10123.8 7709.92  16
 -12  -1  14 4505.07 2791.05   5
  12   1 -14-919.196 2775.10  14
  12   1 -14 2623.39 1635.41   1
 -12  -1  14-10139.7 9020.99   2
  12   1  14-4910.60 6386.06   8
  12  -1  14-3442.02 4391.45   8
 -12  -1  14 3113.11 5125.06   4
  12  -1  15 1086.86 3809.21  16
  12   1  15-242.657 4968.85  16
 -12  -1  15 14986.9 8160.89   5
  12   1 -15 7321.47 6323.77  14
  12   1 -15 4902.57 12150.3   1
 -12  -1  15 4130.77 6638.91   2
  12   1  15 21496.0 10291.2   8
  12  -1  15 4329.57 4916.08   8
 -12  -1  15 6538.19 1633.94   4
  12  -1  16-107.448 2197.11  16
  12   1  16 1547.10 1668.94  16
 -12  -1  16 1999.23 5158.18   5
  12   1 -16 473.895 1544.80  14
  12   1 -16-10285.5 10150.1   1
 -12  -1  16-4335.40 7338.54   2
  12   1  16 290.680 3706.16   8
  12  -1  16-246.325 2547.70   8
 -12  -1  16 760.811 1994.58   4
  12  -1  17 7163.10 9552.66  16
  12   1  17 7810.91 8176.21  16
 -12  -1  17 24296.1 11855.9   5
  12   1 -17-1528.61 4316.20   1
  12   1  17 30569.4 10352.5   8
 -12  -1  17 12084.3 10344.8   2
  12  -1  17 40426.8 12046.5   8
 -12  -1  17 32268.5 12237.5   4
  12  -1  18-2167.23 4456.54  16
  12   1  18-882.831 5584.33  16
 -12  -1  18-563.634 2868.57   5
  12   1 -18-3501.33 10327.5   1
  12   1  18 5922.45 5271.59   8
 -12  -1  18-7569.33 7626.00   2
  12  -1  18-814.702 1127.28   8
   1  12 -18-3617.11 7756.98  18
  -1 -12  18-865.185 1538.56   6
  12  -1  19 12082.4 12050.2  16
 -12  -1  19 35358.8 15415.7   5
  12   1 -19-1470.28 8160.65   1
 -12  -1  19 39056.4 17868.4   2
  12  -1  19 35949.2 11442.5   8
  -1  12 -19 71581.2 22746.4  18
   1  12 -19 81835.0 26109.9  18
  12  -1  20-951.289 5295.76  16
 -12  -1  20-606.465 3421.63   5
  12   1 -20-21023.4 11445.9   1
 -12  -1  20-2458.15 5033.24   2
  12  -1  20-7720.84 6759.53   8
  -1  12 -20-3480.50 4031.71  18
   1  12 -20 4288.24 7673.77  18
  12  -1  21 16663.8 14422.6  16
  12  -1  21 48382.7 13714.5   8
   1  12 -21 46295.0 15309.6  18
  12  -1  22 3088.03 6037.33  16
  -1  12 -22-3063.95 5218.50  11
   1  12 -22 8456.77 7518.39  11
  12  -1  22-1308.84 1180.83   8
   1  12 -22 2635.51 9485.44  18
  12  -1  23 8605.83 11016.7  16
   1  12 -23 8045.36 10827.6  11
  -1  12 -23 21721.8 15822.3  11
  12  -1  23 35366.3 10941.9   8
   1  12 -23 10933.4 8010.56  18
  12  -1  24 11119.0 10273.0  16
   1  12 -24 4515.43 8867.69  11
  -1  12 -24-4289.48 8535.02  11
  12  -1  24 2717.54 2764.23   8
   1  12 -25-3327.56 6214.96  11
  -1  12 -25-606.752 4088.64  11
  12  -2   0 4162.59 2782.32   1
 -12   2   0 1479.52 4653.69   5
  12  -2   0-400.270 2250.90  14
 -12   2   0 2214.45 2777.69   2
  12   2   0 6171.63 6209.64   8
 -12   2   0 3291.12 4597.54   4
  12   2   0 9787.77 6190.97  18
 -12   2  -1 580.883 6112.36   5
 -12   2   1 3726.32 4500.86   5
  12  -2   1 612.527 1332.67  14
  12  -2  -1 2986.35 5417.80  14
  12  -2  -1-9762.25 7200.44   1
  12   2   1 3824.26 3793.82  11
 -12   2   1-3187.23 3651.32   2
  12   2   1 4160.62 3736.34   8
 -12   2  -1-1666.20 2882.98   4
  12   2  -1 1957.22 1453.85   8
 -12   2   1 2908.31 2469.27   4
  12  -2   1 2856.98 3400.55   1
  12  -2  -1 55.6309 1938.74   6
  12   2   1 1196.61 1652.32  18
 -12   2  -2 5821.17 6655.36   5
 -12   2   2 6142.50 7328.12   5
  12  -2   2-1154.96 3786.59  14
  12  -2  -2 2222.89 2310.46  14
  12   2   2 913.468 1570.09  11
  12  -2  -2-2780.03 4930.50   1
 -12   2   2 2533.84 1543.13   2
 -12   2  -2 198.656 2920.37   4
  12   2   2 2107.12 2488.61   8
  12  -2   2 2817.09 6480.14   1
  12   2  -2 1308.53 3359.48   8
 -12   2   2-3140.03 4078.17   4
  12   2   2-583.934 2120.23  18
  12  -2  -2 1911.59 2500.22   6
 -12   2  -3 2323.23 1766.79   5
  12  -2   3 374.952 2959.03  14
 -12   2   3 4387.32 5869.87   5
  12  -2  -3-780.113 1337.34  14
  12   2   3-2123.59 1793.52  11
  12  -2   3 466.035 2871.88   1
 -12   2  -3 1965.10 2412.02   4
  12   2   3 5064.31 4120.27   8
 -12   2   3 733.878 2768.28   2
  12  -2  -3 3691.02 2303.65   1
 -12   2   3 10361.0 7874.19   4
  12   2  -3-1680.00 1864.21   8
  12   2   3-611.714 4147.95  18
  12  -2  -3-2657.81 4465.09   6
  12  -2   4 11458.9 9277.13   1
 -12   2   4 23550.2 9012.69   5
  12  -2  -4 21180.8 7951.92  14
 -12   2  -4 9109.14 5432.51   4
  12   2   4 19920.5 8913.78   8
 -12   2   4 26540.2 8177.95   2
 -12   2   4 25107.0 10991.6   4
  12   2  -4 30746.3 9440.79   8
  12  -2  -4 26188.9 12118.1   1
  12  -2   4 18860.0 7054.42   8
  12   2   4 21541.3 7167.91  18
  12  -2  -4 21499.5 6399.38   6
 -12   2   5-4764.95 6696.90   5
  12  -2  -5-819.866 1563.41  14
 -12   2  -5-1201.50 4382.44   4
  12   2   5 18.5638 4162.78   8
 -12   2   5 431.021 3403.93   2
 -12   2   5-3260.07 5634.10   4
  12  -2   5 1320.81 3155.76   8
  12   2  -5-1149.74 3745.40   8
  12   2   5-2431.38 3116.61  18
  12  -2  -5 586.552 1280.29   6
  12  -2  -5-48.8918 4014.41   1
 -12   2   6 68809.0 16516.4   5
 -12   2   6 47035.3 11375.5   2
  12  -2  -6 45839.1 14973.5   1
  12  -2  -6 31493.3 10208.0  14
 -12   2   6 71729.9 17517.5   4
 -12   2  -6 14958.7 7141.83   4
  12  -2   6 64261.0 13460.7   8
  12   2   6 75102.5 19695.1   8
  12   2   6 74876.1 14686.9  18
  12  -2  -6 39595.8 9734.42   6
  12   2  -7 984.257 4003.26   1
 -12   2   7 2480.14 3507.57   5
  12  -2  -7 2388.59 6454.56   1
  12  -2  -7 911.527 1537.01  14
  12   2   7 585.700 4501.40   8
  12  -2   7 7145.56 4106.88   8
 -12   2   7-2409.88 3322.33   4
 -12   2   7-1504.11 2181.19   2
  12   2   7-3694.83 3039.01  18
 -12  -2   7-113.143 3328.88   2
  12  -2  -7 2685.36 2807.03   6
 -12   2   8 53726.5 14723.6   5
  12  -2  -8 22943.6 8852.30  14
  12   2  -8 46437.4 13993.5   1
 -12   2   8 76074.6 17577.1   4
  12  -2  -8 33403.1 13405.3   1
 -12  -2   8 18547.6 7412.91   4
  12   2   8 56993.2 17905.0   8
  12  -2   8 50056.7 11889.9   8
 -12   2   8 44728.8 10794.3   2
 -12  -2   8 28091.4 9077.34   2
 -12  -2   9 1979.01 5209.75   2
 -12   2   9 2520.85 2563.30   5
  12  -2  -9-1798.02 585.569  14
  12   2  -9-359.380 1746.36   1
 -12  -2   9 3425.08 4110.15   4
  12  -2  -9 285.488 3100.01   1
  12   2   9 7441.82 7691.00   8
  12  -2   9-3534.58 3379.08   8
 -12   2   9 1742.49 4658.58   4
 -12   2   9-3396.45 3244.41   2
 -12  -2  10-296.174 3878.63   5
 -12  -2  10-2082.41 3443.12   2
  12   2  10 9604.13 4125.18  16
 -12  -2  10 2861.62 2753.06   4
  12   2 -10 8678.47 6908.73   1
  12   2  10 9842.79 6358.62   8
  12  -2 -10 2498.96 6474.01   1
  12  -2  10 9366.58 6209.27   8
 -12  -2  11-1310.43 2687.89   5
  12   2  11-3824.40 2739.20  16
 -12  -2  11-1955.88 2783.65   2
 -12  -2  11-1672.96 2834.77   4
  12   2  11-811.386 4735.73   8
  12   2 -11-4127.27 5826.59   1
  12  -2  11-492.953 257.695   8
 -12  -2  12 5514.93 2668.01   5
  12   2  12 89.9695 771.053  16
 -12  -2  12 3874.51 5302.86   2
  12   2  12-7652.52 7868.34   8
 -12  -2  12-2731.26 4231.76   4
  12   2 -12 7788.56 7373.57   1
  12  -2  12 73.1033 2257.17   8
  12  -2  12 458.608 1806.11  16
 -12  -2  13-890.201 4099.48   5
  12   2  13 2769.58 2074.90  16
 -12  -2  13 1374.12 3033.74   2
  12   2  13 2321.99 4627.78   8
 -12  -2  13 6994.71 4230.16   4
  12  -2  13-1550.98 3541.96   8
  12   2 -13 1543.40 3578.43   1
  12  -2  13 5072.87 3784.38  16
 -12  -2  14-1314.92 2330.08   5
  12   2  14-991.971 1545.46  16
 -12  -2  14-5567.23 6418.16   2
  12   2  14-194.670 1301.87   8
 -12  -2  14 1651.07 2587.63   4
  12  -2  14 78.8597 2486.86   8
  12   2 -14 1223.53 6064.63   1
  12  -2  14-779.729 4265.49  16
 -12  -2  15 1046.28 2738.70   5
 -12  -2  15-850.115 6935.93   2
 -12  -2  15-297.257 1282.41   4
  12  -2  15-9822.55 5345.68   8
  12  -2  15 938.827 2070.50  16
 -12  -2  16 5196.15 5168.91   5
 -12  -2  16 3879.51 4261.98   2
 -12  -2  16 2063.42 2405.30   4
  12  -2  16 9865.97 5521.61   8
  12   2 -16-1939.06 3900.06   1
  12  -2  16 1037.41 4163.26  16
  12  -2  17 1159.02 3917.37  16
 -12  -2  17 2235.37 2615.33   5
 -12  -2  17 2044.65 2174.31   2
  12  -2  17-1216.52 2729.63   8
  12   2 -17-1670.76 1888.39   1
  12  -2  18 6323.35 9113.92  16
 -12  -2  18 10028.3 8848.61   5
 -12  -2  18 8588.46 9099.01   2
  12  -2  18 7456.47 7953.78   8
   2  12 -18 24318.8 10371.4  18
  12  -2  19 1678.29 3622.62  16
 -12  -2  19 2707.69 3434.11   5
 -12  -2  19 5280.68 7978.94   2
  12  -2  19-1105.24 2141.27   8
   2  12 -19-688.731 8355.63  18
  12   2 -19-637.580 6845.96   1
  12  -2  20 5621.48 6443.04  16
 -12  -2  20 4729.46 5797.89   5
 -12  -2  20 17760.7 12299.2   2
  12  -2  20 6425.87 9493.86   8
   2  12 -20 28081.7 13857.4  18
  12   2 -20-775.951 7330.49   1
  12  -2  21 2900.64 3043.15  16
 -12  -2  21-5045.66 3599.21   5
 -12  -2  21 6774.49 6792.74   2
  12  -2  21 3332.68 4150.95   8
   2  12 -21-2512.57 2178.80  18
  12   2 -21 684.689 4422.91   1
  12  -2  22 3382.45 4527.55  16
 -12  -2  22 7413.33 5620.00   5
   2  12 -22 34476.5 13851.3  11
  -2  12 -22 25003.3 13202.4  11
 -12  -2  22 17647.3 11737.3   2
  12  -2  22 4833.20 8820.16   8
   2  12 -22 11782.7 11045.2  18
  12   2 -22-4147.41 6537.62   1
  12  -2  23 3252.26 2592.93  16
 -12  -2  23-771.033 3300.35   5
   2  12 -23-2247.40 6436.62  11
  -2  12 -23-3335.48 6302.13  11
 -12  -2  23 6296.01 10199.4   2
  12  -2  23-317.957 1740.85   8
   2  12 -23 1243.34 6828.18  18
  12   2 -23-6914.87 11497.8   1
  12  -2  24-2644.64 4923.91  16
   2  12 -24-3098.68 3253.99  11
  -2  12 -24-416.299 1694.86  11
  12  -2  24 1719.35 3060.65   8
  12  -2  25-2987.75 4498.46  16
   2  12 -25 7140.25 7373.66  11
  12  -2  25-1661.03 2508.12   8
  12  -2  26-2968.88 3444.84  16
  12  -2  26-4975.50 4222.14   8
 -12   3   0 8046.66 6661.89   5
  12  -3   0-1217.85 4079.72  14
  12   3   0 1795.05 2363.55  11
  12   3   0 2117.12 4289.40   8
  12  -3   0 1517.53 4830.68   1
 -12   3   0-961.996 3845.96   4
  12   3   0-757.319 1945.71  18
  12  -3   0 619.067 2616.50   6
 -12   3  -1 19812.4 9855.19   5
 -12   3   1 13456.7 6876.49   5
  12  -3   1 2829.74 6359.93  14
  12  -3  -1 6461.89 8967.44  14
  12   3  -1 13419.9 5229.83  11
  12  -3   1 28609.6 11645.0   1
  12   3   1 18321.7 9176.53   8
  12   3  -1 19603.7 9047.07   8
  12  -3  -1 30964.9 13544.3   1
 -12   3  -1 15085.0 6943.35   4
 -12   3   1 16904.2 5055.83   2
 -12   3   1 21904.7 10183.0   4
  12   3   1 22967.1 8345.47  18
  12   3  -1 18768.8 7364.98  18
  12  -3   1 21790.3 8999.85   6
  12  -3  -1 21731.8 8182.12   6
  12  -3  -2 4955.80 5956.11   1
 -12   3  -2 2773.54 5650.65   5
  12  -3   2-410.594 3942.91   1
  12  -3   2-797.589 4311.36  14
 -12   3   2-3952.12 4268.27   5
  12  -3  -2 614.321 3793.40  14
  12   3  -2 6608.22 3983.99  11
  12   3   2 1719.00 2906.00   8
  12   3  -2-1392.21 2310.51   8
 -12   3  -2 704.745 4918.86   4
 -12   3   2 1357.29 3123.85   4
 -12   3   2-914.190 2448.88   2
  12   3   2 2877.63 1667.21  18
  12   3  -2 364.773 3636.60  18
  12  -3  -2 2983.63 3181.31   6
 -12   3  -3 782.064 256.396   5
  12  -3   3 493.356 3759.16  14
  12  -3  -3 2479.55 2155.45   1
 -12   3   3 2480.95 4461.31   5
  12  -3  -3-5611.82 4884.59  14
  12   3  -3 2965.13 4210.85  11
  12   3   3-3490.36 6406.52   8
 -12   3  -3 3091.63 5182.49   4
  12   3  -3 4702.42 4604.93   8
 -12   3   3-613.463 3465.17   4
 -12   3   3-2299.56 2626.99   2
  12   3   3-1600.09 3215.72  18
  12   3  -3-1412.94 3083.56  18
  12  -3   3 242.271 2050.38   1
  12  -3  -3-594.064 1996.15   6
 -12   3  -4-4239.13 6406.95   5
  12  -3   4-40.0626 3007.39  14
 -12   3   4 3952.47 6385.66   5
  12  -3  -4 7690.70 5386.07  14
  12  -3  -4 6404.04 6959.01   1
  12   3   4-1444.54 1106.79   8
 -12   3  -4-4352.44 6305.89   4
  12   3  -4-757.833 3571.97   8
  12  -3   4 2102.59 4069.25   1
 -12   3   4 1142.03 4609.22   4
  12   3   4-765.939 4711.98  18
 -12   3   4 3617.92 2818.46   2
  12  -3  -4-562.026 2815.70   6
 -12   3  -5 10012.9 6319.31   5
  12  -3   5 13545.9 6374.63  14
 -12   3   5 12297.0 7019.65   5
  12  -3  -5 7571.79 6411.05  14
  12  -3   5 3310.54 6798.34   1
  12   3   5 19509.2 10018.5   8
 -12   3  -5 7191.41 6746.87   4
  12  -3  -5 4895.21 6410.18   1
 -12   3   5 9670.92 4686.97   2
  12   3  -5 12611.2 6251.00   8
 -12   3   5 17760.8 10148.6   4
  12   3   5 12269.6 5422.74  18
  12  -3   6-1988.05 5187.23   1
  12  -3   6 187.957 3928.22  14
 -12   3   6 1622.16 399.430   5
  12  -3  -6 4923.97 5771.29  14
  12   3   6 3472.96 4650.49   8
 -12   3  -6 445.352 2499.39   4
  12  -3  -6-3316.82 2453.71   1
  12   3  -6 173.467 2549.87   8
  12   3   6 4945.91 5159.43  18
 -12   3   6-2801.62 5053.09   4
 -12   3  -7 9886.18 4186.49   4
  12   3   7 23196.0 10615.8   8
  12   3   7 23178.9 8753.49  18
  12   3  -7 40949.8 10407.4   8
  12  -3   7 24867.2 8430.17   8
 -12   3  -8 811.885 4011.30   4
  12   3   8-5518.28 5679.16   8
  12   3   8-2046.44 1718.36  18
  12  -3   8 1969.94 2094.79   8
  12   3   9 2208.82 2510.50   8
  12  -3   9 2213.19 3462.09   8
  12   3  10 1381.33 3943.11   8
  12  -3  10-4223.47 3788.44   8
 -12  -3  10 1856.28 2557.20   2
  12   3 -11 2303.31 4403.80   1
  12   3  11 3089.35 5794.16   8
  12  -3  11 6412.36 4738.00   8
 -12  -3  11-234.503 577.423   2
 -12  -3  12-3041.74 3492.24   2
  12   3 -12-949.941 937.844   1
  12  -3  12 286.018 1283.53   8
 -12  -3  13-1152.36 4691.94   2
  12   3 -13 2379.13 2477.44   1
  12  -3  13 1529.01 2343.94   8
 -12  -3  14-5445.33 6559.76   2
  12   3 -14-2904.09 5391.16   1
  12  -3  14 6710.57 4003.84   8
 -12  -3  15-628.119 2354.61   2
  12   3 -15 915.139 392.035   1
  12  -3  15 405.434 2757.96   8
  12  -3  15 568.838 4025.14  16
 -12  -3  16-3975.19 6081.61   2
  12   3 -16-1383.33 4910.44   1
  12  -3  16-882.062 2664.96   8
  12  -3  16-958.753 2235.29  16
 -12  -3  17-1235.04 2412.31   5
 -12  -3  17 4338.52 4914.79   2
  12   3 -17 194.930 4948.11   1
  12  -3  17 1846.45 4542.81   8
  12  -3  17 4206.94 5899.33  16
 -12  -3  18-1445.24 3800.07   5
 -12  -3  18-953.302 2347.37   2
  12   3 -18 413.789 2766.77   1
  12  -3  18-2357.33 3608.57   8
   3  12 -18-2589.49 6347.80  18
  12  -3  18 3123.16 4777.41  16
 -12  -3  19 2021.20 959.523   5
 -12  -3  19 5495.26 7723.89   2
  12   3 -19 53.0248 1881.20   1
  12  -3  19 3054.60 2763.71   8
   3  12 -19 12245.0 14769.3  18
  12  -3  19 1463.44 6840.55  16
 -12  -3  20 1303.88 1702.23   5
 -12  -3  20 5188.54 5855.66   2
  12   3 -20-602.437 5300.35   1
  12  -3  20-556.894 2593.97   8
  12  -3  20 2677.93 5067.56  16
 -12  -3  21 2974.01 3804.87   5
 -12  -3  21 3040.19 4018.62   2
  12  -3  21 906.212 5466.16   8
   3  12 -21 13882.8 10865.8  18
  12  -3  21 972.092 3397.65  16
 -12  -3  22 951.044 2877.51   5
 -12  -3  22-714.020 4627.60   2
   3  12 -22-4625.13 11123.1  11
  -3  12 -22-2957.97 6674.38  11
  12   3 -22 4506.31 7551.43   1
  12  -3  22 2059.14 4595.01   8
   3  12 -22 2172.49 5104.32  18
  12  -3  22-1287.00 4724.48  16
 -12  -3  23 430.982 2082.57   5
 -12  -3  23 3501.32 6600.58   2
   3  12 -23 327.047 4539.17  11
  12   3 -23 11753.0 12243.5   1
  12  -3  23 3507.57 891.691   8
   3  12 -23 2684.91 3352.94  18
  12  -3  23-1517.39 2309.26  16
 -12  -3  24 7099.56 17041.5   2
   3  12 -24 2875.32 8549.36  11
  12  -3  24 1163.59 4347.92   8
  12  -3  24-3680.59 5110.77  16
 -12  -3  25 3577.61 6961.33   2
   3  12 -25 1043.31 4674.93  11
  12   3 -25 10839.7 9346.04   1
  12  -3  25 1029.35 6945.50   8
  12  -3  25 140.831 1903.84  16
  12  -3  26 11195.9 8445.65  16
  12  -3  26 2461.45 3735.74   8
  12  -3  27-271.148 4018.30  16
  12  -3  27 486.937 5926.81   8
  12  -3  28 2235.57 6285.83  16
  12  -3  28 4019.65 5418.02   8
  12  -3  29 912.967 7628.06  16
  12  -4   0 11765.9 12881.2   1
 -12   4   0 48995.2 14065.2   5
  12  -4   0 10851.6 10625.9  14
  12   4   0 39372.7 13825.6   8
 -12   4   0 63894.7 17602.0   4
  12   4   0 55870.5 15251.3  18
  12  -4   0 18964.2 12399.8   6
  12  -4   1 1390.58 2863.56   1
 -12   4  -1-5026.86 7241.35   5
 -12   4   1 3174.27 3559.51   5
  12  -4   1 1580.69 3902.58  14
  12  -4  -1 4938.34 5139.97  14
  12  -4  -1-2405.50 3960.59   1
  12   4   1-4154.10 5848.57   8
  12   4  -1-553.599 3647.68   8
 -12   4  -1 2808.59 4970.02   4
 -12   4   1 463.203 2061.93   4
  12   4   1 437.285 2062.43  18
  12   4  -1 3639.65 5024.28  18
  12  -4   1 5203.62 3806.59   6
  12  -4  -1 7375.44 5670.68   6
 -12   4  -2 11900.7 4523.99   5
  12  -4   2 2182.44 5358.97  14
 -12   4   2 24492.6 9961.15   5
  12  -4  -2 162.059 4192.05  14
  12   4   2 6378.19 3705.92   8
  12   4  -2 16908.1 7617.03   8
  12  -4  -2 13442.9 7089.39   1
 -12   4  -2 22021.0 10073.0   4
  12  -4   2 3724.83 7821.54   1
 -12   4   2 14271.8 9076.93   4
  12   4   2 9913.11 5810.04  18
  12   4  -2 11942.8 6631.80  18
  12  -4   2 7848.45 5973.14   6
  12  -4  -2 5311.17 7000.57   6
 -12   4  -3 10866.5 8043.60   5
  12  -4   3 1221.68 1282.05  14
 -12   4   3-1031.90 4016.46   5
  12  -4  -3 448.999 3446.08  14
  12   4  -3 4676.79 4940.69  11
  12   4   3 338.082 6434.15   8
  12  -4   3-3197.16 2371.63   1
  12   4  -3 5357.89 5573.70   8
 -12   4  -3 568.569 1540.45   4
  12   4   3 10439.8 6947.78  18
 -12   4   3 2153.29 2564.96   4
  12   4  -3 2021.40 2608.04  18
  12  -4   3-5552.10 5837.74   6
  12  -4  -3 9960.53 7554.39   1
 -12   4  -4-1775.39 3941.95   5
  12  -4   4 286.166 3765.38   1
  12  -4   4 2765.90 4807.65  14
  12   4  -4-1522.15 3313.27  11
  12   4   4 8649.30 6795.82   8
  12   4  -4-1188.04 2845.53   8
 -12   4  -4 4277.62 2956.50   4
  12   4   4 3360.24 2497.08  18
  12   4  -4 9.31643 1539.84  18
  12  -4   4 3757.63 3436.03   6
 -12   4  -5 2658.51 7706.04   5
  12  -4   5-1714.76 3678.42  14
  12   4  -5 69.8314 2872.40  11
  12   4   5 7341.82 7741.26   8
 -12   4  -5 298.163 4473.07   4
  12   4  -5 8292.74 6252.45   8
  12   4   5 5934.36 3755.53  18
  12   4  -5 2440.35 2259.60  18
  12  -4   5-2399.70 5580.59   1
 -12   4  -6 8541.59 6017.51   5
  12  -4   6 539.422 5614.67  14
  12   4  -6 10571.7 5946.53  11
  12   4   6 8522.55 4327.13   8
 -12   4  -6 11417.9 9331.46   4
  12   4  -6 11055.8 6184.17   8
  12  -4   6 3154.59 9023.67   1
  12   4   6 7896.22 4800.78  18
  12   4  -6 5192.98 4917.48  18
 -12   4  -7-4450.50 4774.43   5
  12  -4   7-342.064 2817.22  14
  12  -4   7 2751.02 4089.29   1
  12   4  -7 6803.77 5575.22  11
 -12   4  -7 565.104 2323.29   4
  12   4  -7-667.526 3345.68   8
  12  -4   8-895.664 4088.67   1
  12  -4   8-780.082 3039.13  14
 -12   4  -8 2337.81 4499.45   4
  12   4  -8 4867.71 3701.08   8
  12  -4   9 3196.05 4616.44  14
 -12   4  -9 610.322 2352.41   4
 -12   4 -10 4788.97 4105.68   4
  12  -4  11-2222.13 1257.28   8
  12  -4  12 3930.18 2133.17   8
  12  -4  13 5385.76 4272.01   8
  12  -4  14 369.151 1420.25   8
 -12  -4  14-2884.05 3915.06   2
  12  -4  15-1174.96 2200.57   8
 -12  -4  15 2152.62 3742.90   2
  12  -4  16 2799.63 3481.01   8
 -12  -4  16 5551.03 7198.76   2
 -12  -4  17 4203.97 6418.14   2
  12  -4  17-394.639 1917.56   8
 -12  -4  18 1204.84 3600.60   2
  12  -4  18 180.206 4481.26   8
   4  12 -18-558.100 6919.54  18
 -12  -4  19 5573.69 4775.38   2
  12  -4  19-1842.29 4708.33   8
   4  12 -19-5713.40 7729.03  18
  12  -4  19-4344.60 6865.31  16
 -12  -4  20 5366.12 5483.87   2
  12   4 -20 1880.85 4202.37   1
   4  12 -20 7150.52 8296.62  18
  12  -4  20 5830.80 4663.23   8
  12  -4  20 869.483 2319.91  16
 -12  -4  21 8182.54 7768.02   2
  12   4 -21 5017.88 8640.25   1
  12  -4  21-291.924 3456.69   8
   4  12 -21-511.418 4117.70  18
  12  -4  21-1406.17 4218.88  16
 -12  -4  22-496.733 4169.08   2
  12   4 -22 49.2209 545.828   1
   4  12 -22 531.495 6585.91  11
  12  -4  22 1283.38 4060.56   8
   4  12 -22-453.496 4294.49  18
  12  -4  22 791.987 3672.09  16
 -12  -4  23 2356.59 4475.74   2
  12   4 -23 4919.68 7607.97   1
   4  12 -23-6126.44 11015.0  11
  12  -4  23 966.735 4711.08   8
   4  12 -23 8181.42 7552.23  18
  12  -4  23 3857.67 5202.12  16
 -12  -4  24 2223.66 1619.12   2
  12   4 -24 96.1262 7686.63   1
   4  12 -24 661.225 3212.50  11
  12  -4  24 889.877 744.274   8
  12  -4  24 2956.03 5066.93  16
  12   4 -25-1866.49 3354.16   1
 -12  -4  25 896.912 2778.22   2
   4  12 -25-3078.82 3450.83  11
  12  -4  25 1672.09 2676.49   8
  12  -4  25-4834.24 6181.95  16
  12   4 -26 1207.29 7238.30   1
 -12  -4  26 1656.11 4209.82   2
  12  -4  26 6040.44 7151.84   8
  12  -4  26 2984.78 5246.06  16
  12   4 -27 1144.20 6440.30   1
 -12  -4  27-1192.81 3168.88   2
  12  -4  27 542.196 2974.34   8
  12  -4  27-1022.93 434.415  16
 -12  -4  28 5796.77 7513.41   2
  12  -4  28 1548.92 4842.30   8
  12  -4  28 2768.44 2609.75  16
  12  -4  29 2060.12 9218.82  16
  12  -4  30 24191.4 12000.9  16
  12  -4  31-1687.34 2215.34  16
 -12   5   0-305.594 757.482   5
  12   5   0 3265.45 3806.83   8
 -12   5   0-1109.22 3277.05   4
  12   5   0-3704.84 6145.91  18
  12  -5   0 327.805 6398.72   1
 -12   5  -1 33084.8 12065.5   5
  12  -5   1 2634.72 6170.84  14
  12   5   1 25740.9 11654.1  18
  12   5   1 16148.8 7953.99   8
  12   5  -1 23563.8 9507.09   8
  12  -5   1 4370.06 5847.40   1
 -12   5  -1 31901.1 12942.6   4
  12   5  -1 21896.5 9781.55  18
  12  -5   1 5512.38 8975.46   6
 -12   5  -2 8072.76 6093.17   5
  12  -5   2 4679.08 7202.37  14
  12  -5   2 2749.42 7740.78   1
  12   5   2 401.812 2038.86   8
  12   5  -2 6326.17 6692.26   8
 -12   5  -2 1644.56 5213.10   4
  12   5   2-2275.10 4829.77  18
  12   5  -2-4211.67 4187.34  18
  12  -5   2 2301.23 3674.76   6
  12  -5   3-158.703 4223.99   1
 -12   5  -3-325.125 3796.22   5
  12  -5   3 2527.01 3695.33  14
  12   5  -3 7285.77 6780.75   8
  12   5  -3 8524.84 8676.96  18
 -12   5  -3 2467.14 3429.19   4
  12   5   3 1288.93 4583.34  18
  12  -5   3 4705.65 3538.55   6
  12  -5   4-2309.44 4299.89   6
 -12   5  -4 1800.10 2751.10   5
  12  -5   4 2891.93 6440.64  14
  12  -5   4 2822.18 6316.92   1
  12   5  -4 1874.74 3899.41   8
 -12   5  -4-1214.45 7226.02   4
  12   5   4-100.093 1241.45  18
  12   5  -4 1404.16 5197.62  18
 -12   5  -5 8345.33 6860.38   5
  12  -5   5-1190.24 1373.81  14
  12  -5   5 1774.17 2322.10   1
  12   5  -5-1717.73 3948.13   8
 -12   5  -5 1689.91 2193.08   4
  12   5  -5 1899.09 4325.12  18
  12  -5   5 2214.84 3478.18   6
 -12   5  -6 6500.83 5595.88   5
  12  -5   6 6754.08 10141.1   1
  12  -5   6 8315.55 7801.70  14
  12   5  -6-485.017 2108.05  11
  12   5  -6 3833.88 2630.32   8
 -12   5  -6-1899.06 6347.95   4
  12   5  -6 5848.50 1737.93  18
  12  -5   6 173.573 4139.49   6
 -12   5  -7 11632.6 7910.69   5
  12  -5   7 1362.38 5953.89  14
  12   5  -7 9594.53 4600.50  11
 -12   5  -7 10090.4 9656.39   4
  12   5  -7 10266.6 6352.28   8
  12  -5   7 5200.20 7238.48   1
  12   5  -7 5405.03 6487.24  18
 -12   5  -8-1219.78 3012.19   5
  12  -5   8 786.031 2322.40  14
  12   5  -8 3356.67 4591.29  11
 -12   5  -8 6241.71 5732.07   4
  12  -5   8 3111.01 5205.93   1
  12   5  -8 2407.88 2468.50   8
  12   5  -8 6100.30 4068.67  18
 -12   5  -9 279.309 1178.01   5
  12  -5   9 485.919 1763.08  14
  12  -5   9-3260.24 3732.66   1
  12   5  -9-527.260 3607.96  11
 -12   5  -9-244.135 2845.68   4
  12   5  -9 594.164 2093.69   8
  12   5  -9 11.4552 2520.63  18
  12  -5  10-11042.1 6169.02  14
 -12   5 -10 4956.85 4262.86   4
  12  -5  11-2612.73 4597.86  14
 -12   5 -11 1694.05 3807.79   4
 -12   5 -12 2473.74 4658.76   4
  12  -5  16 2812.20 3627.89   8
   5  12 -17-7508.28 12356.6  18
  12  -5  17-2149.50 1706.38   8
   5  12 -18 5802.53 9575.46  18
  12  -5  18-346.206 4100.45   8
  12  -5  19 247.232 1554.10   8
   5  12 -19 1393.92 3683.71  18
  12  -5  20 936.165 1628.41   8
   5  12 -20 6041.16 7797.86  18
 -12  -5  20 908.273 2957.77   2
   5  12 -21 651.633 5800.61  11
  12  -5  21 3895.75 5493.93   8
   5  12 -21 5444.60 5776.44  18
 -12  -5  21 55.0918 4035.11   2
   5  12 -22-10962.1 13810.9  11
  12  -5  22 2723.62 3613.58   8
   5  12 -22-899.176 2990.30  18
 -12  -5  22 273.022 2032.41   2
   5  12 -23-1961.35 6334.71  11
  12  -5  23 1293.44 681.295   8
   5  12 -23-2232.53 3191.75  18
 -12  -5  23-1533.59 5117.19   2
   5  12 -24-5368.76 132.602  11
 -12  -5  24-630.840 3010.92   2
   5  12 -25 1547.45 6038.51  11
  12  -5  25 2484.65 4756.39   8
 -12  -5  25 613.864 3336.61   2
  12  -5  26 3135.93 6768.01   8
  12  -5  26-3526.67 7057.31  16
 -12  -5  26 2781.31 6096.41   2
 -12  -5  27 157.273 1559.32   2
  12  -5  27 503.270 4909.62   8
  12  -5  27 2841.13 6741.92  16
 -12  -5  28 301.487 3474.43   2
  12  -5  28 2935.79 5040.03  16
 -12  -5  29-523.381 4918.82   2
  12  -5  29 1030.26 10219.6  16
 -12  -5  30-384.764 4308.06   2
  12  -5  30 8014.99 13059.6  16
  12  -5  31 12877.4 15576.0  16
  12  -5  32 38573.0 17478.1  16
  12  -5  33 33941.1 15644.5  16
  12   6   0 18951.6 9831.39   8
  12   6   0 17925.0 9215.58  18
  12   6  -1 7245.42 8443.09   8
  12   6   1 5842.15 7414.41  18
  12   6  -1 2144.67 3692.76  18
  12   6  -2 7365.81 6438.61   8
  12   6  -2 931.228 6654.42  18
 -12   6  -3 4075.84 4544.30   5
  12   6  -3-2164.60 3265.39   8
  12  -6   3-338.586 4774.79   1
 -12   6  -3 1004.28 7245.07   4
  12   6  -3-3650.52 6257.12  18
  12  -6   3 1743.37 4331.40   6
 -12   6  -4 5931.23 6910.34   5
  12  -6   4 2749.37 3213.27  14
  12  -6   4 4412.20 7260.63   1
  12   6  -4-1330.59 4730.93   8
 -12   6  -4 5461.02 8064.30   4
  12   6  -4 1528.80 1914.15  18
  12  -6   4-2782.56 2365.19   6
  12  -6   5-467.745 1464.29   1
 -12   6  -5-1198.24 4568.79   5
  12  -6   5 675.508 1667.48  14
  12   6  -5 2377.98 4880.31   8
 -12   6  -5-2672.75 7050.73   4
  12   6  -5 779.235 1424.02  18
  12  -6   5 2167.00 4879.71   6
 -12   6  -6 9857.39 7048.98   5
  12  -6   6 5864.62 6124.89  14
  12   6  -6 12989.5 7639.43   8
 -12   6  -6 15944.4 8550.73   4
  12  -6   6-168.304 5070.03   1
  12   6  -6 14484.0 9102.00  18
  12  -6   6 5774.27 6695.64   6
 -12   6  -7 8494.76 9139.20   5
  12  -6   7 2108.77 6332.08  14
  12  -6   7 3419.25 6509.22   1
  12   6  -7-4197.56 4786.83   8
 -12   6  -7-7812.67 7102.09   4
  12   6  -7-1689.94 4406.69  18
  12  -6   7 9683.23 7107.36   6
  12  -6   8 1704.48 5924.38   1
 -12   6  -8 7141.97 8211.17   5
  12  -6   8 10411.9 7100.77  14
  12   6  -8-3669.90 8293.89  11
  12   6  -8 9656.26 5272.20   8
 -12   6  -8-2308.64 5867.23   4
  12   6  -8 4947.55 5349.72  18
 -12   6  -9 3178.91 3854.13   5
  12  -6   9 1236.00 5316.57  14
  12   6  -9 381.821 7704.13  11
 -12   6  -9 3048.96 6963.55   4
  12  -6   9-2306.23 7732.37   1
  12   6  -9 2645.17 1675.41  18
 -12   6 -10 4082.29 6476.54   5
  12  -6  10 2897.91 5037.20  14
  12   6 -10-4.29327 6098.99  11
 -12   6 -10-6826.18 8454.28   4
  12   6 -10-3316.32 3415.45  18
  12  -6  11-4334.85 6326.30  14
  12   6 -11-2263.71 4076.92  11
 -12   6 -11-1525.14 1860.64   4
  12   6 -11 774.155 2346.08  18
  12  -6  12 3.60481 1602.22  14
  12   6 -12-22.7149 5286.19  11
 -12   6 -12-4376.83 6309.57   4
  12  -6  13 37.0643 2394.75  14
 -12   6 -13-1360.46 4603.90   4
   6  12 -17-3271.05 19852.5  18
   6  12 -18-7336.90 9787.58  18
   6  12 -19-5872.84 9942.40  18
   6  12 -20-442.988 2695.93  18
   6  12 -21-3632.98 13045.9  11
   6  12 -21-321.738 1255.13  18
   6  12 -22-1542.74 7585.61  11
   6  12 -22 2143.79 7599.66  18
   6  12 -23-13678.5 12605.1  11
   6  12 -23 2159.49 1930.32  18
   6  12 -24 4267.65 5505.35  11
  12   7  -2 4785.28 3868.10  18
  12   7  -3 7645.92 6677.24   8
  12   7  -3 4571.44 5923.82  18
  12   7  -4 4097.49 5108.63   8
  12   7  -4-1758.18 1808.37  18
  12   7  -5 12828.4 6679.68   8
  12   7  -5 25442.5 11668.4  18
 -12   7  -6 7748.37 7604.13   5
  12  -7   6-2184.61 283.016  14
  12  -7   6 235.555 2737.22   1
  12   7  -6 553.605 5858.91   8
 -12   7  -6-1444.59 4017.34   4
  12   7  -6 115.961 2563.97  18
  12  -7   6-2438.30 3796.08   6
  12  -7   7-12336.1 7265.42   1
 -12   7  -7 6755.85 3037.13   5
  12  -7   7 2319.09 4407.06  14
  12   7  -7 18510.4 8353.46   8
 -12   7  -7 26501.9 13113.2   4
  12   7  -7 25258.9 13613.5  18
  12  -7   7-5858.86 4672.87   6
 -12   7  -8-7306.48 7324.63   5
  12  -7   8 6981.98 7021.75  14
  12  -7   8 10112.8 8485.94   1
 -12   7  -8 2457.40 3173.13   4
  12   7  -8-2781.53 4523.32  18
  12  -7   8 17.3233 4784.10   6
 -12   7  -9 13848.0 8498.36   5
  12  -7   9 11146.7 9450.52  14
  12  -7   9 4409.54 11454.2   6
  12   7  -9 5274.14 4259.26  18
 -12   7 -10 2030.97 5766.35   5
  12  -7  10 2551.18 4544.49  14
  12   7 -10 290.632 7925.62  11
 -12   7 -10-1976.69 4331.77   4
  12   7 -10 1209.28 7414.49  18
 -12   7 -11-2542.59 5728.83   5
  12  -7  11-760.381 5369.25  14
  12   7 -11-2002.62 5926.65  11
 -12   7 -11-1910.46 4072.68   4
  12   7 -11 464.157 1834.71  18
  12  -7  12 49.2782 6981.72  14
  12   7 -12-284.109 6537.28  11
 -12   7 -12-9193.65 7203.60   4
  12   7 -12 335.037 4706.48  18
  12  -7  13 22.6829 2783.09  14
  12   7 -13 2925.79 289.814  11
 -12   7 -13-1625.12 1733.68   4
  12   7 -13-1860.83 3849.15  18
  12  -7  14 16.3019 3369.85  14
 -12   7 -14-5670.47 5018.40   4
  12   7 -14-327.009 2736.50  11
   7  12 -18-8063.55 9854.50  18
   7  12 -19 7663.38 5085.48  18
   7  12 -20 24316.9 17086.8  11
   7  12 -20 508.918 1441.85  18
   7  12 -21 318.401 3396.17  11
   7  12 -21 3282.32 7401.28  18
   7  12 -22-777.963 9674.10  11
   7  12 -22-20976.6 10362.0  18
   7  12 -23-846.986 8894.99  11
   7  12 -24 2649.90 6782.49  11
  12   8  -4 8671.56 10624.8  18
  12   8  -5-1971.03 5053.40   8
  12   8  -5-2270.54 4930.58  18
  12   8  -6 15968.9 8733.06   8
  12   8  -6 18654.7 11055.1  18
  12   8  -7-4034.97 6532.98  18
 -12   8  -8 19081.1 11505.1   4
  12   8  -8 18059.6 8989.46  18
  12  -8   8 5702.07 8003.50   6
 -12   8  -9-3720.41 5871.39   5
  12  -8   9 1198.50 4272.74  14
 -12   8  -9 3939.23 5199.95   4
  12   8  -9 3711.53 6062.55  18
  12  -8   9 1342.17 4008.47   6
 -12   8 -10-307.211 1961.74   5
  12  -8  10-112.958 8448.35  14
 -12   8 -10-43.0550 5518.34   4
  12   8 -10-7530.75 5310.80  18
  12  -8  10 10302.7 7865.98   6
  12  -8  11 1218.47 8633.00  14
 -12   8 -11-11745.6 8454.36   4
  12   8 -11 8287.44 9343.72  18
  12  -8  12-4639.96 7596.58  14
  12   8 -12-2181.11 7079.65  11
 -12   8 -12 1490.74 5826.57   4
  12   8 -12 1942.68 2982.01  18
  12  -8  13 31.2111 5834.19  14
  12   8 -13-137.478 5897.95  11
 -12   8 -13 3478.28 2303.48   4
  12   8 -13-831.832 5389.65  18
  12  -8  14-13.9511 5679.28  14
  12   8 -14 1999.99 8018.50  11
 -12   8 -14 699.896 5140.34   4
  12   8 -14 1503.78 7280.34  18
  12  -8  15-386.242 5263.95  14
  12   8 -15-199.508 4265.50  11
 -12   8 -15-433.963 4301.16   4
  12  -8  16 116.310 1855.79  14
 -12   8 -16 4683.18 3032.84   4
   8  12 -17 27614.4 19147.4  18
   8  12 -18 12462.4 12164.0  18
   8  12 -19-3168.73 3265.75  18
   8  12 -20 4926.20 17093.7  11
   8  12 -20-776.931 9961.71  18
   8  12 -21-1575.32 9570.77  11
   8  12 -21-406.948 6156.35  18
   8  12 -22 768.723 6890.77  11
   8  12 -22 1347.53 6440.66  18
   8  12 -23 4437.96 9671.55  11
  12   9  -7 18878.5 12277.9  18
  12   9  -8 7.46962 4001.65  18
  12   9  -9 13352.2 11352.4  18
  12   9 -10 7545.62 10007.1  18
 -12   9 -11 599.373 7092.60   4
  12   9 -11-1031.03 4395.43  18
  12  -9  11-95.7910 3867.25   6
  12  -9  12 2028.36 15049.9  14
 -12   9 -12-4830.72 8653.15   4
  12   9 -12 6322.60 8330.97  18
  12  -9  13 7788.89 11795.5  14
  12   9 -13 13595.1 6721.85  11
 -12   9 -13 5638.57 7099.95   4
  12   9 -13 12438.5 7887.55  18
  12  -9  14-256.025 2400.01  14
  12   9 -14 628.482 3078.68  11
 -12   9 -14-916.576 4103.47   4
  12   9 -14 582.075 5843.84  18
  12  -9  15 18.9591 2234.39  14
  12   9 -15 1528.94 9523.24  11
 -12   9 -15 6107.68 6905.71   4
  12   9 -15-589.366 7764.24  18
  12  -9  16 46.6054 6438.08  14
  12   9 -16 198.520 6633.94  11
 -12   9 -16-4939.01 4969.68   4
  12   9 -16-1266.80 1812.35  18
  12  -9  17 151.381 581.995  14
 -12   9 -17 2493.07 5644.38   4
  12   9 -17 556.966 3964.97  11
   9  12 -17-3560.12 10624.0  18
   9  12 -18-4763.92 8453.40  18
   9  12 -19 11115.2 11434.6  11
   9  12 -19 2865.14 6634.21  18
   9  12 -20-2825.42 10648.0  11
   9  12 -20-925.721 3147.20  18
   9  12 -21-227.727 5303.42  18
   9  12 -21 4131.88 4354.51  11
   9  12 -22-769.257 3913.03  11
   9  12 -22-269.231 1811.97  18
   9  12 -23 971.876 4579.95  11
  12  10 -10-2717.51 4055.64  18
  12  10 -11 4921.30 11923.3  18
  12  10 -12 14387.0 7092.50  18
  12  10 -13-335.654 6356.39  18
  12  10 -14 28446.5 14983.9  11
 -12  10 -14 28762.2 14864.0   4
  12  10 -14 34672.4 13970.4  18
  12 -10  15-822.540 8626.56  14
  12  10 -15 1129.73 2660.10  11
 -12  10 -15-5513.15 6710.03   4
  12  10 -15-1769.06 6277.04  18
  12 -10  16 731.783 6137.29  14
  12  10 -16 850.058 8420.78  11
 -12  10 -16-4716.32 5821.21   4
  12  10 -16 279.965 3037.46  18
  12  10 -17 688.850 4175.97  11
  10  12 -17-5175.84 6573.37  18
  12  10 -17-33.5424 6271.38  18
  12  10 -18-2233.99 7423.94  11
  10  12 -18 1183.89 2741.42  18
  10  12 -19-1051.60 13002.6  11
  10  12 -19 79.1497 5828.35  18
  10  12 -20 156.681 5694.80  11
  10  12 -20-822.112 2582.51  18
  10  12 -21 1049.10 9696.52  11
  10  12 -21-695.538 513.434  18
  10  12 -22 552.095 7375.23  11
  12  11 -13 43904.5 19738.4  18
  12  11 -14 7820.28 6067.10  18
  12  11 -15 23242.7 13994.7  18
  12  11 -16-965.323 11407.6  11
  12  11 -16-2168.65 3880.92  18
  12  11 -17 138.236 5272.06  11
  11  12 -17 6356.75 5230.71  18
  12  11 -17 765.725 7477.11  18
  11  12 -18 470.447 11245.8  11
  12  11 -18 846.737 11789.3  11
  11  12 -18-1039.03 9542.81  18
  12  11 -18-1091.76 3303.07  18
  11  12 -19 667.707 2779.06  18
  11  12 -19 5106.55 6912.76  11
  12  11 -19 877.094 9895.24  11
  11  12 -20 514.462 7733.34  11
  12  11 -20 195.381 8565.29  11
  11  12 -20 234.329 1322.47  18
  11  12 -21 313.695 999.467  11
  11  12 -22 3786.87 11770.0  11
  12  12 -17 2451.54 14547.8  11
  12  12 -17-15573.3 10900.4  18
  12  12 -18 1755.29 11744.4  11
  12  12 -18 1895.34 8353.27  18
  12  12 -19 403.120 7085.32  11
  12  12 -19 1119.22 1324.18  18
  12  12 -20 64.4689 7967.37  11
  12  12 -20-2820.70 4157.09  18
  12  12 -21 1705.61 10267.2  11
 -13   0   0 5526.64 5670.05   4
  13   0   0-2960.05 2402.92   8
  13   0  -1 10731.4 5617.59   1
 -13   0   1 596.848 1540.06   4
  13   0   1 16620.7 7999.93   8
  13   0  -1 6829.38 4890.96   8
  13   0  -2 1233.07 3108.56   1
 -13   0   2-513.361 3990.00   4
  13   0   2-3477.17 3433.60   8
 -13   0   3 10076.6 6096.47   5
  13   0  -3 14537.3 7921.73   1
 -13   0   3 7666.10 4125.60   4
  13   0   3 20941.0 8409.52   8
 -13   0   3 12745.6 6230.09   2
 -13   0   4-901.137 1317.15   2
 -13   0   4-186.718 3103.57   5
 -13   0   4-2318.57 5202.93   4
  13   0  -4-483.813 4238.32   1
  13   0   4-60.8894 3345.33   8
 -13   0   5 37296.7 11586.3   5
 -13   0   5 54078.7 12690.3   2
  13   0   5 59921.4 14911.9   8
 -13   0   5 41519.3 11895.4   4
  13   0  -5 79399.6 19669.4   1
 -13   0   6 2135.74 3507.68   2
 -13   0   6-2667.43 2813.84   4
  13   0   6 1055.29 1348.84   8
 -13   0   7 54688.7 14688.0   5
  13   0  -7 64592.9 14427.0  14
 -13   0   7 72127.1 18066.9   4
  13   0   7 69752.6 16008.1   8
 -13   0   7 73810.0 15164.2   2
  13   0  -7 105975. 24931.2   1
 -13   0   8-1905.94 5429.84   5
  13   0  -8 5199.54 6121.38  14
 -13   0   8 1080.16 1137.55   2
 -13   0   8-94.1258 3578.77   4
  13   0   8-820.634 2106.99   8
  13   0  -8-1588.31 4559.94   1
  13   0  -9 27356.6 15240.2   1
 -13   0   9 33120.8 12194.2   5
  13   0  -9 28974.9 9190.54  14
 -13   0   9 47913.9 13792.3   2
  13   0   9 38592.1 14354.2   8
 -13   0   9 47287.5 14302.8   4
 -13   0  10-3244.10 6391.37   5
  13   0 -10-4195.18 8165.64   1
  13   0 -10 2532.99 3977.27  14
 -13   0  10 3216.38 3177.87   2
  13   0  10-3728.70 3777.03   8
 -13   0  10 2936.83 1394.46   4
 -13   0  11-832.943 6077.00   5
  13   0 -11 307.342 3545.83  14
  13   0 -11 2754.17 11027.3   1
 -13   0  11 18220.0 9522.64   2
  13   0  11 17543.0 7315.84   8
 -13   0  11 8887.73 6455.69   4
 -13   0  12 4123.74 3164.58   5
  13   0 -12 1040.60 4159.09  14
  13   0 -12 12833.2 16288.1   1
 -13   0  12-789.019 2283.78   2
  13   0  12 5024.65 4522.30   8
 -13   0  12 1989.27 7405.06   4
 -13   0  13 1257.34 2142.62   5
  13   0 -13-3363.43 4487.57  14
  13   0 -13-3680.25 7753.16   1
 -13   0  13-4413.78 5486.68   2
  13   0  13-5428.01 5094.14   8
 -13   0  13-6080.62 6083.17   4
 -13   0  14 2901.44 1829.97   5
  13   0 -14-4149.81 4223.96  14
  13   0 -14 4513.67 4380.65   1
 -13   0  14 1649.51 1148.04   2
  13   0  14-5350.05 5776.68   8
 -13   0  14-1180.05 3790.05   4
 -13   0  15 12436.3 6580.87   5
  13   0 -15 2375.46 3980.78  14
  13   0 -15 1788.29 6055.58   1
  13   0  15 9805.30 6296.97   8
 -13   0  15 3964.96 5177.13   2
 -13   0  15 11790.5 6970.78   4
 -13   0  16-2360.08 2697.83   5
  13   0 -16-11758.2 5895.83  14
  13   0  16 3684.98 5306.31   8
 -13   0  16 6472.41 9179.70   2
  13   0 -16 3418.11 6821.28   1
 -13   0  16 3114.35 3528.39   4
  13   0  17 29499.2 11222.7  16
  13   0  17 46851.8 15656.5   8
  13   0  18 2836.99 8731.86  16
  13   0  18 10202.7 5134.76   8
  13   0  19 18457.0 13433.9  16
  13   0  19 50804.6 16549.7   8
  13   0  20 2401.85 6378.14  16
  13   0  20 10401.6 7040.51   8
  13   0  21 87343.8 23594.8   8
  13   0  21 17561.9 24390.8  16
   0  13 -23 26903.6 11673.2  11
   0  13 -24-8704.61 12371.8  11
   0  13 -25 2899.12 3200.82  11
   0  13 -26 5976.90 9505.32  11
 -13   1   0 1132.67 1855.43   5
  13  -1   0 964.415 1808.04   1
 -13   1   0-249.661 1072.32   4
  13   1   0 2792.13 2957.13   8
 -13   1   1 1460.60 1251.57   5
  13  -1  -1 29.4347 3300.43  14
  13  -1   1-3718.01 7740.52   1
 -13   1  -1 1187.43 3547.80   4
 -13   1   1 5423.38 5257.75   4
  13  -1  -1 3527.35 4587.68   1
  13   1   1-873.743 827.304   8
  13   1  -1 2117.39 3696.05   8
 -13   1   2 7032.01 4840.15   2
 -13   1   2 3373.19 2693.89   5
  13  -1  -2 1855.36 1711.09  14
 -13   1  -2 3429.34 1925.37   4
 -13   1   2 6817.54 7111.43   4
  13   1   2 7337.81 4976.49   8
  13  -1  -2 11888.0 9904.80   1
  13   1  -2 10202.3 4707.17   8
  13  -1   2 8355.07 4989.65   8
 -13   1   3-2000.10 1829.88   5
 -13   1   3 39.3230 1302.40   2
  13  -1  -3 6384.96 5256.35  14
 -13   1  -3 3982.13 5205.87   4
 -13   1   3-146.213 7206.80   4
  13   1   3-4016.78 4449.58   8
  13  -1   3 256.831 2836.74   8
  13   1  -3 1646.30 3518.13   8
  13  -1  -3 2310.45 3562.80   1
 -13   1   4 27584.8 11829.6   5
  13   1  -4 22599.2 10448.2   1
  13  -1  -4 21749.5 8885.88  14
 -13   1   4 25502.1 8162.82   2
 -13  -1   4 8741.69 3612.95   4
 -13   1   4 30252.8 13470.2   4
  13   1   4 25423.9 9686.24   8
  13  -1   4 27049.0 9784.05   8
  13  -1  -4 43042.0 15528.4   1
  13  -1  -5 7601.95 6247.01   1
 -13   1   5-3475.52 2676.19   5
  13  -1  -5 2848.18 4567.82  14
  13   1  -5 932.773 2325.00   1
 -13   1   5-2554.39 863.066   2
 -13  -1   5-5823.53 5405.56   4
  13   1   5 3812.76 4600.91   8
 -13   1   5-1120.10 377.208   4
 -13   1   6 66898.2 17400.8   5
  13  -1  -6 58282.9 14301.4  14
  13  -1  -6 63295.5 19089.2   1
  13   1  -6 70748.8 17711.4   1
  13   1   6 75794.9 16436.9   8
 -13  -1   6 27630.4 8827.67   4
  13  -1   6 60899.2 13518.8   8
 -13   1   6 50242.2 15790.2   4
 -13   1   6 81860.3 16595.8   2
 -13  -1   6 36631.3 10998.9   2
 -13  -1   7-466.998 3341.51   5
 -13  -1   7 1803.55 1911.75   2
 -13   1   7-9851.58 8941.70   5
  13  -1  -7-736.444 2941.39  14
  13  -1  -7 2231.88 2620.42   1
 -13  -1   7 102.742 2157.07   4
  13   1  -7-8031.99 6132.17   1
 -13   1   7 1370.97 4394.64   2
  13   1   7-4885.56 3960.09   8
 -13   1   7-5180.10 7794.98   4
  13  -1   7-8112.82 5696.97   8
 -13  -1   8 25635.3 9067.06   5
 -13  -1   8 36553.5 11740.8   2
 -13   1   8 70803.0 18315.7   5
  13  -1  -8 34767.5 10489.6  14
  13  -1   8 64171.4 14308.2   8
 -13  -1   8 26499.5 8810.00   4
  13  -1  -8 59018.5 18819.8   1
 -13   1   8 62312.0 16387.9   2
  13   1   8 56508.0 14528.4   8
  13   1  -8 55558.3 16239.8   1
 -13   1   8 73018.8 18674.3   4
 -13  -1   9-360.557 2776.13   5
 -13  -1   9 3763.93 4950.57   2
 -13   1   9 6264.13 6621.40   5
  13  -1  -9-528.982 3777.21  14
 -13  -1   9-4082.10 4890.27   4
  13   1   9 5641.22 5456.75   8
 -13   1   9 1513.55 4069.04   2
  13  -1  -9 1682.88 8949.65   1
  13  -1   9 273.148 1333.07   8
  13   1  -9 471.463 5844.90   1
 -13   1   9-4048.22 5182.55   4
 -13  -1  10 12716.2 7085.73   5
 -13   1  10 23173.5 9522.86   5
  13  -1 -10 9151.44 5885.57  14
 -13  -1  10 18089.0 8462.84   2
 -13  -1  10 13121.1 6525.71   4
  13   1  10 16273.0 8427.36   8
 -13   1  10 26055.8 9261.29   2
  13  -1  10 17787.3 7673.51   8
  13  -1 -10 2630.14 12858.9   1
 -13   1  10 14986.8 7786.10   4
  13   1 -10 6133.93 7024.14   1
 -13  -1  11-3262.95 4381.45   5
 -13   1  11-7013.67 6188.59   5
  13  -1 -11-6237.38 4698.43  14
 -13  -1  11-2304.31 3721.80   2
  13   1  11 13069.7 6806.22   8
 -13  -1  11-2310.62 4040.18   4
  13  -1  11-8397.19 6113.17   8
 -13   1  11-523.672 1035.18   2
 -13   1  11-4477.72 5335.46   4
  13  -1 -11-5366.11 2225.40   1
  13   1 -11 548.909 3936.86   1
 -13  -1  12-5024.14 3226.50   5
 -13   1  12-9770.36 7729.55   5
  13  -1 -12 23700.4 7528.90  14
 -13  -1  12 707.152 1944.81   2
  13   1  12 4421.64 8461.60   8
 -13  -1  12 15643.1 8419.18   4
  13  -1  12 17417.2 8606.29   8
 -13   1  12 4517.33 3714.75   2
 -13   1  12 2222.52 4384.66   4
  13   1 -12 1046.00 2895.70   1
 -13  -1  13 5884.86 4309.39   5
 -13   1  13-10216.5 7836.43   5
  13  -1 -13 2973.13 5667.29  14
 -13  -1  13-7750.49 8217.72   2
  13   1  13 2125.98 4174.73   8
 -13  -1  13 4535.93 4932.47   4
  13  -1  13-392.424 1774.18   8
 -13   1  13-461.485 3207.60   2
 -13   1  13 5942.74 5162.35   4
  13  -1 -13-15295.5 9646.72   1
  13   1 -13-6114.58 8651.37   1
 -13  -1  14 9167.62 8184.29   5
 -13  -1  14 692.636 4322.98   2
  13   1  14-4411.38 7479.75   8
 -13  -1  14 2432.66 2456.15   4
  13  -1  14 5202.83 2510.36   8
  13   1 -14 644.889 2155.53   1
  13   1 -15-3106.41 8600.17   1
 -13  -1  15-7062.90 7439.68   5
 -13  -1  15 3559.22 6154.93   2
  13   1  15 11095.3 6395.34   8
  13  -1  15 1768.98 2903.10   8
 -13  -1  15 7146.25 7912.51   4
  13  -1  16 7148.71 4453.14  16
  13   1 -16 1764.87 1223.77   1
 -13  -1  16 5654.02 7327.00   5
 -13  -1  16 10059.0 9141.17   2
  13   1  16-2105.00 6712.34   8
  13  -1  16 2694.26 6279.80   8
 -13  -1  16 12703.8 7317.18   4
  13  -1  17 1345.07 6117.43  16
  13   1 -17 317.514 3001.35   1
 -13  -1  17-2473.80 4003.15   5
 -13  -1  17-5282.43 6049.26   2
  13   1  17-5846.25 8350.46   8
  13  -1  17-4213.70 5903.66   8
 -13  -1  17-1173.72 3366.76   4
  13  -1  18 7367.10 9032.62  16
 -13  -1  18 12047.5 9299.78   5
  13   1 -18-489.325 3925.18   1
 -13  -1  18 16860.7 13716.5   2
  13   1  18 35285.4 9303.03   8
  13  -1  18 37616.5 11196.2   8
  13  -1  19-3322.49 5482.43  16
 -13  -1  19 5136.92 7212.75   5
  13   1 -19-749.955 6556.20   1
 -13  -1  19 1810.55 1828.17   2
  13  -1  19 495.440 268.748   8
  13  -1  20 7766.31 8715.95  16
  13  -1  20 33537.6 10535.7   8
  13  -1  21 951.558 3850.48  16
  13  -1  21-3784.26 5868.63   8
   1  13 -21 6074.21 9836.20  18
  13  -1  22 6914.31 7019.87  16
  13  -1  22 30894.4 10544.1   8
   1  13 -22 38504.0 15114.0  18
  13  -1  23 4894.93 4199.68  16
   1  13 -23 5382.09 8793.15  11
  -1  13 -23 4266.58 6178.30  11
  13  -1  23-1990.61 3845.91   8
   1  13 -23 5867.54 7519.77  18
  13  -1  24 3297.45 6782.52  16
   1  13 -24 2146.60 9894.05  11
  -1  13 -24-4471.42 13155.8  11
  13  -1  24 14701.4 8443.55   8
   1  13 -25-6468.74 6177.20  11
  -1  13 -25 2333.31 4344.07  11
   1  13 -26 3491.56 6334.94  11
  -1  13 -26 6411.84 11169.2  11
 -13   2   0 2947.81 6080.09   5
  13  -2   0 593.111 3576.69  14
 -13   2   0-3389.82 3209.32   4
  13   2   0 1355.62 4150.83   8
  13  -2   0 163.392 3538.45   1
 -13   2  -1-855.350 4066.72   5
 -13   2   1 6536.10 3221.09   5
  13  -2   1-155.315 4436.57  14
  13  -2  -1 246.098 5154.89  14
 -13   2  -1-743.698 1446.85   4
 -13   2   1 283.724 5465.96   4
  13   2   1 3290.35 3519.46   8
  13  -2   1 2501.21 2392.02   1
  13   2  -1-1886.93 2682.00   8
  13  -2  -1 9307.93 10452.2   1
 -13   2  -2-4860.82 5973.11   5
 -13   2   2 940.365 5670.15   5
  13  -2  -2 5418.43 4225.68   1
  13  -2   2 406.477 1244.68  14
  13  -2  -2-679.033 3380.29  14
  13  -2   2 868.374 2055.48   1
 -13   2  -2 2622.62 4884.86   4
  13   2   2 620.948 995.611   8
  13   2  -2 539.817 2711.80   8
  13   2   2-294.117 2888.92  18
 -13   2   3 2494.97 2897.66   5
  13  -2  -3 8357.76 6792.38  14
  13  -2   3 3780.64 3232.90   1
  13  -2  -3-3736.40 6888.63   1
 -13   2   3 3718.57 2402.66   2
 -13   2  -3-1122.23 4264.97   4
  13   2   3-1081.67 2759.51   8
 -13   2   3-8901.87 9453.19   4
  13   2  -3 3202.77 2127.52   8
  13  -2  -3 4714.83 4026.97   6
  13   2   3 5384.74 3356.51  18
 -13   2   4-1832.42 2218.23   5
  13  -2  -4-7213.34 4621.15  14
 -13   2  -4-2816.87 4576.06   4
  13  -2  -4-3385.61 5651.01   1
 -13   2   4-644.570 1871.98   2
  13   2   4 3291.74 4082.28   8
 -13   2   4 4162.62 5646.11   4
  13   2  -4-551.809 2999.57   8
  13  -2   4-4289.39 3837.13   8
  13   2   4-1474.57 1660.85  18
  13  -2  -4 1391.95 1844.24   6
 -13   2   5 36943.5 13864.3   5
  13  -2  -5 17853.3 8536.30  14
 -13   2  -5 3720.53 3443.49   4
  13   2   5 28412.2 10829.8   8
 -13   2   5 34024.0 10830.8   2
  13  -2  -5 38490.1 14765.7   1
 -13   2   5 33809.2 13570.3   4
  13   2  -5 29571.0 9356.13   8
  13  -2   5 24763.8 9528.28   8
  13   2   5 34807.5 8927.67  18
  13  -2  -5 28325.0 7982.41   6
 -13   2   6-2577.14 5101.99   5
  13  -2  -6-11028.7 6411.14  14
  13   2   6-8566.49 7605.14   8
 -13   2   6 7954.71 6312.60   2
 -13   2   6 1026.49 2840.57   4
  13  -2  -6 1872.03 4765.58   1
  13  -2   6-83.3284 4595.71   8
 -13   2   7 28934.1 10465.0   5
  13  -2  -7 12934.8 8279.24  14
  13   2   7 35761.4 12923.0   8
 -13   2   7 33804.3 10430.9   2
 -13   2   7 44845.9 14697.9   4
  13  -2   7 38979.7 12083.1   8
  13  -2  -7 26671.6 12591.5   1
  13  -2  -8 1588.63 3364.69   1
  13   2  -8-517.705 3482.63   1
 -13   2   8-15101.6 7745.19   5
  13  -2  -8-3879.15 4925.46  14
  13   2   8-3287.14 5032.00   8
 -13   2   8-391.295 824.293   2
  13  -2   8-1584.16 3835.46   8
 -13   2   8 6659.91 9106.08   4
 -13  -2   8 3374.94 3495.43   2
  13  -2  -9 7542.67 9806.39   1
  13   2  -9 5642.54 8551.75   1
 -13   2   9 16057.7 8288.75   5
  13  -2  -9 1391.67 2823.91  14
 -13  -2   9 7593.70 5014.53   4
  13   2   9 16965.2 9249.82   8
  13  -2   9 11501.8 5896.46   8
 -13   2   9 11159.7 5411.19   2
 -13   2   9 22164.8 10431.0   4
 -13  -2   9 10888.7 6370.31   2
 -13  -2  10-602.334 2927.65   2
  13  -2 -10-2643.72 5365.52   1
 -13   2  10 6545.24 7042.39   5
  13  -2 -10-1624.26 1388.26  14
  13   2 -10-8023.87 7013.45   1
 -13  -2  10 1770.38 2661.33   4
  13   2  10-2238.00 8130.27   8
  13  -2  10 409.949 1427.84   8
 -13   2  10-224.188 2330.91   4
 -13  -2  11 7061.80 6557.98   2
  13   2 -11 1472.98 4645.16   1
 -13  -2  11-3545.77 2503.42   4
  13   2  11-8766.92 10485.6   8
  13  -2  11 4026.19 5237.79   8
 -13  -2  12-5435.48 5531.50   5
 -13  -2  12-1102.23 3613.01   2
 -13  -2  12 254.181 1521.44   4
  13   2 -12-2894.10 1097.73   1
  13   2  12-3455.06 994.602   8
  13  -2  12 1079.83 2579.23   8
 -13  -2  13-3648.69 3717.76   5
 -13  -2  13-2175.71 5185.83   2
 -13  -2  13-5081.90 5078.82   4
  13   2 -13-2355.08 5617.85   1
  13  -2  13 3823.76 4634.87   8
 -13  -2  14-3933.70 5004.06   5
 -13  -2  14 4215.07 4458.36   2
 -13  -2  14-1321.87 3007.15   4
  13   2  14-558.605 3248.30   8
  13   2 -14-7317.31 6102.98   1
  13  -2  14 6123.88 5596.95   8
  13  -2  14 2473.27 2852.22  16
 -13  -2  15 1459.61 1865.35   5
 -13  -2  15-1789.42 3948.01   2
 -13  -2  15 984.807 302.767   4
  13   2  15 6030.45 8596.35   8
  13   2 -15 1171.91 2450.23   1
  13  -2  15-1588.63 1474.89   8
  13  -2  15 3184.94 4113.69  16
 -13  -2  16-1214.18 3114.51   5
 -13  -2  16-7777.92 6184.38   2
 -13  -2  16-2120.06 1803.49   4
  13  -2  16 2049.22 4470.43   8
  13   2 -16-6036.29 6504.76   1
  13  -2  16 3880.89 6219.48  16
 -13  -2  17 2962.98 5369.27   5
 -13  -2  17 4849.88 5843.47   2
  13  -2  17 6274.99 3556.50   8
  13   2 -17 1002.53 5079.71   1
  13  -2  17 6847.56 5901.18  16
 -13  -2  18-833.750 1690.52   5
 -13  -2  18-1308.88 5274.84   2
  13  -2  18 627.610 4835.05   8
  13   2 -18 542.242 3314.24   1
  13  -2  18-299.256 3038.33  16
 -13  -2  19 6079.32 5761.99   5
 -13  -2  19 1849.66 5259.47   2
  13  -2  19 7521.33 8741.94   8
  13   2 -19 1778.80 7706.60   1
  13  -2  19 5185.07 8965.65  16
 -13  -2  20-2450.50 6087.58   5
 -13  -2  20 226.835 4231.27   2
  13  -2  20 183.223 1384.33   8
  13   2 -20 3400.43 712.067   1
  13  -2  20 758.173 5550.95  16
  13  -2  21 6582.71 8192.65  16
 -13  -2  21 942.013 3020.44   5
 -13  -2  21 7186.83 7823.84   2
  13  -2  21 5423.68 5999.30   8
  13   2 -21 4379.53 11636.1   1
   2  13 -21 8466.36 4785.19  18
  13  -2  22-902.472 3595.86  16
 -13  -2  22-3614.24 3997.55   5
 -13  -2  22 2728.93 5182.35   2
  13  -2  22 1477.97 1307.51   8
  13   2 -22 9233.62 15860.0   1
   2  13 -22-2143.92 3020.71  18
  13  -2  23 4388.67 7886.38  16
   2  13 -23 2666.41 3937.66  11
  -2  13 -23 6093.26 4349.28  11
  13  -2  23 3316.51 2205.82   8
   2  13 -23 4408.48 4994.88  18
  13  -2  24 7504.00 9367.53  16
   2  13 -24 2537.34 2047.22  11
  -2  13 -24-202.470 2346.59  11
  13  -2  24 5144.00 4815.46   8
   2  13 -24 12243.0 9636.74  18
  13  -2  25 1125.23 7184.84  16
   2  13 -25-4064.23 6611.17  11
  13  -2  25 3408.63 5019.40   8
  13  -2  26 854.893 3597.97  16
   2  13 -26 6327.34 7456.49  11
  13  -2  26 2890.18 3606.85   8
 -13   3   0 23222.7 13368.3   5
  13  -3   0 4237.52 8211.56  14
  13  -3   0 4173.45 9163.19   1
  13   3   0 21032.0 7008.41  11
  13   3   0 17972.5 8960.85   8
 -13   3   0 19054.4 10760.6   4
  13  -3   0 13412.9 10106.4   6
  13   3   0 17445.4 6490.01  18
  13  -3   1-218.478 1995.33   1
 -13   3  -1-3602.19 3375.60   5
 -13   3   1-689.498 1554.27   5
  13  -3   1-860.795 2013.10  14
  13  -3  -1 1194.67 5654.74  14
  13  -3  -1-5311.37 4689.65   6
  13   3   1-875.002 351.835  11
  13   3  -1 933.881 2260.83  11
  13  -3  -1-373.212 2865.66   1
  13   3   1-139.880 2120.87   8
  13   3  -1 2726.69 2818.27   8
 -13   3  -1-100.173 5793.15   4
 -13   3   1 1408.83 4497.18   4
  13   3   1 195.119 1571.91  18
  13   3  -1 1726.34 2150.82  18
 -13   3  -2 2984.48 692.276   5
 -13   3   2 10478.2 7396.79   5
  13  -3   2 138.941 2157.68  14
  13  -3  -2-385.270 2072.33  14
  13   3  -2 7531.40 4795.76  11
  13   3   2 3955.04 3601.07   8
 -13   3  -2 6205.60 3546.46   4
  13   3  -2 4705.39 4197.95   8
  13  -3  -2 3061.88 7581.32   1
 -13   3   2 6001.49 5801.79   4
  13   3   2 6325.75 3405.68  18
  13   3  -2 119.175 2412.53  18
  13  -3   2-1916.75 5657.07   1
  13  -3  -2 1342.52 2093.77   6
 -13   3  -3 1982.29 4391.36   5
  13  -3   3 319.124 2664.70  14
 -13   3   3-3340.06 6430.90   5
  13  -3  -3 222.796 3538.79  14
  13   3   3 2843.95 7032.78   8
 -13   3  -3 2366.43 4912.83   4
  13   3  -3 3690.69 3973.02   8
  13  -3   3-2286.09 6135.30   1
 -13   3   3 3325.53 6314.42   4
  13   3   3 2168.81 3521.20  18
  13  -3  -3-890.166 3261.59   1
  13  -3  -3-1015.59 2107.96   6
  13  -3  -4 15043.6 10790.5   1
 -13   3  -4 4034.71 3270.74   5
  13  -3   4-1602.30 4715.78  14
 -13   3   4-5215.43 5342.77   5
  13  -3  -4 4179.11 5145.27  14
  13  -3   4-550.928 6442.91   1
  13   3   4 7881.88 7481.42   8
 -13   3  -4 1997.89 2130.02   4
  13   3  -4 2268.57 1682.72   8
 -13   3   4 1792.81 909.382   2
 -13   3   4 876.604 2608.75   4
  13   3   4 3594.08 4654.28  18
  13  -3  -4 3399.44 5899.00   6
 -13   3  -5-2571.61 3808.13   5
  13  -3  -5 8667.88 8468.46   1
  13  -3   5-195.971 3076.74  14
 -13   3   5-5821.51 6657.70   5
  13  -3   5-1782.35 4229.94   1
  13  -3  -5-1393.59 4620.86  14
 -13   3  -5 2539.12 3675.92   4
  13   3   5-4583.75 7237.98   8
  13   3  -5 1741.83 2818.01   8
 -13   3   5 6218.57 6344.93   4
 -13   3   5-5032.32 4722.43   2
  13   3   5 1433.40 7657.13  18
  13  -3  -5 2250.92 4358.90   6
 -13   3   6 18654.2 9982.59   5
  13  -3  -6-284.457 1312.42  14
  13  -3  -6 6525.59 6485.29   1
 -13   3  -6 6775.58 4522.01   4
  13   3   6 8274.98 4789.07   8
 -13   3   6 22265.6 11252.6   4
 -13   3   6 11967.1 5528.89   2
  13   3  -6 17934.7 7439.91   8
  13   3   6 8734.24 6488.93  18
 -13   3  -7 4297.71 5770.91   4
  13   3   7 506.992 4619.42   8
  13   3   8 5424.36 4161.78   8
  13  -3   8 2170.99 3311.28   8
  13   3   9 7245.85 6659.54   8
  13  -3   9 1199.98 1995.54   8
  13   3  10-3924.36 3618.15   8
  13  -3  10 2063.32 1056.11   8
  13   3  11 2834.81 2767.18   8
  13  -3  11 2579.16 2505.65   8
  13  -3  12 4010.37 2032.75   8
 -13  -3  12-3138.41 4383.14   2
  13   3 -13 5975.76 4913.31   1
  13  -3  13-399.194 2591.28   8
 -13  -3  13-2623.41 5545.08   2
 -13  -3  14-150.695 4317.66   2
  13   3 -14 6164.29 7867.27   1
  13  -3  14 7088.70 5264.81   8
 -13  -3  15 1136.16 2427.04   2
  13   3 -15-4004.92 5324.87   1
  13  -3  15 290.752 1239.60   8
 -13  -3  16 4109.55 5130.90   2
  13   3 -16-1737.26 5722.64   1
  13  -3  16-1616.48 480.587   8
 -13  -3  17 2698.80 3186.02   2
  13   3 -17-45.8151 5579.88   1
  13  -3  17-3464.29 5678.06   8
  13  -3  17-5400.84 7262.62  16
 -13  -3  18 923.424 2590.16   2
  13   3 -18-1225.43 1640.10   1
  13  -3  18-1572.96 3586.18   8
  13  -3  18-1413.14 4602.23  16
 -13  -3  19-1025.75 3733.23   2
  13   3 -19-152.744 3946.35   1
  13  -3  19 2131.57 1612.20   8
  13  -3  19 1534.89 3561.69  16
 -13  -3  20 6815.42 6521.44   2
  13   3 -20-3621.88 8279.46   1
  13  -3  20 2046.14 2561.77   8
  13  -3  20 73.1690 5286.34  16
 -13  -3  21 2650.60 5625.67   2
  13   3 -21-1875.79 8691.58   1
  13  -3  21-270.237 4306.96   8
   3  13 -21 436.692 5920.72  18
  13  -3  21 8864.22 7299.26  16
 -13  -3  22-732.074 2405.88   2
  13   3 -22-750.898 5598.48   1
  13  -3  22-1227.52 4312.83   8
   3  13 -22 5100.18 6547.38  18
  13  -3  22 1375.68 3793.14  16
 -13  -3  23-350.338 2819.81   2
   3  13 -23 2195.35 6284.19  11
  13   3 -23 3533.04 6881.89   1
  13  -3  23-512.715 5073.63   8
   3  13 -23 3625.66 6104.41  18
  13  -3  23-6476.49 4009.27  16
 -13  -3  24 1848.69 6994.82   2
   3  13 -24-6371.44 10222.0  11
  13   3 -24-16266.9 8777.08   1
  13  -3  24 2511.52 3429.95   8
   3  13 -24 612.955 4649.34  18
  13  -3  24-982.809 5020.28  16
 -13  -3  25 2909.05 5978.89   2
   3  13 -25-1152.34 6578.66  11
  13   3 -25 3276.39 3562.06   1
  13  -3  25 893.774 3129.38   8
  13  -3  25 2360.39 7179.81  16
   3  13 -26-1184.83 5672.33  11
  13  -3  26 2040.64 5410.53   8
  13  -3  26-1391.89 4442.00  16
  13  -3  27-1025.75 1821.22   8
  13  -3  27-1551.22 3414.93  16
  13  -3  28 4539.39 5752.41   8
  13  -3  28-928.127 4673.87  16
 -13   4   0-369.141 1764.32   5
  13  -4   0-250.562 2164.14  14
  13   4   0 3481.48 5680.02   8
 -13   4   0-821.612 4666.29   4
  13   4   0 753.177 2281.59  18
  13  -4   0-329.626 4821.21   1
  13  -4   0 1922.84 1778.83   6
  13  -4  -1 3229.14 8376.53   1
 -13   4  -1 26227.0 12521.1   5
 -13   4   1 16856.5 7950.27   5
  13  -4   1 2683.22 8527.49  14
  13  -4  -1 4884.15 8771.43  14
  13   4   1 27818.4 12439.7   8
  13   4  -1 30461.1 11284.4   8
  13  -4   1 5237.81 12812.9   1
 -13   4  -1 33897.0 15652.3   4
 -13   4   1 26029.8 11012.8   4
  13   4   1 44775.8 13631.3  18
  13   4  -1 21855.2 7674.96  18
  13  -4   1 6502.65 6197.75   6
  13  -4  -1 5942.92 8202.94   6
 -13   4  -2 9484.86 6963.86   5
  13  -4  -2 2483.28 5606.99   1
 -13   4   2 10650.9 6151.09   5
  13  -4   2 713.854 2746.72  14
  13  -4  -2-66.2143 4937.64  14
  13   4  -2-1781.42 1239.30  11
  13  -4   2 728.223 5588.96   1
  13   4   2 6877.48 8786.25   8
  13   4  -2 2707.36 1315.36   8
 -13   4  -2 4415.89 2936.63   4
 -13   4   2 4454.43 7205.18   4
  13   4   2 18001.6 10696.6  18
  13   4  -2 4836.33 3133.97  18
  13  -4   2 2480.80 6042.63   6
  13  -4  -2 1050.74 3974.41   6
 -13   4  -3 12798.3 9479.96   5
  13  -4   3 4053.36 1916.78   1
  13  -4   3 534.109 4841.81  14
 -13   4   3 9662.71 5544.30   5
  13  -4  -3 286.938 3324.86  14
  13   4  -3-6512.01 5766.79  11
  13  -4  -3 11602.2 10101.7   1
  13   4   3 4132.33 3605.08   8
  13   4  -3 7806.05 4408.78   8
 -13   4  -3 6338.88 6440.99   4
 -13   4   3 3425.67 5620.13   4
  13   4   3 966.796 2389.01  18
  13   4  -3 1935.53 1999.97  18
 -13   4  -4 5669.46 4977.73   5
  13  -4   4 481.983 1755.12  14
  13   4  -4 3643.84 3216.58  11
  13   4   4 624.380 5728.50   8
 -13   4  -4 14154.3 11642.0   4
  13   4  -4-2364.51 3318.32   8
  13   4   4-5009.09 5602.73  18
  13   4  -4 1914.60 2773.85  18
  13  -4   4-3518.04 4277.88   1
 -13   4  -5 3788.98 3209.11   5
  13  -4   5-2286.80 3175.03  14
  13   4  -5 4944.80 5715.92  11
  13   4   5-1746.33 5040.34   8
 -13   4  -5-1944.48 5514.13   4
  13   4  -5 6372.35 5105.86   8
  13  -4   5 230.754 5611.05   1
  13   4   5 4325.40 4816.15  18
  13   4  -5-3265.52 5012.86  18
 -13   4  -6 1686.40 2763.48   5
  13  -4   6 998.134 3690.18  14
  13  -4   6 3465.62 5513.83   1
  13   4   6 8534.06 6739.89   8
 -13   4  -6-1154.39 4110.81   4
  13   4  -6 6462.88 5393.97   8
  13   4   6-659.631 2032.36  18
 -13   4  -7-1563.46 3094.70   5
  13  -4   7-677.990 3576.10  14
  13  -4   7 1324.90 4602.18   1
 -13   4  -7 1499.68 3108.47   4
  13   4  -7 209.952 3185.23   8
  13   4   7-156.619 1459.20  18
  13  -4   8 3401.60 4190.90  14
 -13   4  -8 3324.15 4175.88   4
  13   4   8 6840.06 6914.17   8
  13   4  -8 10417.2 6605.02   8
 -13   4  -9-1235.72 4542.54   4
  13  -4  12 2031.89 2611.28   8
  13  -4  13 17138.2 6418.01   8
  13  -4  14-1624.14 1518.43   8
  13  -4  15 9440.03 5837.53   8
  13  -4  16-533.371 1951.25   8
 -13  -4  16-155.863 2392.27   2
  13  -4  17-2957.59 5354.80   8
 -13  -4  17 1858.05 3431.36   2
  13  -4  18 3093.77 3760.53   8
 -13  -4  18-4467.17 2351.24   2
 -13  -4  19 2641.65 4383.19   2
  13  -4  19-306.093 1530.31   8
 -13  -4  20-9444.18 7137.25   2
  13  -4  20-1801.24 4464.11   8
 -13  -4  21 2821.89 4952.28   2
  13  -4  21-2993.23 455.385   8
   4  13 -21-2089.65 3999.22  18
 -13  -4  22-1058.95 4193.66   2
  13  -4  22 300.560 2235.31   8
  13  -4  22-5078.65 6960.85  16
 -13  -4  23-2687.78 6162.01   2
   4  13 -23 3530.26 6466.73  18
   4  13 -23 409.880 744.192  11
  13  -4  23 3412.47 6172.37   8
  13  -4  23-1362.01 2439.83  16
 -13  -4  24 2727.84 5157.46   2
   4  13 -24-6044.40 10279.8  11
  13  -4  24 364.303 3550.49   8
   4  13 -24-578.684 4496.34  18
  13  -4  24 2487.17 2050.09  16
 -13  -4  25 3771.07 3590.66   2
  13  -4  25 2185.54 4354.69   8
  13  -4  25 1963.11 6031.75  16
 -13  -4  26 4381.05 6443.98   2
   4  13 -26-441.268 7022.41  11
  13  -4  26-1906.69 3357.47   8
  13  -4  26 3500.64 7974.19  16
 -13  -4  27 4408.65 6092.33   2
  13  -4  27 2153.31 5707.96   8
  13  -4  27 4452.18 7456.64  16
  13  -4  28-379.855 2895.42   8
  13  -4  28 3206.08 4188.54  16
  13  -4  29 6027.03 9742.39  16
 -13   5   0 39238.7 12854.5   5
  13  -5   0 9037.91 10076.0  14
  13  -5   0 3314.33 8330.60   1
  13   5   0 24667.8 10267.5   8
 -13   5   0 30544.4 14120.5   4
  13   5   0 27720.4 10503.3  18
  13  -5   0 3988.45 7190.26   6
  13  -5   1 6341.12 8022.70   1
 -13   5  -1 5429.08 2259.98   5
  13  -5   1 744.456 4642.65  14
  13   5   1 10150.6 8057.06   8
  13   5  -1 10458.5 7892.99   8
 -13   5  -1 6107.10 8148.22   4
  13   5   1 3393.46 3941.05  18
  13   5  -1 13119.2 7449.32  18
  13  -5   1 1256.80 5582.58   6
 -13   5  -2 6569.48 3392.39   5
  13  -5   2 3652.81 5696.79  14
  13   5   2 11334.2 8041.18   8
  13   5  -2 19285.5 9563.43   8
 -13   5  -2 21777.8 11340.5   4
  13   5   2 20961.6 9387.69  18
  13   5  -2 26293.7 10020.3  18
  13  -5   2 7522.95 9861.07   6
  13  -5   2 4281.41 9976.73   1
 -13   5  -3 8994.37 7429.21   5
  13  -5   3-561.063 2606.29  14
  13   5   3 9708.12 8237.29   8
  13   5  -3 3306.93 3799.84   8
 -13   5  -3 6628.12 5892.06   4
  13  -5   3 7838.17 11231.0   1
  13   5   3 4782.35 6036.93  18
  13   5  -3 5021.88 1291.83  18
  13  -5   3-1668.38 4135.92   6
 -13   5  -4 4124.20 3166.84   5
  13  -5   4 52.1838 3073.05  14
  13   5  -4-1132.46 3123.17  11
  13  -5   4-2158.90 7737.01   1
  13   5   4 4275.90 6703.63   8
  13   5  -4 2930.56 3321.54   8
 -13   5  -4-19069.1 10715.8   4
  13   5   4 7067.72 5973.37  18
  13   5  -4 2518.48 2620.45  18
  13  -5   4 402.612 7705.49   6
 -13   5  -5-4138.97 5207.81   5
  13  -5   5 4599.39 10539.1   1
  13  -5   5 1949.51 4333.99  14
  13   5  -5-11762.4 6530.54  11
  13   5   5 4595.43 5733.82   8
  13   5  -5 7096.78 4330.68   8
 -13   5  -5-64.7357 6630.52   4
  13   5  -5 8821.67 7291.76  18
 -13   5  -6 9690.20 7481.47   5
  13  -5   6 1221.15 5781.77  14
  13   5  -6-2084.63 5306.76  11
 -13   5  -6 4321.86 8021.73   4
  13   5  -6-1105.04 3717.82   8
  13   5  -6 5607.21 4249.96  18
  13  -5   6 737.228 6059.68   1
 -13   5  -7-1018.97 1038.84   5
  13  -5   7 1724.19 5976.98  14
  13   5  -7-44.8079 5971.70  11
 -13   5  -7 7963.68 7395.38   4
  13  -5   7-2406.22 2386.79   1
  13   5  -7 3626.54 3430.70   8
  13   5  -7 5967.54 5401.32  18
 -13   5  -8 2972.46 2186.10   5
  13  -5   8-1693.03 4144.31  14
  13  -5   8 2837.72 2498.21   1
  13   5  -8-5043.12 2843.45  11
 -13   5  -8 7471.82 7226.83   4
  13   5  -8-1899.26 4617.97   8
  13  -5   9 133.686 5612.45   1
  13  -5   9 3542.70 5729.80  14
 -13   5  -9-210.612 1189.05   4
  13  -5  10-758.935 3226.75  14
 -13   5 -10-140.705 1910.24   4
 -13   5 -11-410.193 819.709   4
  13  -5  18-2390.85 4953.68   8
  13  -5  19-1150.74 3353.83   8
  13  -5  20-677.896 1993.10   8
  13  -5  21 1175.27 3110.18   8
   5  13 -21 5888.43 8521.36  18
   5  13 -22 5941.09 12206.8  11
   5  13 -22-4153.43 6187.52  18
 -13  -5  22 994.019 2691.55   2
   5  13 -23-3100.71 9014.33  11
   5  13 -23 8098.02 5826.79  18
 -13  -5  23-2787.53 6027.44   2
   5  13 -24 1349.92 8912.89  11
  13  -5  24 327.569 5416.30   8
   5  13 -24 3587.78 386.108  18
 -13  -5  24 570.272 1327.38   2
   5  13 -25 905.654 8611.20  11
  13  -5  25 3325.36 4545.73   8
 -13  -5  25 3802.86 5251.73   2
  13  -5  26 2291.08 4333.25   8
 -13  -5  26 1774.30 5356.39   2
  13  -5  27-2384.79 4453.67   8
 -13  -5  27-539.124 2208.57   2
  13  -5  28 1742.44 5485.29   8
 -13  -5  28 1542.41 5571.17   2
 -13  -5  29-559.291 818.016   2
  13   6   0-1020.95 3495.36   8
  13   6   0 5704.10 7350.80  18
  13   6   1 9713.80 6147.41   8
  13   6  -1 11633.9 7406.87   8
  13   6   1 16015.5 9845.00  18
  13   6  -1 16723.7 10121.5  18
  13   6   2 12688.7 9660.31   8
  13   6  -2 2549.10 6641.22   8
  13   6   2 7529.53 6200.25  18
  13   6  -2 7927.20 6402.04  18
 -13   6  -3-3053.20 6066.36   5
  13  -6   3 1564.00 4767.77   1
  13  -6   3 1581.12 7068.85  14
  13   6  -3 3705.46 6185.70   8
 -13   6  -3 1465.94 4538.86   4
  13   6  -3-6749.58 4000.84  18
  13  -6   3-4348.56 8751.87   6
 -13   6  -4-1192.70 4481.97   5
  13  -6   4-404.222 7424.16  14
  13   6  -4 6585.27 7438.61   8
 -13   6  -4 3369.30 4760.83   4
  13   6  -4 7710.12 8352.17  18
  13  -6   4 78.8514 8164.61   6
  13  -6   4-18734.7 9729.64   1
 -13   6  -5 5130.77 3563.76   5
  13  -6   5-1665.77 3803.16  14
  13   6  -5 4491.69 4895.05   8
 -13   6  -5 11346.8 9295.57   4
  13  -6   5-1869.47 8128.79   1
  13   6  -5-3174.51 6721.73  18
  13  -6   5-1164.99 4882.86   6
  13  -6   6 4251.75 7078.47  14
  13  -6   6 8420.48 11146.4   1
  13   6  -6 6609.62 3794.84   8
 -13   6  -6 11751.2 9731.23   4
  13   6  -6 4057.41 1980.03  18
  13  -6   6 1461.51 8266.73   6
  13  -6   7 292.548 5913.71   1
 -13   6  -7 11600.3 7603.88   5
  13  -6   7 1147.75 9034.66  14
  13   6  -7-2604.79 6212.03  11
  13   6  -7 7168.72 3786.35   8
 -13   6  -7-564.968 2403.18   4
  13   6  -7 19248.3 9609.85  18
 -13   6  -8-728.993 4810.90   5
  13  -6   8-494.164 4904.06  14
  13   6  -8-64.5949 4563.74  11
 -13   6  -8 7874.26 7803.12   4
  13  -6   8-1899.90 2109.50   1
  13   6  -8 850.477 789.451  18
 -13   6  -9-3725.66 4930.01   5
  13  -6   9-9414.58 6205.43  14
  13   6  -9-1208.24 5637.15  11
 -13   6  -9 1017.65 3017.71   4
  13   6  -9 7377.22 6248.66  18
 -13   6 -10 423.496 3670.88   5
  13  -6  10 3142.42 3290.11  14
  13   6 -10 755.316 7459.48  11
 -13   6 -10 9866.38 9762.47   4
  13   6 -10 285.872 2709.15  18
  13  -6  11-221.212 1763.22  14
 -13   6 -11-74.4044 3952.14   4
  13  -6  12-117.215 3389.41  14
 -13   6 -12 1648.40 4214.14   4
 -13   6 -13 7016.10 7402.88   4
   6  13 -21 14273.2 12684.7  18
   6  13 -22 11593.1 12424.1  11
   6  13 -22 8492.18 11483.3  18
   6  13 -23 5193.25 11410.0  11
   6  13 -23 2080.15 7391.83  18
   6  13 -24 8864.04 12342.1  11
   6  13 -24 4680.60 6403.11  18
   6  13 -25 2505.06 6399.29  11
  13   7  -1 4233.50 8034.32   8
  13   7  -1 8902.50 11386.5  18
  13   7  -2-9352.36 5721.52   8
  13   7  -2 2236.48 1764.62  18
  13   7  -3 10584.5 8773.17   8
  13   7  -3 12435.8 2743.91  18
  13   7  -4 6594.54 3513.83   8
  13   7  -4 7657.25 6520.58  18
  13   7  -5 5599.45 3813.74   8
  13   7  -5 2332.56 3256.89  18
 -13   7  -6-2323.59 6547.77   5
  13  -7   6 1272.63 6185.36  14
  13   7  -6 18965.8 9118.51   8
 -13   7  -6 9765.86 8974.68   4
  13   7  -6 15376.5 12231.0  18
  13  -7   6 5352.07 10783.2   6
  13  -7   6 2131.15 3737.54   1
 -13   7  -7 6677.11 5999.94   5
  13  -7   7-1200.57 3093.42  14
  13  -7   7 7265.15 6883.16   1
 -13   7  -7 16488.1 11073.2   4
  13   7  -7 8116.63 6598.07  18
  13  -7   7 5755.98 6168.75   6
 -13   7  -8 9985.89 9124.21   5
  13  -7   8 15657.4 11693.4  14
 -13   7  -8 377.298 7121.08   4
  13   7  -8-5701.29 5792.22  18
  13  -7   8 3945.35 8127.47   6
 -13   7  -9 1026.04 1468.27   5
  13  -7   9 1035.64 4776.00  14
  13   7  -9 1517.01 8477.01  11
  13   7  -9-801.232 3581.40  18
 -13   7 -10 1835.81 4524.76   5
  13  -7  10-10808.9 7328.64  14
  13   7 -10-537.593 9967.42  11
 -13   7 -10 7711.39 8032.86   4
  13   7 -10-1180.73 3551.25  18
  13  -7  11 14.9680 627.432  14
  13   7 -11 1863.09 4905.30  11
 -13   7 -11-4300.18 7831.04   4
  13   7 -11-2319.89 4643.99  18
  13  -7  12-63.5090 1873.31  14
  13   7 -12 3010.41 6424.22  11
 -13   7 -12-3404.55 5313.95   4
  13   7 -12-828.740 1965.75  18
  13  -7  13-2377.81 4246.07  14
 -13   7 -13 1039.32 3278.46   4
  13  -7  14-5.54085 2257.75  14
 -13   7 -14 6614.14 6531.16   4
   7  13 -20 22945.2 14482.9  18
   7  13 -21 34594.5 20004.4  11
   7  13 -21-445.473 7470.32  18
   7  13 -22-1979.23 5479.81  11
   7  13 -22 2776.30 6398.63  18
   7  13 -23 2478.37 6328.15  11
   7  13 -23-1794.14 1870.88  18
   7  13 -24 2724.58 10286.0  11
   7  13 -25 8835.18 10625.9  11
  13   8  -4 3727.83 3975.20   8
  13   8  -4 710.775 4767.80  18
  13   8  -5 6187.05 4137.57   8
  13   8  -5 3085.28 6465.84  18
  13   8  -6-7340.21 10966.8  18
  13   8  -7 28677.8 12592.4  18
 -13   8  -8 3350.45 4489.89   5
 -13   8  -8 8167.13 5913.46   4
  13   8  -8 16532.7 11904.4  18
  13  -8   8-3574.33 9074.40   6
 -13   8  -9 4857.56 5881.92   5
  13  -8   9-3435.53 2615.42  14
 -13   8  -9 5895.91 5890.43   4
  13   8  -9 5017.44 7390.84  18
  13  -8   9-9202.81 11513.2   6
 -13   8 -10-2124.66 439.488   5
  13  -8  10 254.916 13363.2  14
  13   8 -10 8164.98 9870.51  11
 -13   8 -10-4478.33 6075.94   4
  13   8 -10-1680.72 5638.75  18
  13  -8  11-2133.73 7550.72  14
  13   8 -11-2881.41 11861.8  11
 -13   8 -11 6636.26 7632.36   4
  13   8 -11 9.74584 5397.57  18
  13  -8  12-7599.17 5721.69  14
  13   8 -12 214.607 10449.3  11
 -13   8 -12-138.329 4069.06   4
  13   8 -12-395.211 2006.67  18
  13  -8  13 314.759 5352.83  14
  13   8 -13 1766.86 7284.71  11
 -13   8 -13 2078.88 4872.60   4
  13   8 -13-2698.00 2896.58  18
  13  -8  14-47.7477 3296.69  14
  13   8 -14 230.125 5990.75  11
 -13   8 -14-44.9851 3740.84   4
  13  -8  15-3735.58 3759.56  14
 -13   8 -15 371.546 2814.78   4
   8  13 -20 4991.68 13184.6  18
   8  13 -21 733.251 12706.8  11
   8  13 -21-1747.11 3356.19  18
   8  13 -22-2771.40 455.954  11
   8  13 -22 87.8395 7634.16  18
   8  13 -23 735.992 12136.2  11
   8  13 -23 417.763 2979.09  18
   8  13 -24 509.762 1679.01  11
  13   9  -7 586.684 4752.54  18
  13   9  -8-7929.34 10891.6  18
  13   9  -9 3243.36 7339.73  18
  13   9 -10 2949.64 4960.26  18
 -13   9 -11-12062.5 12162.8   4
  13   9 -11 169.067 3852.67  18
 -13   9 -12 8130.90 9536.74   4
  13   9 -12 2267.36 1634.78  18
  13  -9  13 569.168 3572.24  14
  13   9 -13-408.065 7027.48  11
 -13   9 -13-4831.37 6495.98   4
  13   9 -13-103.329 6712.79  18
  13  -9  14 150.223 5703.68  14
  13   9 -14 5969.87 11546.8  11
 -13   9 -14-911.497 5871.65   4
  13   9 -14-231.676 7954.38  18
  13  -9  15-613.027 3125.30  14
  13   9 -15-27.6329 5895.48  11
 -13   9 -15 508.289 4365.17   4
  13   9 -15 317.369 3448.12  18
  13  -9  16-69.7088 1057.56  14
  13   9 -16 126.102 7088.35  11
 -13   9 -16-2879.23 4114.26   4
   9  13 -20 11306.4 12862.7  11
   9  13 -20 12426.8 10171.1  18
   9  13 -21-75.6812 12475.7  11
   9  13 -21 1133.06 5394.56  18
   9  13 -22 502.289 9083.25  11
   9  13 -22-65.6546 9394.61  18
   9  13 -23 646.805 6802.61  11
   9  13 -24-3597.43 7151.50  11
  13  10 -10 2014.21 3961.82  18
  13  10 -11 3729.20 5377.75  18
  13  10 -12 166.976 2286.49  18
  13  10 -13 31161.8 17905.7  11
  13  10 -13 14199.7 9275.36  18
  13  10 -14-2541.27 1691.03  11
  13  10 -14-19.1853 5416.10  18
  13 -10  15-2144.74 3167.50  14
  13  10 -15 1127.01 9359.71  11
 -13  10 -15 7658.93 6597.10   4
  13  10 -15 150.173 7357.25  18
  13 -10  16-104.124 7603.03  14
  13  10 -16-1350.17 8748.68  11
 -13  10 -16-8653.98 7039.96   4
  13  10 -16-718.845 5785.90  18
  13  10 -17 6819.19 12406.3  11
  10  13 -20-461.160 11343.4  11
  10  13 -20 495.327 5576.95  18
  10  13 -21-816.061 12465.5  11
  10  13 -21 184.949 2046.55  18
  10  13 -22-107.408 7967.83  11
  10  13 -22 357.893 3569.92  18
  10  13 -23 550.769 2692.28  11
  13  11 -13 5572.92 8716.51  18
  13  11 -14 35156.8 16546.7  18
  13  11 -15-1959.91 13560.7  11
  13  11 -15 556.782 4563.61  18
  13  11 -16-1997.39 11675.0  11
  13  11 -16 1204.11 11387.2  18
  13  11 -17-2157.37 8983.88  11
  13  11 -17-802.359 1813.03  18
  13  11 -18 1008.38 4209.81  11
  13  11 -18 466.812 5679.20  18
  13  11 -19-1755.09 5561.75  11
  11  13 -20-5092.85 11880.0  11
  11  13 -20 344.593 512.086  18
  11  13 -21-1376.05 5874.86  11
  11  13 -21 1513.87 7474.59  18
  11  13 -22 1152.47 12590.5  11
  11  13 -23 2098.48 8220.91  11
  13  12 -17-364.033 8748.21  11
  13  12 -17-709.097 6537.14  18
  13  12 -18-2420.57 6444.45  11
  13  12 -18-1122.19 7953.50  18
  13  12 -19 65.6229 1734.19  11
  13  12 -19 962.443 3290.69  18
  12  13 -20 1863.65 4820.78  11
  13  12 -20 1573.26 9416.79  11
  12  13 -21-409.837 6758.97  11
  12  13 -21 580.205 10516.1  18
  12  13 -22 9046.22 14723.5  11
  13  13 -21 2812.56 13577.7  11
  14   0   0-1168.44 2829.70   8
 -14   0   1 4797.79 5293.80   4
  14   0   1-1906.91 3887.04   8
  14   0  -2-389.165 701.442   1
 -14   0   2 1666.94 3694.31   4
  14   0   2 325.444 3242.74   8
  14   0  -3-5889.56 5621.12   1
 -14   0   3 166.333 1401.37   4
  14   0   3-3195.76 3600.54   8
 -14   0   4 11928.3 8009.91   5
  14   0  -4 8292.62 5112.63   1
 -14   0   4 3649.23 2440.97   4
  14   0   4 5615.76 4857.88   8
 -14   0   4 11298.3 5945.40   2
 -14   0   5-2574.68 3189.90   5
 -14   0   5-5192.00 5000.92   4
  14   0  -5 6537.02 4589.29   1
  14   0   5 2360.68 2440.53   8
 -14   0   5-2171.93 4794.88   2
 -14   0   6 21016.1 9824.06   5
 -14   0   6 25489.3 9178.61   2
 -14   0   6 24504.6 10131.0   4
  14   0  -6 34716.9 13616.0   1
  14   0   6 32640.9 11605.1   8
 -14   0   7 896.352 1330.62   5
 -14   0   7-6216.79 6285.04   2
 -14   0   7 4127.59 4648.30   4
  14   0   7-4182.85 4194.17   8
  14   0  -7-4736.99 8652.85   1
 -14   0   8 11832.2 8411.70   5
 -14   0   8 24346.4 9413.78   2
 -14   0   8 20416.1 8768.21   4
  14   0   8 16623.2 9139.15   8
  14   0  -8 6472.88 14226.5   1
 -14   0   9-372.607 5343.32   5
  14   0  -9 11.5302 1922.53  14
 -14   0   9 4324.24 4507.31   2
 -14   0   9-2361.21 4273.64   4
  14   0   9 2123.86 3103.11   8
  14   0  -9 1241.58 11376.9   1
 -14   0  10 9590.49 7931.50   5
  14   0 -10 5303.61 4892.79  14
 -14   0  10 2637.32 3790.53   2
 -14   0  10 10142.9 6910.04   4
  14   0  10-1053.00 1151.07   8
  14   0 -10 15747.4 13189.7   1
  14   0 -11 7257.04 12162.5   1
 -14   0  11 5119.80 4725.32   5
  14   0 -11 1975.37 5838.97  14
 -14   0  11 11258.6 7653.83   2
  14   0  11 3226.13 1090.17   8
 -14   0  11-2111.22 2768.99   4
  14   0 -12-349.471 6439.03   1
 -14   0  12-1454.34 3906.82   5
  14   0 -12 2925.87 5557.24  14
 -14   0  12 5361.53 6418.54   2
  14   0  12 4094.80 3607.43   8
 -14   0  12-4993.19 4248.84   4
 -14   0  13 3997.37 6009.05   5
  14   0 -13-7264.33 8926.45   1
  14   0 -13-529.735 3271.66  14
 -14   0  13 2282.75 2046.57   2
  14   0  13-362.871 3672.71   8
 -14   0  13-5201.20 5172.93   4
 -14   0  14-5512.13 2499.29   5
  14   0 -14 6190.08 6270.84  14
  14   0 -14 4401.79 10096.3   1
 -14   0  14 779.779 3247.75   2
  14   0  14 1649.03 3512.54   8
 -14   0  14-4227.07 6295.62   4
 -14   0  15-8050.63 3729.83   5
  14   0 -15 1931.52 3202.67  14
  14   0 -15-84.5031 3416.72   1
 -14   0  15-6984.43 8692.22   2
  14   0  15-2545.96 5979.58   8
 -14   0  15-12259.4 6897.18   4
 -14   0  16-3133.93 3652.87   5
  14   0 -16 3622.82 10103.6   1
 -14   0  16 1564.62 5274.74   2
  14   0  16-3681.36 4505.01   8
 -14   0  16 4954.86 4471.00   4
  14   0  17-10053.4 8645.22   8
  14   0  18 10232.4 5562.43   8
  14   0  19-3861.38 4630.85   8
  14   0  20 22675.2 11121.3   8
  14   0  21-3756.86 7055.68   8
   0  14 -26 7094.30 10332.5  11
   0  14 -27 3897.49 9184.74  11
  14  -1   0-361.489 2082.46   1
 -14   1   0 2586.91 4379.81   4
  14   1   0 3996.29 6377.75   8
 -14   1   1-4424.42 6099.16   5
  14  -1  -1-2077.71 1813.56   1
 -14   1  -1-486.553 2707.45   4
 -14   1   1-7780.37 6547.12   4
  14   1   1 52.2490 2495.15   8
  14   1  -1-701.776 1857.93   8
 -14   1   2 3477.88 5956.70   5
 -14   1  -2 5871.68 5719.38   4
 -14   1   2-639.504 2891.88   4
  14  -1  -2 162.533 3352.18   1
  14   1   2 2412.19 3310.73   8
  14   1  -2 2738.09 2915.92   8
  14  -1   2-2029.15 2042.29   8
 -14   1   3 673.146 3624.88   5
  14  -1  -3-158.887 3202.21  14
 -14   1   3 1768.77 2247.01   4
  14  -1  -3 1352.90 6553.56   1
  14   1   3 1220.57 5098.46   8
  14  -1   3 1675.93 2816.83   8
 -14   1   4 491.784 3730.49   5
  14  -1  -4 5321.66 6006.62  14
 -14   1   4-5652.63 6115.09   4
  14   1   4 3525.81 4666.36   8
  14  -1  -4 8204.53 7622.85   1
  14  -1   4-637.008 2600.44   8
  14   1  -5 6618.27 11073.4   1
 -14   1   5 15863.4 8943.56   5
  14  -1  -5 10368.1 7688.33  14
 -14   1   5 18760.2 6938.63   2
 -14  -1   5 10376.3 5643.08   4
 -14   1   5 11369.9 7248.74   4
  14   1   5 10029.5 7017.68   8
  14  -1  -5 7447.29 14957.9   1
  14  -1  -6-319.659 5233.04   1
 -14   1   6 2438.82 5179.51   5
  14  -1  -6-2331.14 4516.73  14
  14   1  -6-179.076 3544.63   1
 -14   1   6 930.655 883.595   2
 -14  -1   6 3821.10 4642.59   4
  14   1   6 848.996 2728.08   8
 -14   1   6-2023.37 3692.77   4
  14  -1  -7 1292.66 9809.05   1
 -14   1   7 15026.2 10773.1   5
  14  -1  -7 1623.49 6207.19  14
  14   1  -7 3437.36 11072.6   1
 -14   1   7 27042.9 9992.20   2
 -14  -1   7 10496.6 5510.36   4
  14   1   7 15700.7 10403.4   8
 -14   1   7 28569.7 11635.9   4
  14  -1   7 15351.8 9601.32   8
 -14  -1   7 15073.5 7391.92   2
 -14  -1   8 224.121 3014.30   2
 -14  -1   8 7047.11 5214.97   5
 -14   1   8 2170.26 1848.18   5
  14  -1  -8 11481.4 6995.25  14
  14  -1  -8 21967.9 13706.3   1
  14   1  -8-202.789 5619.62   1
 -14   1   8 11759.9 8466.85   2
 -14  -1   8 1454.65 2010.76   4
  14   1   8 401.561 4225.10   8
 -14   1   8-6253.63 5664.69   4
  14  -1   8 8877.10 5976.17   8
 -14  -1   9 11014.4 7158.52   5
 -14  -1   9 462.843 2899.88   2
 -14   1   9 1617.27 3412.96   5
  14  -1  -9-11.4474 5402.02  14
  14  -1  -9 2422.30 7177.28   1
 -14  -1   9 1983.10 2278.27   4
 -14   1   9 20951.4 9579.56   2
  14   1  -9 9105.77 10157.9   1
  14   1   9 4546.00 3990.28   8
 -14   1   9-7805.07 8190.85   4
  14  -1   9 8231.32 6407.27   8
 -14  -1  10 3303.40 5096.41   5
 -14  -1  10 2773.47 4683.93   2
 -14   1  10 5727.56 3682.14   5
  14  -1 -10-173.515 2315.89  14
  14  -1 -10-2061.75 8608.68   1
 -14  -1  10-3297.47 3591.81   4
 -14   1  10-3878.49 5824.55   2
  14   1  10 8139.52 6172.94   8
  14   1 -10 3020.17 8177.58   1
  14  -1  10-822.427 1551.12   8
 -14   1  10 627.192 5247.42   4
 -14  -1  11-11273.8 8031.44   5
 -14   1  11 429.923 2897.34   5
 -14  -1  11 9879.32 6520.21   2
  14  -1 -11 2372.36 6851.98  14
  14  -1 -11-6509.92 9241.27   1
 -14  -1  11-306.791 3835.25   4
 -14   1  11 5559.48 7268.41   2
  14   1  11-4382.46 7823.15   8
  14  -1  11 6008.57 5594.13   8
  14   1 -11-176.066 5367.18   1
 -14   1  11 2716.68 6248.10   4
 -14  -1  12 2952.20 4659.41   5
 -14   1  12-5166.80 6662.09   5
  14  -1 -12-1776.43 4748.63  14
 -14  -1  12 8220.27 7466.78   2
 -14  -1  12-1433.00 3521.69   4
  14   1  12 676.821 3455.54   8
  14  -1 -12 635.375 3604.31   1
 -14   1  12-1735.55 3574.22   2
  14  -1  12-863.376 692.988   8
 -14   1  12 1298.63 4361.45   4
  14   1 -12 1846.84 5417.29   1
 -14  -1  13-5794.44 3868.16   5
 -14   1  13 2883.30 4373.86   5
  14  -1 -13-2547.30 3172.14  14
 -14  -1  13 298.721 2793.54   2
 -14  -1  13 3712.63 4731.04   4
  14   1  13 6595.47 6939.66   8
 -14   1  13-1446.66 4595.43   2
  14  -1  13-1083.36 1064.21   8
  14  -1 -13-2248.54 6805.83   1
 -14   1  13 2637.10 2125.90   4
  14   1 -13 2452.97 3651.50   1
 -14  -1  14 2850.23 6627.90   5
 -14  -1  14-494.098 1817.47   2
 -14  -1  14-1191.84 4657.93   4
  14  -1  14-1609.42 4171.30   8
  14   1 -14 9112.41 7726.41   1
 -14  -1  15 1618.62 2987.62   5
 -14  -1  15 6994.62 8139.23   2
 -14  -1  15 873.431 1028.29   4
  14  -1  15 1516.82 4069.72   8
  14   1 -15-2215.87 2722.22   1
 -14  -1  16-7500.50 4575.08   5
 -14  -1  16-3065.48 5835.37   2
 -14  -1  16 3570.19 4943.59   4
  14  -1  16-4668.11 4023.12   8
  14   1 -16 9159.31 7948.21   1
 -14  -1  17 6807.47 5563.48   5
 -14  -1  17 3243.94 6832.20   2
  14  -1  17 3849.27 2724.63   8
  14   1 -17 317.942 7305.06   1
 -14  -1  18 1621.83 3441.55   5
 -14  -1  18-3904.19 4481.01   2
  14  -1  18 2653.30 4118.21   8
  14   1 -18 1505.53 5051.23   1
 -14  -1  19 12164.1 7344.54   5
 -14  -1  19 5112.99 6038.58   2
  14  -1  19 4392.52 5792.26   8
  14   1 -19-1066.69 7415.11   1
  14  -1  20 2692.99 5955.72   8
  14  -1  21 4206.55 2746.68   8
  14  -1  22-5255.48 4181.46   8
  14  -1  23 10424.8 5683.68   8
  14  -1  24 1112.86 2015.81   8
   1  14 -25 4837.54 8136.29  11
   1  14 -26 1306.92 1612.17  11
  -1  14 -26-6537.93 9542.73  11
   1  14 -27 6558.19 10613.4  11
 -14   2   0 1707.06 524.266   5
  14  -2   0-3197.87 4440.98  14
 -14   2   0 5518.10 5815.98   4
  14  -2   0-224.122 2183.67   1
 -14   2  -1 784.039 3837.50   5
 -14   2   1 2459.91 4307.95   5
  14  -2   1-1656.36 1212.91  14
  14  -2  -1 694.416 3168.48  14
  14  -2   1 12.1077 3269.90   1
 -14   2  -1 784.300 1202.90   4
 -14   2   1 9521.97 7742.94   4
  14   2   1-1479.82 4506.38   8
  14   2  -1-2687.10 4766.49   8
  14  -2  -1 4276.13 5290.43   1
 -14   2  -2-4760.80 4542.62   5
 -14   2   2 13629.4 9209.06   5
  14  -2  -2 821.612 5755.59  14
  14  -2   2 3641.98 5281.17   1
 -14   2  -2-4055.09 6084.42   4
 -14   2   2-2465.70 4214.95   4
  14   2   2 1724.52 3555.47   8
  14   2  -2 1656.99 2415.58   8
  14  -2  -2 2099.01 7658.87   1
  14  -2  -3 3348.28 8629.20   1
  14  -2   3 2592.88 2763.36   1
 -14   2   3 327.251 3406.73   5
  14  -2  -3-301.419 2168.00  14
 -14   2  -3-5871.32 5541.54   4
  14   2   3 929.683 2050.98   8
 -14   2   3 2463.77 3379.37   4
  14   2  -3 8469.08 5508.27   8
 -14   2   4-6826.38 7420.85   5
  14  -2  -4 3676.14 583.592   1
  14  -2  -4 4521.44 5021.66  14
 -14   2  -4-4902.74 4257.98   4
  14   2   4 2836.97 4980.96   8
 -14   2   4-3033.46 6749.50   4
  14   2  -4 6176.47 4101.54   8
 -14   2   5-5053.05 6831.84   5
  14  -2  -5-2570.81 5711.65  14
  14  -2  -5-12713.5 15230.0   1
  14   2   5-4454.79 4414.72   8
 -14   2   5-11511.4 8564.23   4
  14  -2   5-1050.69 3415.32   8
 -14   2   6 11927.4 10724.9   5
  14  -2  -6 456.955 5602.49  14
  14  -2  -6-8794.86 13635.2   1
 -14   2   6 12429.1 5135.87   2
  14   2   6 12053.3 6244.74   8
 -14   2   6-336.495 5049.14   4
  14  -2   6 2362.28 3817.84   8
 -14   2   7 10449.6 8121.29   5
  14  -2  -7 5714.09 3997.63  14
  14   2   7 6893.66 6441.38   8
 -14   2   7 3651.54 6072.99   2
  14  -2  -7 6125.95 13458.3   1
 -14   2   7 7069.42 6836.95   4
  14  -2   7 5863.59 5484.91   8
 -14   2   8 4862.84 6309.42   5
  14  -2  -8 333.422 3517.74  14
  14   2   8 8661.26 814.748   8
 -14   2   8 18805.0 8461.11   2
 -14   2   8 9808.28 5729.37   4
  14  -2  -8 5375.08 20532.8   1
  14  -2   8 12028.2 8356.77   8
  14   2  -9-31.7461 1126.55   1
 -14   2   9-11989.0 8473.35   5
  14  -2  -9 434.810 6087.33  14
  14   2   9 4751.45 5399.87   8
 -14   2   9-136.591 2745.78   2
 -14   2   9-7277.81 3960.92   4
  14  -2   9 1610.47 3470.79   8
  14  -2  -9-2676.80 7853.15   1
  14   2 -10-118.599 4779.76   1
 -14   2  10-21458.9 11756.8   5
  14   2  10 22804.7 14239.1   8
 -14   2  10 726.795 4492.67   2
  14  -2  10-1586.00 2688.92   8
 -14   2  10 1492.60 1836.38   4
  14  -2 -10-54.6583 2310.92   1
 -14  -2  10-2445.73 3143.63   2
 -14  -2  11 1530.59 3280.75   2
  14   2 -11 2700.88 3403.61   1
 -14  -2  11-1144.84 772.514   4
  14   2  11-2643.84 5381.98   8
  14  -2  11 4870.60 3830.30   8
 -14  -2  12 5541.31 6031.62   2
  14   2 -12-7767.54 8666.46   1
 -14  -2  12 2314.18 2409.06   4
  14   2  12 1943.60 859.102   8
  14  -2  12 5426.19 5560.99   8
 -14  -2  13 4913.66 5435.53   2
  14   2 -13-3938.40 4158.47   1
 -14  -2  13-7633.21 4873.52   4
  14   2  13-9882.64 13100.4   8
  14  -2  13 2444.11 4100.57   8
 -14  -2  14-3644.53 3766.42   5
 -14  -2  14 5109.56 5049.39   2
 -14  -2  14 5500.74 5649.73   4
  14   2 -14-5645.04 6840.41   1
  14   2  14-7252.98 10163.1   8
  14  -2  14 7044.41 5425.66   8
 -14  -2  15 4026.04 4861.47   5
 -14  -2  15-5871.10 3325.29   2
 -14  -2  15-1704.58 2009.37   4
  14   2 -15 5830.59 6294.48   1
  14  -2  15 2675.03 3664.65   8
 -14  -2  16-1691.71 4811.58   5
 -14  -2  16 1245.87 3020.28   2
 -14  -2  16 140.367 4858.85   4
  14   2 -16 1367.72 701.175   1
  14  -2  16-734.466 1582.64   8
 -14  -2  17-4671.14 3899.13   5
 -14  -2  17 5635.31 3430.16   2
  14   2 -17-806.265 5083.59   1
  14  -2  17 150.094 1403.87   8
 -14  -2  18-2780.93 2744.09   5
 -14  -2  18 685.602 4785.79   2
  14   2 -18 332.682 3936.34   1
  14  -2  18 7501.50 5565.13   8
 -14  -2  19 1975.80 895.680   5
 -14  -2  19 3847.77 6313.66   2
  14   2 -19 5684.61 9384.56   1
  14  -2  19-1778.29 2551.18   8
 -14  -2  20 2197.62 2531.56   5
 -14  -2  20 4279.16 5018.02   2
  14   2 -20-432.680 3121.52   1
  14  -2  20 7123.30 8638.27   8
 -14  -2  21 2935.91 5084.66   5
 -14  -2  21-6758.15 5860.10   2
  14  -2  21 2147.05 3902.10   8
  14   2 -21 6234.93 9564.61   1
 -14  -2  22 4637.72 3273.49   5
 -14  -2  22 4167.77 6212.80   2
  14  -2  22-2909.30 4990.31   8
  14   2 -22-393.790 1899.67   1
  14  -2  23 542.253 1060.16   8
  14  -2  24 1922.68 2388.58   8
   2  14 -25 3269.21 5212.12  11
  14  -2  25-397.465 1307.46   8
   2  14 -26 3306.99 11059.1  11
  14  -2  26-1838.39 1855.25   8
   2  14 -27-4007.70 5233.78  11
  14  -3   0 1112.04 9087.08   1
 -14   3   0-5287.83 6414.76   5
  14  -3   0-39.3178 4520.88  14
  14   3   0 4667.90 3815.48   8
 -14   3   0 13345.0 11515.9   4
  14   3   0 826.278 2157.46  18
 -14   3  -1 10565.6 6361.10   5
 -14   3   1 20241.1 10590.4   5
  14  -3  -1-331.636 5273.42   1
  14  -3   1 2348.34 5028.47  14
  14  -3  -1-943.585 4767.15  14
  14   3   1 29485.8 9926.17   8
 -14   3  -1 14928.1 10346.7   4
  14   3  -1 23239.6 9354.23   8
 -14   3   1 10366.3 5190.11   4
  14  -3   1 8826.92 14391.8   1
  14  -3  -1 8980.75 8102.00   6
  14   3   1 18157.5 6509.43  18
 -14   3  -2-2259.98 4041.55   5
 -14   3   2-6691.96 6522.05   5
  14  -3   2-1680.40 1179.90  14
  14  -3  -2-8534.74 6313.33  14
  14  -3  -2-4597.33 11533.1   1
 -14   3  -2 654.692 2726.37   4
  14   3   2 3132.62 4109.73   8
  14   3  -2 5317.99 3294.48   8
 -14   3   2 1479.79 2510.00   4
  14  -3   2-2329.50 1582.28   1
  14   3   2-1924.69 2038.17  18
  14  -3  -2 2084.82 4243.73   6
 -14   3  -3-1874.36 2241.58   5
  14  -3   3 1695.26 3216.09  14
 -14   3   3 4835.53 6104.20   5
  14  -3  -3-2218.55 6159.08  14
  14  -3   3 2093.09 4416.08   1
 -14   3  -3 235.133 2088.16   4
  14   3   3 2981.61 3656.65   8
 -14   3   3 10699.0 6902.10   4
  14   3  -3 2716.92 3860.81   8
  14   3   3 230.772 1361.02  18
  14  -3  -3-9057.47 6367.29   6
 -14   3  -4-1749.32 812.745   5
  14  -3   4-680.066 4291.65  14
 -14   3   4-2365.65 2301.66   5
  14  -3  -4 1757.74 8998.15  14
  14  -3   4 1787.95 1981.55   1
 -14   3  -4 9195.95 6288.16   4
  14   3   4-856.016 1848.36   8
  14  -3  -4-156.369 3748.84   1
 -14   3   4-1989.93 4470.30   4
  14   3  -4 583.046 3505.15   8
  14   3   4-927.752 1848.88  18
  14  -3  -4 4361.68 3410.34   6
  14  -3   5 1745.55 3423.66   1
 -14   3   5-15011.0 8209.37   5
  14  -3  -5 8416.76 13176.1  14
 -14   3  -5-1246.73 4493.53   4
  14   3   5 7218.39 7283.94   8
 -14   3   5-6136.67 7963.92   4
  14   3  -5-4910.55 3219.88   8
  14  -3  -5 3609.10 14823.3   1
 -14   3   6-3306.53 4311.10   5
 -14   3  -6 4248.79 4032.40   4
  14   3   6 12970.9 9853.11   8
 -14   3   6 192.647 5569.50   4
  14   3  -6 16384.9 9730.51   8
 -14   3   7 22041.2 11934.2   5
 -14   3  -7-2002.19 4239.36   4
  14   3   7 3372.16 7106.15   8
 -14   3   7 27249.3 13494.3   4
  14   3   8-7016.44 10816.4   8
  14   3   9-951.988 5230.79   8
  14  -3   9-1688.81 1651.30   8
  14   3  10-619.373 5545.99   8
  14  -3  10-1308.39 2311.23   8
  14   3  11 10946.9 9282.66   8
  14  -3  11 3501.09 4534.46   8
  14   3  12 12723.8 9831.05   8
  14  -3  12 9426.99 6517.44   8
  14  -3  13 9426.64 6162.45   8
 -14  -3  13 4604.62 4081.76   2
  14  -3  14 2106.90 1612.06   8
 -14  -3  14 4158.35 4075.53   2
  14   3 -15-2279.82 3598.79   1
  14  -3  15 5990.98 4839.93   8
 -14  -3  15 3975.83 6570.50   2
 -14  -3  16 2769.67 3274.31   2
  14   3 -16-1502.31 1519.06   1
  14  -3  16 74.4645 1680.35   8
 -14  -3  17 1505.67 1671.17   2
  14   3 -17 1070.02 1684.00   1
  14  -3  17 102.855 3088.16   8
 -14  -3  18 1829.87 3877.95   2
  14   3 -18 299.661 3918.73   1
  14  -3  18 5320.20 5800.52   8
 -14  -3  19 6187.68 6679.07   2
  14   3 -19-2509.41 5480.58   1
  14  -3  19 1104.74 3191.07   8
 -14  -3  20 3918.54 5802.90   2
  14   3 -20 1636.91 2040.94   1
  14  -3  20-36.7065 1420.40   8
 -14  -3  21 1859.85 3744.13   2
  14   3 -21-3682.24 5962.35   1
  14  -3  21 1906.57 2727.69   8
 -14  -3  22-1627.91 3418.34   2
  14   3 -22 3475.74 7008.44   1
  14  -3  22 9139.48 5635.05   8
 -14  -3  23 974.321 3226.47   2
  14   3 -23-27.5622 3151.87   1
  14  -3  23-2866.83 4968.56   8
 -14  -3  24-1903.71 5151.66   2
  14   3 -24-1380.16 5688.65   1
  14  -3  24 2368.24 3429.72   8
   3  14 -25 10861.1 13859.7  11
  14  -3  25 4921.49 5082.89   8
   3  14 -25-60.9484 3396.66  18
   3  14 -26 13359.4 11697.2  11
  14  -3  26 2120.96 3225.11   8
   3  14 -27-3068.30 9766.65  11
  14  -3  27-1914.06 4731.12   8
  14  -3  28 3887.02 4529.73   8
 -14   4   0 19912.6 10365.9   5
  14  -4   0 7405.01 12560.0  14
  14   4   0 18670.7 6810.38  11
  14  -4   0 7502.90 12998.7   1
  14   4   0 39224.3 12204.9   8
 -14   4   0 35180.6 14150.5   4
  14   4   0 29017.8 9688.55  18
  14  -4   0 22198.4 12233.4   6
 -14   4  -1 9339.94 7462.37   5
 -14   4   1 6676.44 6862.26   5
  14  -4   1 1934.16 7640.28  14
  14  -4  -1 8686.25 12271.4  14
  14  -4   1 4032.01 5091.57   1
  14   4  -1 1576.79 3895.38  11
  14   4   1 9263.54 7265.55   8
  14   4  -1 1215.21 1309.78   8
 -14   4  -1-6498.24 8397.56   4
  14  -4  -1 14491.6 13308.3   1
 -14   4   1 8306.96 7652.25   4
  14   4   1 1099.83 3738.66  18
  14   4  -1 7139.37 5663.39  18
  14  -4   1 4099.21 5342.59   6
  14  -4  -1 29061.8 10839.4   6
  14  -4   2 4673.57 8243.00   1
 -14   4  -2 24781.2 9485.61   5
 -14   4   2 18155.9 9693.29   5
  14  -4   2 98.1126 4646.99  14
  14   4  -2 13624.5 4954.09  11
  14   4   2 16192.3 9247.16   8
  14   4  -2 23630.7 9757.18   8
 -14   4  -2 7341.13 7646.42   4
 -14   4   2 24774.8 10326.0   4
  14   4   2 17426.5 7447.36  18
  14   4  -2 16841.9 7044.73  18
 -14   4  -3 2873.77 3219.33   5
  14  -4   3 2183.46 6127.10  14
 -14   4   3-5463.91 6893.47   5
  14   4  -3 9871.16 5517.50  11
  14   4   3 19876.5 10625.0   8
 -14   4  -3 603.691 6372.09   4
  14   4  -3 10784.2 7094.40   8
 -14   4   3 7632.28 6686.64   4
  14   4   3-674.113 5045.59  18
  14  -4   3-789.680 4459.07   1
  14   4  -3 3097.28 3004.70  18
 -14   4  -4-3835.50 5907.39   5
  14  -4   4 12.1038 3648.92  14
  14   4   4-3736.86 4562.43   8
 -14   4  -4-4765.25 6805.88   4
  14   4  -4 1586.30 3013.35   8
  14  -4   4-771.723 4670.71   1
  14   4   4 1392.14 3862.43  18
 -14   4  -5 4466.75 5125.92   5
  14  -4   5 2787.21 7077.73  14
  14  -4   5-2.45693 3319.41   1
  14   4   5 4109.32 8035.43   8
 -14   4  -5 2212.94 4103.17   4
  14   4  -5 2279.09 281.032   8
  14   4   5 9593.93 8056.39  18
 -14   4  -6-555.107 2437.34   5
  14  -4   6 2157.41 3114.14  14
  14  -4   6-9146.08 9459.77   1
  14   4   6-717.501 7880.06   8
 -14   4  -6-2855.43 7674.55   4
  14   4  -6 3426.97 3002.82   8
  14  -4   7 597.124 5620.89  14
 -14   4  -7 863.178 1744.09   4
  14   4   7 9940.79 10263.4   8
  14   4  -7 20553.6 8355.87   8
 -14   4  -8-4278.68 4526.28   4
  14   4   8 4097.71 5634.44   8
 -14   4  -9 3889.81 5082.48   4
  14   4   9 1965.29 5816.26   8
  14  -4  13-421.929 2427.80   8
  14  -4  14 9405.07 6529.40   8
  14  -4  15 19705.4 8356.65   8
  14  -4  16 1719.44 3777.85   8
  14  -4  17 2113.26 2932.07   8
  14  -4  18-1853.57 3445.80   8
 -14  -4  18-10530.3 7285.18   2
  14  -4  19 1.53570 1663.15   8
 -14  -4  19 2936.18 3197.42   2
  14  -4  20 1923.89 3869.85   8
 -14  -4  20-3034.69 4453.32   2
  14  -4  21 61781.2 16086.9   8
 -14  -4  21 5833.88 4443.71   2
 -14  -4  22-4242.60 6395.87   2
  14  -4  22 6713.73 6999.01   8
 -14  -4  23 4833.00 7726.76   2
  14  -4  23 1203.83 1497.38   8
 -14  -4  24-570.371 2769.72   2
  14  -4  24 1974.50 4023.55   8
 -14  -4  25 4225.67 5873.66   2
   4  14 -25-265.527 5333.17  11
  14  -4  25-1174.86 2661.02   8
   4  14 -25 11356.1 12049.3  18
 -14  -4  26 17225.2 11560.2   2
   4  14 -26 13998.2 14380.0  11
  14  -4  26 1470.68 4277.57   8
 -14  -4  27-2890.01 4340.86   2
   4  14 -27 7814.69 10227.5  11
  14  -4  27 2873.40 5640.78   8
  14  -4  28 4287.03 6192.41   8
  14  -4  29 4216.90 5483.98   8
 -14   5   0 21937.6 9950.20   5
  14  -5   0 8447.41 19781.2  14
  14   5   0 28151.6 12205.7   8
 -14   5   0 34618.2 17098.3   4
  14   5   0 25775.7 12493.8  18
 -14   5  -1 23779.3 10605.1   5
  14  -5   1 6230.45 13992.1  14
  14   5   1 33889.4 15659.8   8
  14   5  -1 18018.7 6787.68   8
 -14   5  -1 38939.7 17255.7   4
  14  -5   1 20215.1 24544.0   1
  14   5   1 32257.7 14867.2  18
  14   5  -1 26514.8 8964.98  18
  14  -5   1 42725.0 20993.5   6
 -14   5  -2 28708.8 11660.8   5
  14  -5   2 4975.45 10892.1  14
  14   5   2 7046.13 7811.80   8
  14   5  -2 13715.1 6020.24   8
  14  -5   2 9261.96 22997.9   1
 -14   5  -2 26916.7 13671.0   4
  14   5   2 30178.1 11974.9  18
  14   5  -2 10469.7 6139.77  18
  14  -5   2 25815.0 18740.7   6
 -14   5  -3 11336.4 8487.50   5
  14  -5   3 218.728 7802.98  14
  14   5  -3 5.54856 2316.65  11
  14  -5   3-1561.80 8209.53   1
  14   5   3 6177.89 1678.39   8
  14   5  -3 6779.79 5462.39   8
 -14   5  -3 40.3608 7159.20   4
  14   5   3 12278.7 7830.45  18
  14   5  -3 4344.93 4178.83  18
  14  -5   3 10436.4 11407.0   6
  14  -5   4-8285.86 9251.54   1
 -14   5  -4 19904.8 10099.0   5
  14  -5   4 2236.90 9156.00  14
  14   5  -4 16305.6 7231.93  11
  14   5   4 16797.2 10186.5   8
  14   5  -4 17636.3 8118.84   8
 -14   5  -4 6913.69 9324.70   4
  14   5   4 10264.0 7196.78  18
  14   5  -4 16902.5 6732.00  18
 -14   5  -5-688.450 1942.98   5
  14  -5   5 800.907 3382.81  14
  14   5  -5 133.003 2569.83  11
  14   5   5-1889.28 4631.48   8
 -14   5  -5 1542.75 2744.84   4
  14   5  -5-1578.05 3880.75   8
  14   5   5 700.322 4703.57  18
  14  -5   5 2186.57 5163.18   1
  14   5  -5-2370.33 4627.14  18
 -14   5  -6 14016.0 8214.38   5
  14  -5   6-55.8426 3135.66  14
  14   5  -6 13119.0 7432.21  11
  14   5   6 10429.2 8448.22   8
 -14   5  -6 5458.84 7801.54   4
  14  -5   6 28.3142 5318.10   1
  14   5  -6 9769.26 4093.87   8
  14   5  -6 11564.5 5770.67  18
 -14   5  -7 6680.65 6281.86   5
  14  -5   7-665.005 3116.53  14
  14  -5   7 1522.74 4205.64   1
 -14   5  -7-3215.47 5900.72   4
  14   5  -7-632.906 1728.91   8
 -14   5  -8 2047.85 2741.97   5
  14  -5   8 5824.22 6198.00   1
  14  -5   8 1742.30 5073.34  14
 -14   5  -8 7668.33 6314.41   4
  14  -5   9 1416.48 6131.66  14
 -14   5  -9 287.755 2387.03   4
 -14   5 -10 2714.31 5883.53   4
  14  -5  20 8215.09 14956.7   8
  14  -5  21 52887.6 17651.6   8
  14  -5  22-672.751 2798.51   8
  14  -5  23 2486.47 5006.35   8
  14  -5  24 498.388 2019.09   8
   5  14 -25 6132.45 10781.1  11
  14  -5  25-701.536 3515.96   8
   5  14 -25-3153.02 702.471  18
   5  14 -26 13793.8 14682.8  11
  14  -5  26-861.306 1165.22   8
  14  -5  27-3907.07 5764.02   8
 -14  -5  27 3721.72 6124.24   2
  14  -5  28 3273.86 6338.00   8
 -14  -5  28-82.5781 2604.94   2
 -14  -5  29-1843.56 4259.96   2
  14   6   0 15509.0 5981.04   8
  14   6   0 16439.2 7318.77  18
  14   6   1 8466.93 8822.88   8
  14   6  -1 7172.32 9670.31   8
  14   6   1 12805.5 5990.09  18
  14   6  -1 8589.25 7706.94  18
  14   6   2 8010.35 7576.51   8
  14   6  -2 27455.2 11943.7   8
  14   6   2 1556.97 5551.68  18
  14   6  -2 17835.8 6369.90  18
 -14   6  -3 15799.3 11293.7   5
  14  -6   3 3635.08 7293.40  14
  14   6  -3 21078.4 9624.45   8
 -14   6  -3 10292.3 9485.10   4
  14  -6   3 2323.61 4334.83   1
  14   6  -3 29625.2 13139.5  18
  14  -6   3-4113.69 4782.86   6
 -14   6  -4 9930.57 8963.06   5
  14  -6   4-337.165 5090.26  14
  14   6  -4 4046.18 1884.87   8
  14  -6   4-1678.13 10200.1   1
 -14   6  -4 524.300 6039.22   4
  14   6  -4-873.014 4463.84  18
  14  -6   4 4674.03 4212.21   6
 -14   6  -5 25596.6 13827.9   5
  14  -6   5-1189.70 6315.09  14
  14  -6   5 6.41805 2592.06   1
  14   6  -5 28914.8 11445.9  11
  14   6  -5 24490.1 10045.3   8
 -14   6  -5 9219.17 10729.7   4
  14   6  -5 23324.2 9790.66  18
  14  -6   5 12954.8 13293.0   6
  14  -6   6-3837.59 6054.88   1
 -14   6  -6 10961.2 4487.44   5
  14  -6   6 69.6635 2037.49  14
  14   6  -6-3365.29 6293.64  11
  14   6  -6-1471.60 3788.45   8
 -14   6  -6 8872.09 10340.2   4
  14   6  -6-3630.53 3973.70  18
 -14   6  -7 6561.80 4213.96   5
  14  -6   7-245.615 3453.20  14
  14   6  -7 877.849 5360.40  11
 -14   6  -7 19384.8 11305.9   4
  14   6  -7 26518.6 9105.59   8
  14  -6   7 4287.94 12852.2   1
  14   6  -7 13757.9 6101.42  18
 -14   6  -8-3922.56 5817.66   5
  14  -6   8 3421.76 8906.27  14
  14   6  -8 2119.78 6824.28  11
  14  -6   8 639.379 4681.34   1
 -14   6  -8-2615.18 6584.51   4
  14   6  -8 7756.76 6706.19  18
 -14   6  -9 3509.77 4394.23   5
  14  -6   9-3331.57 3069.62  14
  14   6  -9 1133.26 8447.82  11
 -14   6  -9 15227.6 9669.14   4
  14  -6  10-3012.62 5900.61  14
 -14   6 -10 6131.88 8119.02   4
  14  -6  11 11453.9 6349.87  14
 -14   6 -11 2849.40 3823.65   4
 -14   6 -12 6678.35 5284.17   4
   6  14 -24-6122.35 7734.81  11
   6  14 -25 4114.41 7969.36  11
   6  14 -26 1920.57 6977.68  11
  14   7  -1 5372.29 6327.12   8
  14   7  -1 1718.23 4069.09  18
  14   7  -2-3277.11 5476.73   8
  14   7  -2 13899.9 9831.34  18
  14   7  -3-16388.6 11166.6   8
  14   7  -3 4894.44 2290.87  18
  14   7  -4 26121.6 9976.03   8
  14   7  -4 34321.7 16242.0  18
  14   7  -5 9475.78 7014.15   8
  14  -7   5 3047.56 9853.57   1
  14   7  -5-556.799 5992.74  18
 -14   7  -6 24811.3 10627.9   5
  14  -7   6 3316.24 4230.79  14
  14  -7   6 3819.48 11877.7   1
  14   7  -6 22594.6 8048.35   8
 -14   7  -6 15323.3 8186.73   4
  14   7  -6 15477.1 8179.59  18
  14  -7   6 661.985 7929.92   6
 -14   7  -7 47644.7 20693.6   5
  14  -7   7 7739.11 9641.33   1
  14  -7   7 187.508 7395.74  14
  14   7  -7 25696.7 11555.6  11
 -14   7  -7 28652.1 17759.8   4
  14   7  -7 10220.7 1360.83  18
  14  -7   7 7093.03 10841.5   6
  14  -7   8-6081.10 7133.89  14
  14   7  -8-1644.66 8219.11  11
  14   7  -8 861.465 6028.25  18
 -14   7  -9-3234.09 7137.87   5
  14  -7   9 2444.09 2038.08  14
  14   7  -9 2553.80 7569.85  11
 -14   7  -9 7070.80 8285.25   4
  14   7  -9 10185.8 7362.00  18
 -14   7 -10 2539.68 4485.90   5
  14  -7  10 10510.1 10243.5  14
  14   7 -10 1658.26 8639.36  11
 -14   7 -10 4069.02 7407.95   4
  14   7 -10 1080.05 7224.76  18
  14  -7  11-4911.07 6240.02  14
  14   7 -11 800.976 5777.12  11
 -14   7 -11 810.638 2756.77   4
  14  -7  12 5313.13 8513.51  14
 -14   7 -12-677.599 3200.05   4
  14  -7  13 5.98335 2220.78  14
 -14   7 -13 1413.03 4150.97   4
   7  14 -24 2714.02 10825.0  11
   7  14 -25 2222.38 6194.27  11
   7  14 -26 12388.5 13280.2  11
  14   8  -4-9376.62 9913.82   8
  14   8  -4 18082.3 11766.1  18
  14   8  -5 23777.0 11440.6   8
  14   8  -5 11113.8 9316.47  18
  14   8  -6 44461.3 18017.1  18
  14   8  -7 6564.59 3542.57  18
 -14   8  -8 9040.03 6842.20   4
  14   8  -8 13398.4 8187.29  18
  14  -8   8 11002.7 12596.1   6
 -14   8  -9 30770.5 16639.1   5
  14  -8   9-2262.09 5754.82  14
  14   8  -9 4335.28 1623.15  11
 -14   8  -9 22810.1 21779.0   4
  14   8  -9 2396.06 2597.21  18
  14  -8  10 1221.07 4515.22  14
  14   8 -10-80.5196 6797.96  11
  14   8 -10 186.813 1697.97  18
  14  -8  11 4361.68 5691.73  14
  14   8 -11 771.867 5007.55  11
 -14   8 -11-2058.51 7928.98   4
  14   8 -11 780.924 7203.05  18
  14  -8  12-318.567 9228.44  14
  14   8 -12 717.397 2810.64  11
 -14   8 -12-892.074 4735.35   4
  14   8 -12 717.266 4164.32  18
  14  -8  13 1944.03 5895.64  14
  14   8 -13 1297.83 10813.0  11
 -14   8 -13 3467.87 2792.19   4
  14  -8  14 49.1372 2783.17  14
 -14   8 -14 4012.51 4530.96   4
 -14   8 -15 5016.34 5886.38   4
   8  14 -24-1257.56 8310.41  11
   8  14 -25 8052.63 13678.7  11
  14   9  -7 9993.15 9577.01  18
  14   9  -8-6250.01 6206.21  18
  14   9  -9 63.2413 6081.10  18
  14   9 -10 8634.28 6980.47  18
  14   9 -11 641.436 4345.99  11
  14   9 -11-8272.18 4376.52  18
  14  -9  12-951.971 4593.53  14
  14   9 -12-1937.12 4543.44  11
 -14   9 -12-3144.43 6980.67   4
  14   9 -12-1422.27 4265.45  18
  14  -9  13-61.2248 6038.92  14
  14   9 -13 1424.07 7092.49  11
 -14   9 -13-1790.33 7608.82   4
  14   9 -13 1549.69 8095.51  18
  14  -9  14-643.512 5712.92  14
  14   9 -14 1294.98 8004.76  11
 -14   9 -14 558.537 4514.36   4
  14   9 -14 438.437 1417.49  18
  14  -9  15 526.056 4895.23  14
  14   9 -15-784.875 9789.56  11
 -14   9 -15-4535.01 5548.12   4
  14  -9  16 676.409 5246.52  14
 -14   9 -16-106.996 3409.27   4
   9  14 -25 403.659 7545.19  11
  14  10 -10 2086.20 5889.38  18
  14  10 -11-14733.1 9557.07  18
  14  10 -12 21384.2 13138.2  11
  14  10 -12 11769.4 6237.98  18
  14  10 -13-107.085 1880.25  11
  14  10 -13 1164.67 4768.18  18
  14  10 -14 524.761 5311.91  11
  14  10 -14 1767.83 7789.59  18
  14 -10  15 64.7031 7282.69  14
  14  10 -15 3827.29 8191.64  11
 -14  10 -15 5075.99 4303.58   4
  14  10 -15 926.402 2682.45  18
  14 -10  16 192.331 6262.17  14
  14  10 -16 466.186 2489.25  11
 -14  10 -16-4721.29 5104.11   4
  14 -10  17-3957.19 6456.06  14
  14  11 -13 27843.5 16797.7  11
  14  11 -13 19343.5 10940.6  18
  14  11 -14-4706.72 14574.8  11
  14  11 -14 851.784 9773.46  18
  14  11 -15-1458.62 933.127  11
  14  11 -15-188.614 10036.2  18
  14  11 -16 361.835 8482.48  11
  14  11 -16 556.471 4415.65  18
  14  11 -17-106.789 4903.72  11
  14  11 -17-1238.84 4532.30  18
  14  11 -18 3702.25 8650.17  11
  14  12 -17 2937.03 6757.78  11
  14  12 -17 1586.54 3837.68  18
  14  12 -18 3130.16 12433.8  11
  14  12 -18 2729.81 11314.5  18
  14  12 -19 3895.23 13437.1  11
  15   0   1-728.227 2262.60   8
  15   0   2 198.795 3008.76   8
  15   0  -3 946.391 7082.53   1
 -15   0   3 1763.26 2329.89   4
  15   0   3 3769.16 3669.52   8
  15   0  -4 2256.72 7178.01   1
 -15   0   4 1076.02 2450.19   4
  15   0   4-738.296 1571.40   8
  15   0  -5-1065.81 1560.36   1
 -15   0   5-2106.98 3202.15   4
  15   0   5-1434.87 4498.72   8
 -15   0   6-4644.46 4403.70   5
  15   0  -6-444.630 5703.78   1
 -15   0   6-3773.95 4556.05   4
  15   0   6-614.598 2362.01   8
 -15   0   7-1837.43 3602.35   5
 -15   0   7 8190.40 5333.01   2
 -15   0   7 9588.00 5746.39   4
  15   0  -7 1445.32 5335.59   1
  15   0   7 1185.24 4052.76   8
 -15   0   8-3365.38 4405.22   5
 -15   0   8 1971.01 4452.38   2
 -15   0   8 3147.54 2973.24   4
  15   0  -8-2572.66 3910.12   1
  15   0   8 1105.57 2603.98   8
 -15   0   9-7784.77 7095.20   5
 -15   0   9-5572.52 4448.03   2
 -15   0   9-775.499 3927.98   4
  15   0   9 4928.58 5279.87   8
  15   0  -9 2186.84 3384.73   1
 -15   0  10 1588.79 4941.93   5
 -15   0  10 609.539 3140.76   2
 -15   0  10 5621.47 5000.31   4
  15   0  10-854.918 628.496   8
  15   0 -10 1057.85 2409.62   1
 -15   0  11-177.043 835.308   5
 -15   0  11-1212.83 4505.25   2
 -15   0  11-3251.06 5639.40   4
  15   0  11-4682.79 5925.42   8
  15   0 -11-809.017 7031.91   1
 -15   0  12-1302.20 3327.19   5
 -15   0  12-6562.14 5420.33   2
 -15   0  12 12654.0 9571.33   4
  15   0  12 5935.34 4891.96   8
  15   0 -12 3939.59 7052.76   1
 -15   0  13-1745.55 1947.78   5
 -15   0  13 10531.9 7903.84   2
 -15   0  13 4500.72 5251.57   4
  15   0  13 4101.62 6362.80   8
  15   0 -13 17108.5 14015.0   1
  15   0 -14 392.170 385.495   1
 -15   0  14 3447.17 4757.61   5
 -15   0  14-4710.64 6427.39   2
  15   0  14 3295.72 1154.24   8
 -15   0  14 8774.90 6066.42   4
  15   0 -15 11044.0 7178.81   1
 -15   0  15-725.503 5122.58   5
  15   0 -15 2260.88 5342.67  14
 -15   0  15-3207.75 5560.85   2
  15   0  15 386.645 2788.76   8
 -15   0  15-484.767 3667.18   4
  15   0 -16-1210.48 5954.78   1
 -15   0  16 1582.73 324.193   5
 -15   0  16 7579.10 6994.17   2
 -15   0  16-588.224 1127.60   4
  15   0  17-15937.5 9178.70   8
  15   0  18 1660.58 4132.66   8
  15   0  19 4107.52 4874.34   8
  15   0  20 4833.93 5302.38   8
  15   0  21 11065.6 2383.09   8
 -15   1   0 5815.56 5613.59   4
  15   1   0 2839.89 6273.90   8
  15  -1  -1 825.898 5949.05   1
 -15   1  -1 9723.30 7624.92   4
 -15   1   1-2736.83 4149.19   4
  15   1   1-433.555 1583.60   8
  15   1  -1-2853.74 2573.42   8
 -15   1   2-2275.97 3381.02   5
  15  -1  -2-1658.97 5036.14   1
 -15   1   2-2329.79 2590.53   4
  15   1   2 1355.19 2368.01   8
 -15   1   3 1185.72 3189.75   5
  15  -1  -3 2178.02 5882.46   1
 -15   1   3 4605.16 5862.67   4
  15   1   3-1054.92 3471.77   8
  15  -1   3-3881.93 5182.35   8
 -15   1   4-1752.04 3076.18   5
 -15   1   4-6111.40 5831.39   4
  15  -1  -4 942.300 5843.50   1
  15   1   4-3898.02 4913.18   8
  15  -1   4 4484.95 4689.57   8
 -15   1   5-827.929 1942.83   5
  15   1   5-851.750 2483.85   8
 -15   1   6 6339.35 5973.49   5
  15  -1  -6 1145.05 3980.92  14
 -15   1   6-8658.29 6828.12   4
  15   1   6-2616.57 3616.84   8
  15  -1  -6 1309.47 6992.21   1
 -15   1   7 7946.49 6369.39   5
  15   1  -7 3795.05 6325.04   1
  15  -1  -7 3186.89 5727.70  14
 -15  -1   7 2855.49 4949.31   4
 -15   1   7-882.889 4880.06   4
  15   1   7 4020.99 5341.38   8
  15  -1  -7 8633.34 12647.5   1
 -15   1   8 3691.80 3594.07   5
  15  -1  -8 7294.52 6235.00  14
  15   1  -8-2157.64 6644.03   1
 -15   1   8 3968.95 4485.60   2
 -15  -1   8 10256.0 7612.72   4
 -15   1   8 4873.61 5862.23   4
  15   1   8 1197.33 2000.92   8
  15  -1   8-4186.31 5653.21   8
 -15  -1   8 8013.51 6800.07   2
  15  -1  -8 8494.79 13619.8   1
  15  -1  -9 4414.03 11054.9   1
 -15   1   9 15381.8 10861.9   5
  15  -1  -9 4990.91 9567.76  14
  15   1  -9-65.4481 5084.08   1
 -15   1   9 9083.33 8004.98   2
 -15  -1   9 9367.08 4773.29   4
  15   1   9 3894.97 4682.24   8
 -15   1   9 4694.71 6118.97   4
  15  -1   9 1681.94 3379.60   8
 -15  -1   9-2262.26 4702.65   2
 -15  -1  10 668.311 700.192   5
 -15  -1  10 950.403 3379.61   2
 -15   1  10 928.778 3355.16   5
  15  -1 -10-2918.08 9376.06   1
  15  -1 -10 10064.8 6158.09  14
  15   1 -10-1164.27 8009.18   1
 -15   1  10-1432.80 2304.68   2
 -15  -1  10 988.915 2902.34   4
  15   1  10 3148.41 3212.29   8
 -15   1  10-1842.44 4820.04   4
  15  -1  10 3438.84 4268.17   8
 -15  -1  11-47.5562 2995.56   5
 -15  -1  11 5951.65 4440.16   2
 -15   1  11 1451.04 3369.39   5
  15  -1 -11-2668.27 5746.91  14
  15  -1 -11-2403.39 10467.9   1
 -15   1  11-2575.71 5685.37   2
 -15  -1  11-2711.29 2146.81   4
  15   1 -11-5591.86 9487.35   1
  15   1  11 2790.04 4043.10   8
 -15   1  11 1982.00 3988.36   4
  15  -1  11 5525.61 4820.74   8
 -15  -1  12 1593.83 1833.71   5
 -15  -1  12-1279.07 3765.76   2
 -15   1  12 4032.49 6915.55   5
  15  -1 -12-10946.8 8368.65  14
  15  -1 -12 4175.46 5334.85   1
 -15  -1  12-1486.17 1658.69   4
 -15   1  12 8587.38 8759.26   2
  15   1 -12 9931.18 11555.8   1
  15   1  12 11149.3 2848.67   8
 -15   1  12 4253.69 1787.93   4
  15  -1  12 15405.4 8606.99   8
 -15  -1  13 1093.98 4017.43   5
 -15   1  13 7944.53 8477.21   5
 -15  -1  13-461.881 2277.34   2
  15  -1 -13-8097.80 12211.9   1
 -15  -1  13-3687.78 3960.20   4
 -15   1  13-4139.12 7692.65   2
  15   1  13-11531.1 9955.48   8
  15   1 -13-4729.91 4403.88   1
  15  -1  13 480.729 1442.74   8
 -15   1  13-3306.59 5693.31   4
 -15  -1  14 6394.93 6289.88   5
 -15  -1  14 6997.05 6263.85   2
 -15  -1  14 11029.1 4079.64   4
  15   1  14-819.665 7529.15   8
  15  -1  14 12346.5 6750.66   8
  15   1 -14 7913.72 9000.04   1
 -15  -1  15-2674.86 6757.29   5
 -15  -1  15 1217.63 2044.76   2
 -15  -1  15 7606.16 5624.35   4
  15   1  15 5822.32 5046.49   8
  15  -1  15-1721.58 3636.81   8
  15   1 -15-591.058 6107.75   1
 -15  -1  16-3972.40 5586.79   5
 -15  -1  16 481.499 3645.43   2
 -15  -1  16 7239.14 6667.78   4
  15  -1  16 7923.75 7300.90   8
  15   1 -16 6416.48 10352.5   1
 -15  -1  17-5993.49 8069.19   5
 -15  -1  17-4911.76 5546.50   2
  15  -1  17-514.770 3768.31   8
  15   1 -17 1484.16 7529.14   1
 -15  -1  18 4213.78 1157.88   5
 -15  -1  18 378.030 3907.26   2
  15  -1  18-1297.26 3769.83   8
  15   1 -18 9.67633 6017.29   1
 -15  -1  19-4464.12 4886.93   5
 -15  -1  19 332.321 2365.17   2
  15  -1  19 15.4330 1766.01   8
  15   1 -19-4829.32 4077.22   1
  15  -1  20 5098.16 5073.54   8
  15  -1  21 2147.37 2510.39   8
  15  -1  22 2947.79 4033.74   8
  15  -1  23-6955.96 6138.49   8
 -15   2   0-8063.19 6641.32   5
  15  -2   0 3776.98 7716.27   1
 -15   2   0 2325.66 4585.57   4
  15   2   0-2221.25 3975.77   8
 -15   2   1-1289.06 4500.75   5
  15  -2  -1 2639.06 5519.57  14
  15  -2   1 7615.65 9977.77   1
 -15   2  -1 12059.7 5041.43   4
 -15   2   1 3794.48 1537.39   4
  15  -2  -1 867.374 8244.40   1
  15   2   1 16856.2 6039.71   8
  15   2  -1 8434.91 4825.18   8
 -15   2   2-4526.36 6486.58   5
  15  -2   2 4295.19 8674.84   1
  15  -2  -2 701.497 1872.79  14
 -15   2  -2-3821.10 4362.46   4
 -15   2   2-1052.95 2880.88   4
  15   2   2 6600.42 5778.70   8
  15  -2  -2-4280.91 8242.32   1
  15   2  -2-2420.25 3785.23   8
 -15   2   3 2872.37 4153.77   5
  15  -2  -3 181.066 1706.63  14
 -15   2  -3-4464.32 5330.20   4
 -15   2   3 863.486 5306.84   4
  15   2   3 3427.80 2731.91   8
  15   2  -3 124.270 2126.68   8
  15  -2  -3 3363.95 7872.00   1
 -15   2   4-1602.64 5546.52   5
  15  -2  -4-2650.70 5066.17  14
 -15   2   4 7015.70 7431.86   4
  15   2   4 2108.94 3471.61   8
  15  -2  -4 14298.1 12154.7   1
  15  -2  -5-4169.93 4515.05   1
 -15   2   5-3838.46 790.255   5
  15  -2  -5 3171.87 1100.16  14
  15   2   5 3122.49 4505.26   8
 -15   2   5 7533.36 8127.40   4
 -15   2   6-923.549 3272.59   5
  15  -2  -6 5010.25 7657.80   1
  15  -2  -6 4588.29 6152.32  14
  15   2   6 2018.40 3600.82   8
 -15   2   6 2636.08 4987.12   4
  15  -2   6-1618.45 2769.49   8
 -15   2   7 7501.66 6440.40   5
  15  -2  -7-1169.08 329.249  14
  15  -2  -7-1337.52 7276.27   1
  15   2   7 1750.89 1932.30   8
 -15   2   7 852.057 1275.45   4
  15  -2   7-3686.44 5074.29   8
 -15   2   8-5714.70 4955.04   5
  15  -2  -8-11425.3 6814.14  14
  15  -2  -8 1390.28 6711.42   1
  15   2   8-2345.02 4256.74   8
 -15   2   8-7299.77 6657.01   4
  15  -2   8 1150.83 383.474   8
 -15   2   9 3167.35 3064.08   5
  15  -2  -9-4559.48 8666.62  14
  15  -2  -9-5816.73 13349.0   1
 -15   2   9 7382.02 6940.72   2
  15   2   9-221.027 4316.42   8
 -15   2   9 925.208 3999.17   4
  15  -2   9 6352.69 6739.35   8
  15   2  10 6451.41 6379.76   8
 -15   2  10-1894.80 5271.26   2
  15  -2 -10-2312.09 2271.60   1
 -15   2  10-3848.72 4984.22   4
  15  -2  10 3623.30 4513.13   8
  15   2 -11 5354.96 6996.85   1
  15   2  11 9036.47 5909.45   8
  15  -2  11-1063.24 3125.30   8
 -15  -2  11-3641.75 4391.33   2
  15   2 -12 1374.43 5466.68   1
  15   2  12 13463.9 9867.48   8
  15  -2  12 2134.91 3705.64   8
 -15  -2  12 5184.47 3146.69   2
 -15  -2  13-81.2691 3173.95   2
  15   2 -13 10807.6 7782.90   1
  15  -2  13 10212.8 8283.67   8
 -15  -2  14-3554.29 5640.18   2
  15   2 -14 4061.82 4031.95   1
 -15  -2  14-4459.86 3127.08   4
  15  -2  14 1887.86 3149.82   8
 -15  -2  15 8136.17 7635.64   2
  15   2 -15-4444.21 6172.80   1
 -15  -2  15 4058.14 4314.77   4
  15  -2  15 6006.48 5119.36   8
 -15  -2  16 8719.03 7017.33   2
  15   2 -16 5043.84 9647.27   1
  15  -2  16-7041.27 6327.97   8
 -15  -2  17 1660.76 1880.74   5
 -15  -2  17-267.316 4325.96   2
  15   2 -17 2166.21 6224.87   1
  15  -2  17-6905.06 4593.18   8
 -15  -2  18-519.882 2283.88   5
  15   2 -18 445.176 1944.74   1
  15  -2  18 3029.50 4823.03   8
 -15  -2  19-5142.25 1665.36   5
 -15  -2  19 2636.91 1126.45   2
  15   2 -19-1021.66 4621.36   1
  15  -2  19 1193.96 1819.19   8
 -15  -2  20-4162.95 5397.12   5
 -15  -2  20 336.843 3904.33   2
  15   2 -20-2671.12 5145.16   1
  15  -2  20 8479.52 5021.24   8
 -15  -2  21 159.594 2678.23   5
 -15  -2  21-2336.58 4540.45   2
  15   2 -21 1382.04 6210.45   1
  15  -2  21 6167.68 5059.06   8
  15  -2  22 2694.49 4169.85   8
  15  -2  23 1560.94 1958.34   8
  15  -2  24 2564.43 4038.81   8
  15  -2  25 6083.03 6912.10   8
  15  -2  26 2195.72 4088.91   8
 -15   3   0 13279.1 9603.87   5
  15  -3   0 1662.67 6811.31  14
 -15   3   0 16638.1 9529.74   4
  15   3   0 36897.5 11301.0   8
  15  -3   0 10129.7 16851.2   1
 -15   3  -1 76.3300 255.573   5
 -15   3   1 12828.9 9299.62   5
  15  -3   1-2678.14 6371.24  14
  15  -3  -1 1283.80 5448.46  14
 -15   3  -1 811.274 2334.09   4
 -15   3   1 11433.2 9216.95   4
  15   3   1-3128.68 3346.10   8
  15  -3   1-2582.12 5450.36   1
  15   3  -1 1409.00 824.043   8
  15  -3  -1 11255.8 11457.9   1
 -15   3  -2 2405.60 620.519   5
  15  -3  -2 1456.67 6049.52   1
 -15   3   2 3525.75 2245.03   5
  15  -3   2 200.584 1998.21  14
  15  -3  -2 1876.98 6804.19  14
  15  -3   2 890.268 5480.00   1
 -15   3  -2-778.782 1612.46   4
  15   3   2 10904.0 6710.42   8
 -15   3   2 9731.69 5955.86   4
  15   3  -2 14342.7 5467.56   8
 -15   3  -3-1069.54 3943.35   5
 -15   3   3 6941.45 5701.07   5
  15  -3   3-2874.85 7584.87  14
  15  -3  -3-978.600 2360.71  14
  15  -3  -3 1913.13 6578.73   1
  15  -3   3-6657.70 11580.7   1
 -15   3  -3 140.435 1121.53   4
  15   3   3 1217.92 2642.85   8
 -15   3   3 112.996 5943.46   4
  15   3  -3-2387.25 5022.43   8
  15  -3   4 1484.12 5619.96   1
 -15   3   4 9820.90 6875.95   5
  15  -3  -4 233.885 5364.70  14
  15  -3  -4-9125.54 12948.8   1
 -15   3  -4 887.515 1350.99   4
  15   3   4-2692.21 5224.58   8
 -15   3   4 1116.00 2681.97   4
  15   3  -4 9297.29 6939.22   8
 -15   3   5-7216.31 8155.96   5
  15  -3  -5 3754.27 4568.88  14
 -15   3  -5-4667.59 5139.89   4
  15  -3  -5-8189.07 11318.1   1
  15   3   5 3926.38 4246.45   8
 -15   3   5 921.075 3345.09   4
  15   3  -5 12590.5 7417.85   8
 -15   3   6 2512.43 5223.41   5
  15  -3  -6 8229.93 7705.26  14
 -15   3  -6 294.436 2417.51   4
  15   3   6-2756.70 5239.35   8
  15  -3  -6-2672.73 6032.62   1
 -15   3   6-8859.10 7006.93   4
 -15   3   7-652.967 4600.48   5
  15   3   7 1169.58 5590.89   8
 -15   3   7-5931.93 6610.86   4
  15  -3  -7 2546.57 7606.16   1
  15   3   8 516.029 5616.86   8
  15   3   9-2420.75 6524.70   8
  15   3  10 7708.22 8419.68   8
  15  -3  10-3457.56 4300.27   8
  15   3  11-11411.3 11074.8   8
  15  -3  11-1558.60 2712.52   8
  15   3  12-4703.59 5939.12   8
  15  -3  12 6362.75 7499.05   8
  15  -3  13 10378.3 8163.97   8
  15  -3  14 11709.6 7556.77   8
  15  -3  15 1499.18 455.484   8
 -15  -3  15 8329.66 6511.37   2
  15  -3  16 1178.44 2232.62   8
 -15  -3  16-1514.06 4759.92   2
  15  -3  17 1433.84 6130.10   8
 -15  -3  17-895.212 4129.16   2
 -15  -3  18 4712.46 4066.07   2
  15   3 -18-412.324 5189.94   1
  15  -3  18 529.361 2051.92   8
 -15  -3  19 4719.94 3526.16   2
  15   3 -19-22.1919 3292.72   1
 -15  -3  20-1509.94 4959.79   2
  15   3 -20-3888.37 3110.64   1
  15  -3  20 6184.22 7001.18   8
 -15  -3  21 65.5397 3124.53   2
  15   3 -21 2352.51 4960.28   1
  15  -3  21 148.577 1449.46   8
 -15  -3  22 93.6521 2527.66   2
  15   3 -22-320.544 2821.75   1
  15  -3  22-1630.37 1829.02   8
 -15  -3  23-1010.56 3792.10   2
  15   3 -23-683.011 2279.76   1
  15  -3  23-5562.52 4529.36   8
 -15  -3  24-2145.70 6449.59   2
  15   3 -24-1225.03 2697.56   1
  15  -3  24 967.019 3239.34   8
  15  -3  25-4481.46 6722.00   8
  15  -3  26-658.447 2451.25   8
  15  -3  27 4309.85 4204.29   8
  15  -3  28-2830.69 3149.39   8
 -15   4   0 5894.95 6400.89   5
  15  -4   0 6714.99 13369.1   1
  15  -4   0 1865.62 5204.27  14
  15   4   0-209.103 2854.46   8
 -15   4   0-3000.61 6788.67   4
  15   4   0 12062.5 6251.45  18
  15  -4   1 4693.08 10514.8   1
 -15   4  -1 25016.6 13360.6   5
 -15   4   1 28219.9 14021.9   5
  15  -4   1 1733.82 6222.07  14
  15  -4  -1 1899.69 7202.01  14
  15  -4  -1 584.695 6807.71   1
  15   4   1 33459.9 11777.5   8
  15   4  -1 37666.2 12232.3   8
 -15   4  -1 25636.1 14016.8   4
 -15   4   1 27698.1 11507.6   4
  15   4   1 26491.8 7621.69  18
  15  -4  -1 13934.6 10481.0   6
  15   4  -1 29601.5 10068.5  18
 -15   4  -2 10567.8 7513.20   5
 -15   4   2 16743.6 8987.59   5
  15  -4   2 350.364 1986.74  14
  15  -4  -2-543.712 2753.03  14
  15  -4  -2-2456.47 6961.66   1
  15   4   2-3194.81 5961.56   8
 -15   4  -2-2468.09 5971.21   4
  15   4  -2 4834.11 3474.83   8
 -15   4   2 5920.38 4126.36   4
  15  -4   2 2006.19 9317.97   1
  15   4   2 6913.50 4391.59  18
  15  -4  -2 7014.46 7108.98   6
 -15   4  -3 950.541 2319.16   5
 -15   4   3 4116.64 2376.07   5
  15  -4   3-2465.76 7366.28  14
  15  -4  -3 4655.27 6130.68  14
  15   4   3 4234.42 1921.67   8
 -15   4  -3 5962.91 4878.15   4
  15   4  -3 16571.7 7987.05   8
  15  -4   3 3093.54 8212.24   1
  15  -4  -3 9297.71 11466.8   1
 -15   4   3 12526.0 9575.58   4
  15   4   3 436.123 377.212  18
  15  -4  -3 4357.87 6344.66   6
 -15   4  -4-1124.28 1811.01   5
  15  -4   4 2257.21 758.558  14
  15  -4   4 4697.38 7767.84   1
 -15   4  -4 9495.55 7553.36   4
  15   4   4 3049.62 518.429   8
  15   4  -4 7514.43 5444.16   8
 -15   4   4 10601.0 9783.21   4
  15  -4  -4 530.249 6214.80   1
 -15   4  -5 3608.27 6248.65   5
  15  -4   5 106.137 2956.29  14
  15  -4   5 5440.91 7613.05   1
 -15   4  -5-5312.14 7215.59   4
  15   4   5 14706.9 10661.5   8
  15   4  -5-1088.18 2402.96   8
  15  -4   6 5234.66 6500.60   1
 -15   4  -6-3625.39 6847.86   4
  15   4   6 18384.4 11799.5   8
  15   4  -6 14536.0 6931.99   8
 -15   4  -7 3102.50 5334.89   4
  15   4  -7 249.153 4055.95   8
 -15   4  -8 2093.89 3649.65   4
  15   4   8-19245.0 14291.7   8
  15   4   9 526.900 4871.37   8
  15  -4  15 5272.68 3309.36   8
  15  -4  16-1261.61 305.438   8
  15  -4  17-624.983 3404.48   8
  15  -4  18-7736.43 6635.53   8
  15  -4  19 38831.7 12349.3   8
  15  -4  20 10075.1 7188.55   8
 -15  -4  20-8319.28 8237.09   2
  15  -4  21 2471.80 1295.48   8
 -15  -4  21-989.729 4636.85   2
  15  -4  22 2929.70 3863.46   8
 -15  -4  22 1301.41 1470.27   2
  15  -4  23 1844.73 4808.51   8
 -15  -4  23 1337.96 1372.58   2
  15  -4  24 295.009 2044.51   8
 -15  -4  24-3313.89 6093.65   2
  15  -4  25 735.107 2864.29   8
 -15  -4  25 3618.28 4499.66   2
  15  -4  26 1228.90 5215.51   8
 -15  -4  26 73.8680 1373.37   2
  15  -4  27 5475.04 5006.53   8
  15  -4  28 953.312 4848.14   8
  15  -4  29 5730.94 8253.18   8
 -15   5   0 22007.8 11926.8   5
  15  -5   0 5772.34 10726.2  14
  15   5   0 26792.4 10974.1   8
  15  -5   0 6539.85 12302.1   1
 -15   5   0 38123.5 16566.4   4
  15   5   0 22589.4 8578.39  18
  15  -5   0 3044.57 2141.57   6
 -15   5  -1 12676.0 9156.06   5
  15  -5   1 1257.01 5958.52  14
  15  -5   1-1105.24 8008.54   1
  15   5   1 3257.38 4973.14   8
  15   5  -1 18465.1 10003.6   8
 -15   5  -1 10054.0 8833.40   4
  15  -5  -1 1508.91 11578.0   1
  15   5   1 6958.44 4053.64  18
  15   5  -1 10382.7 5809.47  18
  15  -5   1-333.344 5825.46   6
 -15   5  -2 23790.3 11874.1   5
  15  -5   2 1424.17 4319.01  14
  15  -5   2 950.292 7011.31   1
  15   5   2 31055.6 15547.4   8
  15   5  -2 3732.52 5921.72   8
 -15   5  -2-2385.29 6536.52   4
  15   5   2 20578.3 12183.2  18
  15  -5   2 10727.7 12358.8   6
  15   5  -2 14820.7 7373.71  18
  15  -5   3 6698.66 12858.6   1
 -15   5  -3 18785.8 11905.7   5
  15  -5   3 199.132 4238.19  14
  15   5  -3 6918.77 6884.73  11
  15   5   3 18141.0 11443.5   8
  15   5  -3 11128.1 6142.93   8
 -15   5  -3 19024.6 12747.0   4
  15   5   3 38051.7 13939.9  18
  15   5  -3 9054.67 5288.39  18
 -15   5  -4-1180.72 651.799   5
  15  -5   4-13.6375 2949.30  14
  15   5  -4 7052.09 6818.73  11
  15   5   4-8015.23 6911.78   8
 -15   5  -4 1799.30 5781.25   4
  15   5  -4 4238.79 3305.93   8
  15   5   4-170.235 8610.27  18
  15  -5   4 2495.40 8607.39   1
  15   5  -4-5326.62 4071.38  18
 -15   5  -5 10442.3 8533.02   5
  15  -5   5 728.890 1430.69  14
  15   5  -5 22147.8 8838.26  11
  15   5   5 13764.6 9324.26   8
 -15   5  -5 9411.68 9117.54   4
  15  -5   5 3635.65 3034.60   1
  15   5  -5 13395.4 5984.98   8
 -15   5  -6-5769.66 6431.53   5
  15  -5   6 563.258 4319.09  14
  15  -5   6-2299.76 8443.20   1
  15   5   6 7118.61 5124.84   8
 -15   5  -6-2612.76 8573.81   4
  15   5  -6 3559.02 1511.92   8
 -15   5  -7-995.461 3728.81   5
  15  -5   7 4219.05 7480.94  14
  15  -5   7-1165.76 4817.43   1
 -15   5  -7-49.4866 3985.84   4
  15   5  -7 7880.27 5576.32   8
  15  -5   8-109.521 1867.79  14
 -15   5  -8-3396.42 7383.67   4
 -15   5  -9 80.6299 4290.79   4
 -15   5 -10 4474.13 6133.16   4
  15   6   0 63844.1 18526.3   8
  15   6   0 41670.3 14330.0  18
  15   6   1 29031.0 19039.7   8
  15   6  -1 10831.5 5537.67   8
  15   6   1 38394.4 19619.3  18
  15   6  -1 6865.13 6297.63  18
  15   6   2 937.592 5659.30   8
  15   6  -2 12175.7 8220.96   8
  15  -6   2 6306.02 13586.8   1
  15   6   2 12923.2 5674.71  18
  15   6  -2 13146.1 8016.40  18
 -15   6  -3 1739.05 3163.26   5
  15  -6   3 2547.06 6316.44  14
  15   6  -3 1481.25 4634.59  11
  15  -6   3-4325.61 8375.53   1
  15   6   3 906.039 3747.87   8
  15   6  -3 7900.05 7004.23   8
 -15   6  -3-3368.23 8599.51   4
  15   6   3-3583.74 2467.63  18
  15   6  -3-9024.65 7816.20  18
  15  -6   3-5431.93 8951.71   6
 -15   6  -4 24952.4 14044.6   5
  15  -6   4 1577.22 8690.48   1
  15  -6   4 5061.52 7598.39  14
  15   6  -4 15744.8 7697.31  11
  15   6  -4 20018.0 9328.84   8
 -15   6  -4 3491.34 4586.80   4
  15   6  -4 18400.7 7819.30  18
  15  -6   4 12987.5 9776.86   6
  15  -6   5 6707.52 14183.8   1
 -15   6  -5 7511.10 10018.2   5
  15  -6   5-2065.87 6582.71  14
  15   6  -5-2785.34 6550.96  11
  15   6  -5 3539.39 2467.61   8
 -15   6  -5 15467.9 11000.2   4
  15   6  -5 953.506 1463.72  18
 -15   6  -6-2761.23 7223.20   5
  15  -6   6 4450.73 6632.79  14
  15   6  -6 8305.46 11759.0  11
 -15   6  -6 6417.73 7734.52   4
  15   6  -6 17172.9 7466.15   8
  15  -6   6 2883.79 6738.52   1
  15   6  -6 1208.42 7658.06  18
 -15   6  -7 394.456 3765.54   5
  15  -6   7 1888.62 5636.44  14
  15   6  -7 2112.14 8368.32  11
 -15   6  -7 4874.86 4027.87   4
  15  -6   7-388.597 7612.08   1
  15   6  -7 1150.28 5786.71  18
 -15   6  -8 4645.13 3395.05   5
  15  -6   8-1428.68 2657.71  14
 -15   6  -8 3814.00 4186.41   4
  15  -6   9 795.857 4578.41  14
 -15   6  -9 569.150 2269.41   4
  15  -6  10 13668.1 10928.7  14
 -15   6 -10-1287.15 6344.43   4
 -15   6 -11 1720.10 5776.20   4
  15   7   0-6969.61 8050.10   8
  15   7   0 12893.7 3326.00  18
  15   7  -1 11289.5 14173.3   8
  15   7  -1 17732.2 11162.4  18
  15   7  -2 16576.3 7378.11   8
  15   7  -2 18899.8 8534.16  18
  15   7  -3 22142.1 12148.1   8
  15   7  -3 24563.7 14082.9  18
  15   7  -4-1465.70 3845.08   8
  15   7  -4-10515.1 9850.35  18
  15  -7   5-4879.54 11052.3   1
  15   7  -5 10971.9 5306.75   8
  15   7  -5 6643.92 6704.79  18
 -15   7  -6 55035.1 25767.0   5
  15  -7   6 2757.74 3213.84   1
  15  -7   6-188.796 7733.34  14
  15   7  -6-10058.9 11739.0  11
 -15   7  -6 44318.4 26736.4   4
  15   7  -6 13664.1 6387.52  18
  15  -7   6 2888.35 10766.3   6
  15  -7   7 867.416 5833.96  14
  15   7  -7 3830.23 2815.55  11
  15   7  -7 786.264 9115.21  18
  15  -7   8 557.371 4672.95  14
  15   7  -8 1117.44 10804.9  11
  15   7  -8 1117.27 9218.91  18
 -15   7  -9-6630.16 6846.56   5
  15  -7   9-2542.45 7029.29  14
  15   7  -9 53.8103 5512.18  11
 -15   7  -9-7926.33 11799.5   4
  15   7  -9 480.785 5283.19  18
 -15   7 -10-1875.16 4172.59   5
  15  -7  10-1216.79 6359.22  14
  15   7 -10-968.859 6896.93  11
 -15   7 -10-528.806 3753.83   4
  15  -7  11 2681.45 6915.28  14
 -15   7 -11 6784.52 4457.24   4
  15  -7  12-5028.31 2160.41  14
 -15   7 -12 2239.29 4834.34   4
 -15   7 -13 5233.21 5431.65   4
  15   8  -3-9474.48 6731.02   8
  15   8  -3 15097.7 11190.8  18
  15   8  -4 30415.5 13862.1   8
  15   8  -4 17195.4 7503.44  18
  15   8  -5 13205.8 8642.17  18
  15   8  -6-3261.59 5350.35  18
  15   8  -7 17871.1 10523.3  18
  15   8  -8-6864.04 6059.67  11
  15   8  -8 20984.5 11926.6  18
  15  -8   9 656.045 4824.42  14
  15   8  -9 2323.99 10116.9  11
  15   8  -9 1536.43 9813.20  18
  15  -8  10 1493.89 5082.08  14
  15   8 -10-186.774 4984.91  11
 -15   8 -10 10323.8 10775.2   4
  15   8 -10 251.579 4995.14  18
  15  -8  11 507.621 4150.68  14
  15   8 -11 4559.33 1965.34  11
 -15   8 -11-180.825 3198.21   4
  15   8 -11-2.23574 3644.75  18
  15  -8  12-6006.24 4718.29  14
  15   8 -12 535.055 9803.74  11
 -15   8 -12-5278.59 8350.96   4
  15  -8  13-11059.9 6966.06  14
 -15   8 -13-3545.37 7726.08   4
 -15   8 -14 7608.96 8331.46   4
  15   9  -6 20414.4 12347.5  18
  15   9  -7-10722.2 4565.37  18
  15   9  -8 7349.00 1089.05  18
  15   9  -9-4489.41 7394.36  11
  15   9  -9-4344.41 3642.30  18
  15   9 -10-1074.56 3414.27  11
  15   9 -10 2869.20 4189.85  18
  15   9 -11 1133.55 3918.20  11
  15   9 -11 952.721 6745.35  18
  15  -9  12-5554.25 1957.11  14
  15   9 -12 1678.88 2814.18  11
 -15   9 -12-5685.60 9238.11   4
  15   9 -12 129.477 4503.83  18
  15   9 -13 850.514 4604.52  11
  15   9 -13 741.293 3968.84  18
  15  -9  14 1688.83 6320.15  14
  15   9 -14-583.233 7218.22  11
 -15   9 -14-8544.33 10094.3   4
  15  -9  15-445.170 5103.86  14
 -15   9 -15-3018.09 1269.13   4
  15  10 -10-2004.42 2429.59  18
  15  10 -11 2166.66 4377.24  11
  15  10 -11 1130.08 6182.79  18
  15  10 -12-594.546 10529.6  11
  15  10 -12-1652.76 3035.53  18
  15  10 -13 4794.56 7086.10  11
  15  10 -13-1612.31 5759.05  18
  15  10 -14-524.879 4896.34  11
  15  10 -14 1730.95 3382.62  18
  15  10 -15-57.5665 7382.48  11
  15 -10  16-1790.55 3335.74  14
 -15  10 -16-6102.48 5743.21   4
  15  11 -13 2592.35 3187.63  11
  15  11 -13 621.192 11509.5  18
  15  11 -14-125.651 6446.65  11
  15  11 -14-808.890 8101.76  18
  15  11 -15 2806.66 13342.2  11
  15  11 -15 206.021 6219.11  18
  15  11 -16 4870.84 4112.16  11
  15  11 -16 2014.53 7233.72  18
  15  11 -17 2225.06 13935.9  11
  15  12 -17-2766.27 14271.5  11
  15  12 -17-352.762 5982.11  18
  15  12 -18 431.736 8029.26  11
  16   0   2-154.980 1687.80   8
  16   0   3 359.671 950.357   8
 -16   0   4-2815.92 2338.29   4
  16   0   4 2056.30 3959.34   8
  16   0  -5 2698.80 3597.14   1
 -16   0   5 2280.32 1718.05   4
  16   0   5-1183.39 2475.30   8
  16   0  -6 7742.52 9632.94   1
 -16   0   6 7044.65 5894.56   4
  16   0   6-1408.23 4179.80   8
 -16   0   7 647.564 2257.02   5
  16   0  -7-4580.40 4277.44   1
 -16   0   7-6100.71 5932.87   4
  16   0   7-2209.86 2893.15   8
 -16   0   8-4510.34 5658.79   5
  16   0  -8-3683.73 9557.10   1
 -16   0   8-3473.47 5006.07   4
  16   0   8 1227.46 3590.74   8
 -16   0   9 2157.43 4265.25   5
 -16   0   9-8357.69 5326.80   4
  16   0  -9-5342.32 5383.74   1
  16   0   9 2121.50 3863.03   8
 -16   0  10-3196.13 3856.55   5
 -16   0  10 5746.14 4072.93   4
  16   0 -10 3338.09 7478.14   1
  16   0  10-1520.17 4622.39   8
 -16   0  11 7187.13 5215.33   5
 -16   0  11 2031.83 4772.33   2
 -16   0  11 10318.3 7300.56   4
  16   0  11 8608.20 6542.75   8
  16   0 -11-36.5918 9202.40   1
 -16   0  12 5206.50 6062.19   5
 -16   0  12 8674.63 8167.30   2
 -16   0  12 16835.8 6407.50   4
  16   0  12 8467.56 7587.18   8
  16   0 -12 3899.35 6908.43   1
 -16   0  13-12165.9 7432.43   5
 -16   0  13 6859.79 5639.42   2
 -16   0  13 1001.30 1939.36   4
  16   0  13 972.549 2252.58   8
  16   0 -13-3420.12 7210.82   1
 -16   0  14-3751.25 4681.06   5
 -16   0  14 4277.29 5912.56   2
 -16   0  14 16450.2 8925.09   4
  16   0  14 8882.54 7737.08   8
  16   0 -14 2119.50 9368.60   1
 -16   0  15-3787.81 2078.53   5
 -16   0  15-2791.56 2548.30   2
 -16   0  15 211.739 569.988   4
  16   0  15-7863.21 8538.94   8
  16   0 -15 5087.84 9780.60   1
 -16   0  16-535.623 4558.06   5
 -16   0  16-1132.32 4891.93   2
 -16   0  16-4300.78 4424.24   4
  16   0  16 10634.4 8812.55   8
  16   0 -16 13206.5 11098.5   1
  16   0  17 4143.24 6093.01   8
  16   0  18-2181.74 1844.98   8
  16   0  19 5382.61 6677.02   8
  16   0  20 3731.19 4684.25   8
  16   0  21 5936.73 5687.71   8
  16   1   0-3527.16 3899.39   8
 -16   1   1 2862.49 4454.46   4
  16   1   1 9617.42 6521.66   8
  16   1  -1 5717.49 6499.36   8
  16  -1  -2 1541.19 4612.98   1
 -16   1   2-537.478 1902.78   4
  16   1   2 2648.33 3586.59   8
  16  -1  -3 4839.46 6812.07   1
 -16   1   3 1994.09 3407.22   4
  16   1   3-1711.22 3791.13   8
 -16   1   4 3921.42 2637.99   5
  16  -1  -4-2019.05 4471.53   1
 -16   1   4-163.008 2479.54   4
  16   1   4-3599.12 4640.54   8
  16  -1   4-5807.51 5972.37   8
 -16   1   5-560.900 4870.82   5
 -16   1   5-2401.67 5711.79   4
  16  -1  -5 5279.28 7775.15   1
  16   1   5-967.461 3135.31   8
  16  -1   5-762.610 2947.27   8
 -16   1   6-1007.15 4156.37   5
 -16   1   6-7520.93 7242.87   4
  16  -1  -6-2220.21 5867.64   1
  16   1   6 314.278 1336.23   8
  16  -1   6 4725.40 5555.16   8
 -16   1   7-1074.56 2311.26   5
  16   1   7 4903.38 5186.03   8
  16  -1  -7-3909.96 9432.86   1
  16  -1   7 9618.77 7214.46   8
 -16   1   8-2599.48 2715.03   5
  16   1  -8 2311.48 5013.51   1
 -16   1   8-5090.73 7253.90   4
  16   1   8 1743.55 3083.55   8
  16  -1   8-107.019 2250.87   8
  16  -1  -8-3770.53 7664.55   1
 -16   1   9-9394.70 7644.19   5
  16   1  -9-1225.79 4944.11   1
 -16  -1   9-1968.05 3956.09   4
 -16   1   9-3575.00 7513.76   4
  16   1   9-3542.61 4592.63   8
  16  -1   9-1989.93 4061.44   8
 -16   1  10 8005.37 8895.48   5
  16   1 -10 642.526 4725.64   1
 -16  -1  10 7721.75 5813.19   4
 -16   1  10 11241.4 9379.30   4
  16   1  10 3685.06 4015.76   8
  16  -1  10 7335.40 6420.19   8
 -16  -1  10-5096.72 4515.47   2
 -16   1  11 20139.6 10976.0   5
  16  -1 -11 24284.4 14897.1  14
  16   1 -11-26382.0 11664.8   1
 -16   1  11 14952.9 9046.91   2
 -16  -1  11 2602.01 4102.91   4
  16   1  11 4007.55 5065.33   8
 -16   1  11 5668.95 1650.50   4
  16  -1  11-998.371 3086.82   8
  16  -1 -11 32918.6 26041.4   1
 -16  -1  11 3114.87 3270.47   2
  16  -1 -12 3029.27 11704.5   1
 -16  -1  12 3313.61 4991.58   2
 -16   1  12 6363.74 7629.08   5
  16  -1 -12 21280.8 11124.0  14
  16   1 -12 516.096 3695.32   1
 -16   1  12 4419.91 3200.05   2
 -16  -1  12 5583.97 4732.74   4
  16   1  12-1158.54 5854.07   8
 -16   1  12-292.692 1188.29   4
  16  -1  12 540.712 3958.66   8
 -16  -1  13 13344.1 5702.42   5
 -16  -1  13 9662.18 7714.87   2
  16  -1 -13-1298.79 6314.78   1
 -16   1  13 13948.5 8771.34   5
 -16   1  13 2236.35 5414.88   2
  16   1 -13 1283.38 6900.77   1
 -16  -1  13 8503.72 4157.19   4
  16   1  13 12565.6 10397.4   8
 -16   1  13 7869.62 9454.48   4
  16  -1  13 5885.50 7558.81   8
 -16  -1  14-4983.79 6220.77   5
 -16  -1  14 1287.07 5177.43   2
 -16  -1  14 635.869 1776.73   4
  16   1 -14 869.950 5434.16   1
  16   1  14 4777.29 4819.02   8
  16  -1  14-2449.77 4068.16   8
 -16  -1  15 4165.62 5225.23   5
 -16  -1  15-5946.97 3611.74   2
 -16  -1  15 1298.25 4023.77   4
  16   1 -15 5473.50 9449.62   1
  16   1  15 10764.0 6965.23   8
  16  -1  15 6887.13 4248.11   8
 -16  -1  16-3139.43 6827.28   5
 -16  -1  16 1866.54 4053.08   2
 -16  -1  16-1350.72 4231.33   4
  16   1 -16 411.974 6905.16   1
  16   1  16-5029.23 5562.10   8
  16  -1  16 3845.64 4355.14   8
 -16  -1  17 2194.15 4617.27   5
 -16  -1  17-5784.65 3067.02   2
  16   1  17-16805.5 11221.1   8
  16   1 -17 4133.48 9801.36   1
  16  -1  17-4368.06 5509.24   8
 -16  -1  18 4059.81 6590.23   5
 -16  -1  18-8191.03 8385.90   2
  16   1  18-6403.89 4267.40   8
  16   1 -18 1680.31 3577.55   1
  16  -1  18 1433.33 5744.13   8
  16  -1  19 2934.11 4164.20   8
  16  -1  20-1798.08 4116.97   8
  16  -1  21 775.984 2897.85   8
  16  -1  22 3424.59 5032.39   8
  16  -1  23 10172.3 7980.09   8
  16  -2   0 2331.38 7062.57   1
 -16   2   0 2895.83 3172.46   4
 -16   2   1-5391.50 5373.69   5
  16  -2   1 3537.12 5048.61   1
  16  -2  -1 732.732 3557.63   1
 -16   2  -1-670.270 2626.12   4
 -16   2   1-2259.29 4678.84   4
  16   2   1-127.385 1106.12   8
  16   2  -1 2721.92 3081.42   8
 -16   2   2 3120.80 1702.70   5
 -16   2  -2 7456.05 7151.15   4
 -16   2   2 430.956 2595.84   4
  16  -2  -2 368.475 9198.94   1
  16   2   2 8257.75 8002.24   8
 -16   2   3 1115.65 5284.04   5
  16  -2  -3-1650.51 2831.36  14
 -16   2   3-1950.93 6354.43   4
  16  -2  -3 4669.33 8888.74   1
  16   2   3 298.366 1896.52   8
  16   2  -3 2303.73 1624.51   8
 -16   2   4-14720.6 9318.37   5
  16  -2  -4 1368.43 4712.30  14
 -16   2   4 6864.70 6964.85   4
  16   2   4 7147.47 6297.35   8
  16  -2  -4-10143.4 7684.13   1
 -16   2   5 3474.24 5819.95   5
  16  -2  -5 5937.12 5656.45  14
 -16   2   5 1503.41 11373.8   4
  16   2   5 1105.54 3203.08   8
  16  -2  -5 5994.47 11679.3   1
  16  -2  -6 1932.94 7394.60  14
  16   2   6 381.434 1800.60   8
  16  -2  -6 8185.52 10580.1   1
  16  -2  -7-853.716 3101.22  14
  16   2   7 332.880 4673.75   8
  16  -2   7-3946.68 4802.03   8
  16  -2  -8 6268.69 11141.0   1
  16  -2  -8-1586.31 3028.04  14
  16   2   8-2587.55 3392.77   8
  16  -2   8-113.519 1241.37   8
 -16   2   9-2417.39 1268.80   5
  16   2   9 447.307 3392.66   8
 -16   2   9 15319.0 9348.92   4
  16  -2   9 9044.75 6854.91   8
 -16   2  10-914.451 4094.24   5
  16  -2 -10 19729.9 21236.3   1
  16   2  10 4035.03 5159.44   8
 -16   2  10-18425.4 11349.7   4
  16  -2  10 7407.49 7712.55   8
  16   2  11 4720.69 6636.71   8
  16  -2  11 1456.31 4105.83   8
  16   2  12 23809.9 10790.2   8
  16  -2  12 7169.13 7848.26   8
  16   2 -13 4913.31 8918.81   1
  16   2  13 6687.83 5405.36   8
  16  -2  13 1883.61 837.025   8
 -16  -2  13 1975.03 1111.88   2
  16   2 -14 5636.16 7592.83   1
  16   2  14 27640.8 11745.6   8
  16  -2  14 11013.1 8547.70   8
 -16  -2  14 4234.63 3811.30   2
  16   2 -15 3899.56 2350.53   1
  16   2  15 6524.80 10320.9   8
  16  -2  15 3466.97 7020.67   8
 -16  -2  15 1545.47 2753.19   2
 -16  -2  16 5172.15 6938.42   2
  16   2 -16 4775.29 6678.28   1
  16  -2  16 3928.79 5382.19   8
 -16  -2  17 757.687 4937.55   2
  16   2 -17-2829.43 7967.32   1
  16  -2  17 931.568 1049.06   8
 -16  -2  18 2213.76 5183.68   2
  16   2 -18 7969.61 8204.94   1
  16  -2  18 4077.57 4908.27   8
 -16  -2  19 1150.24 3847.58   2
  16   2 -19 451.114 8581.95   1
  16  -2  19-1319.62 1866.60   8
 -16  -2  20-5197.66 3895.23   2
  16   2 -20-4029.88 1355.07   1
  16  -2  20 1454.23 1282.96   8
 -16  -2  21 416.090 3814.91   2
  16   2 -21 767.734 7241.79   1
  16  -2  21 756.827 2705.23   8
  16  -2  22 5840.53 4602.81   8
  16  -2  23 4041.00 5447.34   8
  16  -2  24 3461.14 4324.91   8
  16  -2  25 3040.91 1962.96   8
 -16   3   0 859.399 1518.38   5
  16  -3   0 431.697 2354.21  14
 -16   3   0 848.241 3177.45   4
  16  -3   0-931.389 8482.70   1
  16   3   0 5937.81 5906.23   8
 -16   3  -1 4517.97 4952.81   5
 -16   3   1 12658.9 6317.88   5
  16  -3   1 5553.87 6893.63  14
  16  -3  -1 3208.14 4756.15  14
  16  -3   1 1650.58 7995.18   1
 -16   3  -1 13483.3 8760.54   4
 -16   3   1 4301.67 4113.09   4
  16   3   1 20165.8 8855.34   8
  16   3  -1 19673.5 10266.9   8
  16  -3  -1-483.563 5143.88   1
 -16   3  -2-2183.09 4601.53   5
 -16   3   2-2700.35 2503.98   5
  16  -3  -2 416.355 2626.71  14
  16  -3   2-4819.95 8922.00   1
 -16   3  -2-2538.02 4744.50   4
 -16   3   2-299.216 4979.74   4
  16   3   2 4626.65 7454.01   8
  16   3  -2 7136.43 5474.12   8
  16  -3  -2 2160.29 7554.69   1
 -16   3   3 23429.9 12631.3   5
  16  -3   3 865.439 8703.50   1
  16  -3  -3 4649.48 4606.63  14
 -16   3  -3 5884.10 4428.40   4
 -16   3   3 21444.1 12822.5   4
  16   3   3 8135.86 8325.79   8
  16   3  -3 8284.31 6172.03   8
  16  -3  -3 4821.14 5351.55   1
  16  -3  -4-3286.62 6476.88   1
 -16   3   4 1060.92 8317.79   5
  16  -3  -4-694.704 4523.75  14
 -16   3  -4-6849.54 7867.66   4
  16   3   4-13.9966 2186.55   8
 -16   3   4 2798.21 5739.33   4
  16   3  -4 728.763 4392.30   8
 -16   3   5-7357.29 8974.95   5
  16  -3  -5-4103.85 10885.8   1
  16  -3  -5-6094.06 5665.45  14
 -16   3  -5-2190.75 4978.95   4
  16   3   5 35.5903 915.752   8
 -16   3   5-1429.42 7143.82   4
 -16   3   6 238.539 1616.44   5
  16  -3  -6 2745.82 5041.36  14
  16  -3  -6 2757.37 7054.70   1
  16   3   6-3333.33 5907.63   8
 -16   3   6-8668.16 10316.8   4
 -16   3   7-12894.7 8968.35   5
  16  -3  -7-4681.71 9613.13   1
  16   3   7-3737.92 6614.14   8
 -16   3   7-4253.10 5910.95   4
  16   3   8 4966.95 7919.39   8
  16   3   9 5596.09 6567.54   8
  16   3  10 4671.94 5687.28   8
  16   3  11 10796.0 11406.5   8
  16  -3  11 5098.00 5897.77   8
  16   3  12 8557.88 7453.09   8
  16  -3  12-4669.86 5533.32   8
  16  -3  13 9594.82 7494.37   8
  16  -3  14-2361.54 5082.56   8
  16  -3  15 11774.3 7306.14   8
  16  -3  16-1468.99 4380.76   8
  16  -3  17 5288.65 4454.70   8
 -16  -3  17 1816.10 1233.60   2
  16  -3  18-5471.19 5354.88   8
 -16  -3  18 2549.07 2827.68   2
  16  -3  19 1545.29 3245.53   8
 -16  -3  19 7452.25 5990.33   2
  16  -3  20-2878.12 3647.89   8
 -16  -3  20-5087.03 4617.22   2
  16  -3  21-6813.68 3869.75   8
 -16  -3  21-768.251 3908.38   2
 -16  -3  22-3926.92 5064.01   2
  16  -3  22-2371.57 3694.23   8
 -16  -3  23 1898.99 4096.07   2
  16  -3  23 6582.93 6121.53   8
  16  -3  24-714.870 3209.12   8
  16  -3  25 6520.95 3596.55   8
  16  -3  26-2887.14 5169.09   8
  16  -3  27 2825.26 4400.92   8
 -16   4   0 18172.2 13268.0   5
  16  -4   0 2639.63 4385.67  14
  16   4   0 11408.9 5912.90   8
  16  -4   0 511.135 7465.52   1
  16  -4  -1-5570.35 11030.9   1
 -16   4  -1-3359.57 5052.51   5
 -16   4   1-6346.15 7543.56   5
  16  -4   1 3848.37 5758.85  14
  16  -4  -1 1126.71 4128.93  14
 -16   4  -1-1136.12 2999.40   4
  16   4   1-995.550 3179.14   8
 -16   4   1-189.984 3614.39   4
  16   4  -1 2628.24 5227.75   8
  16  -4   1-2044.41 5451.58   1
  16   4   1 6733.79 3249.64  18
 -16   4  -2 5578.03 5851.02   5
 -16   4   2 24136.0 13659.4   5
  16  -4   2 1001.13 4985.55  14
  16  -4  -2 7448.77 13002.2   1
  16  -4  -2-614.805 2367.15  14
 -16   4  -2 3678.26 4015.63   4
  16   4   2 20307.2 10001.1   8
  16  -4   2-1081.26 6059.65   1
 -16   4   2 9619.93 5242.70   4
  16   4  -2 20000.7 8115.59   8
 -16   4  -3-4587.05 1993.71   5
 -16   4   3 4443.08 6700.05   5
  16  -4   3 2730.07 5524.88  14
  16  -4  -3 1142.61 2919.46  14
  16  -4  -3 734.078 6339.62   1
  16  -4   3-524.298 6770.78   1
 -16   4  -3-3039.82 1428.30   4
  16   4   3-1844.78 1920.16   8
 -16   4   3-10344.3 11826.8   4
  16   4  -3 2298.40 4359.13   8
 -16   4  -4-3145.03 5166.90   5
  16  -4   4 3935.15 3311.74  14
  16  -4   4-1253.41 7408.40   1
 -16   4  -4-3099.55 4772.06   4
  16  -4  -4 2523.45 2270.06   1
  16   4   4 8148.32 7112.72   8
  16   4  -4 6671.63 4800.91   8
  16  -4   5 728.773 8195.91   1
 -16   4  -5 3352.50 4176.06   4
  16   4   5 5374.64 3325.23   8
  16   4  -5-1357.82 3216.52   8
 -16   4  -6-9675.84 6671.98   4
  16   4   6-3617.69 6306.56   8
  16   4  -6 6863.72 10779.6   8
 -16   4  -7 7274.40 6827.02   4
  16   4   7 10820.7 10934.5   8
  16   4   8 25512.7 13461.6   8
  16   4   9-9552.86 10434.6   8
  16  -4  17-744.781 3611.22   8
  16  -4  18-2372.71 2254.91   8
  16  -4  19 196.585 1717.60   8
  16  -4  20 4020.62 4688.98   8
  16  -4  21 361.867 1828.72   8
  16  -4  22-2126.84 5025.92   8
  16  -4  23-3841.05 4254.97   8
  16  -4  24 5699.32 5298.54   8
  16  -4  25 7200.49 6401.44   8
 -16  -4  25-1295.36 3235.87   2
  16  -4  26 2825.36 3856.62   8
  16  -4  27-3841.84 4141.19   8
  16  -4  28 1436.08 2934.68   8
  16  -4  29 525.289 1952.38   8
 -16   5   0 4780.87 6485.34   5
  16  -5   0 716.866 6571.58  14
  16  -5   0-3162.71 9114.59   1
  16   5   0-2296.36 5224.81   8
 -16   5   0-2618.86 5958.43   4
  16   5   0-5606.45 5441.78  18
  16  -5   0-1786.39 2104.70   6
  16  -5   1-258.536 1998.40   1
 -16   5  -1 23779.3 11555.1   5
  16  -5   1 3379.98 8625.75  14
  16   5   1 17087.1 8908.73   8
  16   5  -1 15116.0 8197.20   8
 -16   5  -1 5353.93 6095.63   4
  16   5   1 16390.8 6719.00  18
  16   5  -1-1169.12 1596.38  18
 -16   5  -2 1495.55 4234.91   5
  16  -5   2 1106.45 3028.23  14
  16   5   2 2936.63 3186.16   8
 -16   5  -2 11509.0 12413.2   4
  16   5  -2 3738.78 4037.30   8
  16   5  -2-399.557 2678.90  18
  16  -5   2 94.0219 2037.92   1
 -16   5  -3-111.221 3022.30   5
  16  -5   3 330.714 3577.91  14
  16   5   3-5925.39 8506.73   8
 -16   5  -3-1087.76 555.054   4
  16   5  -3 2435.02 4391.73   8
  16  -5   3 3903.64 13879.7   1
 -16   5  -4-797.787 2543.16   5
  16  -5   4 2713.87 6621.86  14
  16   5   4 8747.04 11598.4   8
 -16   5  -4 5379.61 4296.09   4
  16  -5   4 2761.67 8952.21   1
  16   5  -4-2512.71 4217.33   8
 -16   5  -5 1910.42 3170.80   5
  16  -5   5-946.277 5808.56  14
  16  -5   5 445.580 3723.08   1
 -16   5  -5 2625.66 5226.81   4
  16   5  -5 2597.83 2465.79   8
 -16   5  -6 10478.1 8461.98   5
  16  -5   6 662.975 513.216  14
  16  -5   6 1613.94 6437.92   1
 -16   5  -6 7926.33 7274.22   4
  16   5   6 3439.39 8591.82   8
  16   5  -6 1499.37 5343.78   8
 -16   5  -7-3316.19 5733.64   4
 -16   5  -8-7856.93 6189.97   4
 -16   5  -9-726.610 1234.62   4
  16   6   0-390.130 3607.77   8
  16   6   0 4113.01 6397.88  18
  16   6   1 34832.0 17559.4   8
  16   6  -1 12706.1 5548.06   8
  16   6   1 19891.3 13246.2  18
  16   6  -1 14366.8 5608.40  18
  16   6  -2 2942.55 4683.91   8
  16   6  -2 2643.21 5070.22  18
  16  -6   3-383.085 7534.98   1
 -16   6  -3 16659.3 11892.1   5
  16  -6   3 4319.44 9525.03  14
  16   6  -3 3839.88 2010.91   8
 -16   6  -3-1143.02 4937.01   4
  16   6  -3-922.548 5817.29  18
 -16   6  -4-7715.15 4417.90   5
  16  -6   4-1120.32 5021.28  14
 -16   6  -4 550.472 9023.85   4
  16   6  -4 9303.15 5928.73   8
  16   6  -4 409.758 1594.40  18
  16  -6   4 2263.65 7133.59   1
 -16   6  -5-713.308 994.651   5
  16  -6   5-2657.88 2068.49  14
  16   6  -5 3567.18 3982.60  11
 -16   6  -5-3259.03 2886.86   4
  16   6  -5 8494.28 6653.35   8
  16  -6   5 1029.39 9420.20   1
  16   6  -5 314.803 6094.12  18
 -16   6  -6-4940.06 8232.63   5
  16  -6   6-2346.69 2661.10  14
  16   6  -6-799.586 2330.21  11
 -16   6  -6 3406.11 1377.81   4
  16  -6   6 4109.85 9546.73   1
  16  -6   7 2552.20 5108.04  14
 -16   6  -7 1124.59 1563.15   4
  16  -6   8 2139.72 4707.90  14
 -16   6  -8-846.021 3686.09   4
  16  -6   9-1226.01 2356.03  14
 -16   6  -9 3566.48 2057.50   4
 -16   6 -10-838.984 2669.41   4
  16   7  -1 1776.71 5870.07   8
  16   7  -1-17861.1 13661.5  18
  16   7  -2 5959.94 6042.41   8
  16   7  -2 194.891 4542.51  18
  16   7  -3 4810.34 7259.79   8
  16   7  -3-11695.0 8908.70  18
  16   7  -4-2097.53 3624.35  11
  16   7  -4 9150.18 5108.87   8
  16   7  -4-963.003 5161.01  18
  16   7  -5-856.832 5990.99  11
  16   7  -5 1299.99 8981.44  18
 -16   7  -6 9221.81 9285.16   5
  16  -7   6 1885.50 7183.56  14
  16   7  -6 3401.96 3245.63  11
  16   7  -6-1472.30 5256.89  18
 -16   7  -7-14633.9 11243.0   5
  16  -7   7 1774.00 7834.21  14
  16   7  -7 1768.93 8558.56  11
 -16   7  -7 10258.3 9669.78   4
  16   7  -7 354.979 7803.91  18
 -16   7  -8-1193.39 7096.20   5
  16  -7   8-1912.70 2099.78  14
  16   7  -8-1093.16 3550.56  11
 -16   7  -8-3123.41 9578.79   4
  16   7  -8 1099.37 9913.67  18
 -16   7  -9 8982.15 3555.75   5
  16  -7   9 5001.21 9170.52  14
 -16   7  -9 11085.8 9530.84   4
  16  -7  10-2444.02 6393.35  14
 -16   7 -10 8242.12 6576.12   4
  16  -7  11 245.484 5638.61  14
 -16   7 -11 473.608 1865.06   4
 -16   7 -12-8298.79 6977.88   4
  16   8  -3 11904.3 8415.97   8
  16   8  -3-7009.00 2279.82  18
  16   8  -4 18186.1 10317.9  18
  16   8  -5 6774.47 5975.67  18
  16   8  -6-6513.96 11436.3  11
  16   8  -6 17167.0 8264.18  18
  16   8  -7-3035.79 10349.4  11
  16   8  -7-738.953 8480.62  18
  16   8  -8 347.025 8735.68  11
  16   8  -8 1225.64 9024.84  18
  16  -8   9 175.771 7490.29  14
  16   8  -9-1767.18 8312.76  11
 -16   8  -9-5971.34 8411.03   4
  16   8  -9 259.846 5360.81  18
  16   8 -10 1248.33 2598.24  11
 -16   8 -10 11153.1 9898.67   4
  16   8 -10 68.9077 5041.92  18
 -16   8 -11-7691.94 10563.4   4
  16  -8  12 23234.0 23200.8  14
 -16   8 -12-685.306 5127.81   4
 -16   8 -13-224.163 4939.80   4
  16   9  -6-963.389 2540.13  18
  16   9  -7 8686.58 5692.48  18
  16   9  -8-2282.55 13042.7  11
  16   9  -8-3876.42 2283.77  18
  16   9  -9-6880.65 11605.1  11
  16   9  -9-1780.14 5518.15  18
  16   9 -10-1907.87 5012.82  11
  16   9 -10-607.301 5577.32  18
  16   9 -11-1100.71 10626.8  11
  16   9 -11 1347.83 5959.65  18
  16   9 -12 2003.72 9161.82  11
  16  -9  13-3949.57 7663.95  14
 -16   9 -13-119.321 5697.97   4
  16  -9  14-549.932 5165.37  14
 -16   9 -14 2282.95 2890.68   4
  16  10 -10-1969.83 8554.07  11
  16  10 -10-3066.09 7783.34  18
  16  10 -11-819.746 7531.95  11
  16  10 -11 3115.92 2807.79  18
  16  10 -12 163.348 7299.36  11
  16  10 -12-139.786 4789.68  18
  16  10 -13 443.454 8166.87  11
  16  10 -13 536.359 7942.96  18
  16  10 -14 500.546 12220.3  11
  16  11 -13-1732.73 8050.15  18
  16  11 -14-358.729 4348.72  11
  16  11 -14-280.419 4535.33  18
  16  11 -15 601.047 1100.13  11
  17   0   3 8316.20 6742.50   8
  17   0   4 2883.77 3595.28   8
  17   0   5 632.689 1440.34   8
  17   0  -6-2951.33 6134.76   1
 -17   0   6-7973.57 8192.73   4
  17   0   6-2676.21 3802.01   8
  17   0  -7 1550.82 4425.39   1
 -17   0   7 3059.39 2531.03   4
  17   0   7-111.601 3473.92   8
  17   0  -8 2664.28 12774.6   1
 -17   0   8 2592.93 4618.18   4
  17   0   8-1875.98 3715.04   8
  17   0  -9 761.973 8302.73   1
 -17   0   9-3144.91 3643.74   4
  17   0   9 1050.74 4477.55   8
 -17   0  10-2663.67 3619.50   5
  17   0 -10 117.155 8228.28   1
 -17   0  10 8094.38 5107.59   4
  17   0  10-2754.67 4625.48   8
 -17   0  11 5355.88 5630.23   5
 -17   0  11 3851.96 4834.59   4
  17   0 -11 3244.79 5657.94   1
  17   0  11 18305.7 7744.37   8
 -17   0  12-2542.28 5921.25   5
 -17   0  12-7596.18 6556.98   4
  17   0 -12-202.468 6191.54   1
  17   0  12-3440.74 4859.45   8
 -17   0  13 6345.75 7774.07   5
 -17   0  13 14711.3 7216.76   4
  17   0 -13 2980.79 9098.97   1
  17   0  13 12643.3 7914.79   8
 -17   0  14 2885.44 4371.85   5
 -17   0  14-2613.18 4356.59   2
 -17   0  14 1001.40 4529.71   4
  17   0 -14 6928.55 3544.33   1
  17   0  14-699.188 2455.09   8
 -17   0  15 4702.46 8018.83   5
 -17   0  15 8344.39 7922.82   2
 -17   0  15 12318.7 8020.74   4
  17   0  15 26146.4 10295.1   8
  17   0 -15 3021.93 5766.61   1
  17   0  16 10.5097 3557.36   8
  17   0  17-2234.72 3863.89   8
  17   0  18-2358.25 4876.14   8
  17   0  19 9459.57 7435.88   8
  17   0  20-1521.91 5428.76   8
  17   0  21-5058.99 8101.15   8
  17   1   0 10469.3 7309.46   8
  17   1   1 11167.2 7369.93   8
 -17   1   2 2125.24 2297.95   4
  17   1   2 17574.8 7809.23   8
  17  -1  -3 4093.24 9171.82   1
 -17   1   3 5209.10 5126.92   4
  17   1   3 13643.5 6767.25   8
  17  -1  -4 1402.23 5890.24   1
 -17   1   4-1864.39 2704.57   4
  17   1   4 3559.78 2724.82   8
  17  -1  -5-2880.89 5856.75   1
 -17   1   5-622.815 2386.33   4
  17   1   5-1423.94 2657.63   8
  17  -1   5-967.885 3704.79   8
 -17   1   6-18628.1 8958.43   5
  17  -1  -6-2580.35 8670.87   1
 -17   1   6-5565.34 6903.10   4
  17   1   6-3078.35 2760.82   8
  17  -1   6-1018.62 2845.50   8
 -17   1   7-9461.13 10260.3   5
 -17   1   7-10657.9 8469.81   4
  17  -1  -7 2161.61 4586.89   1
  17   1   7 2618.39 3723.14   8
  17  -1   7-1250.35 3720.30   8
 -17   1   8-10638.7 8844.81   5
 -17   1   8-4452.07 1823.87   4
  17  -1  -8-1748.58 8249.80   1
  17   1   8 2606.61 4708.59   8
  17  -1   8-3018.33 3705.05   8
 -17   1   9 5325.06 6184.12   5
 -17   1   9 50.1850 5331.14   4
  17   1   9 1357.43 3447.76   8
  17  -1  -9 3045.45 12075.3   1
  17  -1   9-87.9857 1777.05   8
 -17   1  10-13714.7 10712.1   5
  17   1 -10 5353.43 7949.45   1
 -17   1  10-9282.52 7303.06   4
  17   1  10 4.01990 1412.18   8
  17  -1 -10-761.313 12339.0   1
  17  -1  10 6336.42 6702.58   8
 -17   1  11 12341.3 9267.82   5
  17   1 -11-1228.54 5186.13   1
 -17   1  11 330.446 3047.80   4
  17   1  11-132.984 3397.12   8
  17  -1  11 2946.27 2009.22   8
  17  -1 -11-3159.02 11508.0   1
 -17   1  12 17623.7 10723.6   5
  17   1 -12 3184.45 5273.22   1
 -17  -1  12 1102.41 2705.93   4
 -17   1  12-4554.33 5620.64   4
  17   1  12 2448.38 3027.89   8
  17  -1  12 9791.99 8161.02   8
  17  -1 -12 13947.1 17258.3   1
  17   1 -13-2320.97 1865.57   1
 -17  -1  13 6514.21 5993.45   4
  17   1  13 3900.88 5597.86   8
  17  -1  13 1989.81 1129.81   8
 -17  -1  13 321.961 2205.45   2
 -17  -1  14 9493.04 8480.61   2
  17   1 -14-2942.94 2200.64   1
 -17  -1  14 11954.2 6675.88   4
  17   1  14 14370.2 9466.52   8
  17  -1  14 12910.4 9257.07   8
 -17  -1  15 1769.37 1123.62   2
  17   1 -15 1355.53 6218.32   1
 -17  -1  15 954.645 4747.82   4
  17   1  15 11683.3 10413.1   8
  17  -1  15 5997.21 5195.95   8
 -17  -1  16-2520.04 3367.71   5
 -17  -1  16-1632.61 2405.29   2
  17   1 -16 1561.99 6622.72   1
  17   1  16 3965.91 6569.19   8
  17  -1  16-213.229 2273.38   8
 -17  -1  17 5180.78 5526.36   5
 -17  -1  17 3786.31 5821.00   2
  17   1 -17-10512.8 12692.7   1
  17   1  17 1383.22 4009.76   8
  17  -1  17 2923.87 2890.08   8
 -17  -1  18 2344.84 6721.61   5
 -17  -1  18-1061.78 4221.28   2
  17   1 -18 1365.14 3488.51   1
  17   1  18 151.951 2976.04   8
  17  -1  18-3424.78 5032.42   8
  17  -1  19 1616.44 3245.33   8
  17  -1  20-6935.64 5908.35   8
  17  -1  21 707.989 2692.02   8
  17  -1  22 217.890 4568.39   8
  17  -1  23 2978.46 3064.53   8
 -17   2   0 4049.91 6201.38   4
  17   2   0 8464.30 6613.55   8
  17  -2  -1 5047.59 7498.45   1
 -17   2  -1 6632.17 5938.04   4
 -17   2   1 1549.01 2879.61   4
  17   2   1 13402.4 8618.70   8
 -17   2   2 5522.61 5756.79   5
  17  -2  -2 2861.75 6018.45   1
 -17   2   2-4711.69 7360.35   4
  17   2   2 3868.91 3502.13   8
  17   2  -2 9795.32 5489.79   8
 -17   2   3 2066.54 4326.06   5
  17  -2  -3 2928.44 6496.45   1
 -17   2   3-1234.72 3914.60   4
  17   2   3 14617.9 6890.66   8
 -17   2   4 8014.63 7566.03   5
 -17   2   4-1683.95 4746.55   4
  17  -2  -4-1009.50 3264.40   1
  17   2   4 6305.32 4386.78   8
 -17   2   5 4212.18 5002.85   5
 -17   2   5-11190.8 8051.02   4
  17  -2  -5-2495.49 7568.80   1
  17   2   5 2092.13 3902.13   8
 -17   2   6-2617.43 4620.60   5
  17  -2  -6 419.640 8531.57  14
 -17   2   6-3479.54 5383.40   4
  17   2   6 5834.60 4808.12   8
  17  -2  -6-5637.81 9296.13   1
  17  -2  -7 8592.65 11359.4  14
  17   2   7 821.326 3596.04   8
  17  -2  -7-1149.55 15163.6   1
  17   2   8 3542.83 5052.19   8
  17   2   9-1350.34 3738.65   8
  17  -2   9-3088.99 3621.37   8
  17   2  10 4402.94 5612.31   8
  17  -2  10 4171.43 4445.76   8
  17   2  11 3280.34 6651.67   8
  17  -2  11 184.437 3237.99   8
  17   2  12-4707.93 7832.45   8
  17  -2  12 5791.66 5456.85   8
  17   2  13 20509.8 9284.66   8
  17  -2  13 5201.90 6484.24   8
  17   2  14 15920.0 7725.16   8
  17  -2  14-3484.69 5473.88   8
  17   2  15-4166.19 6440.70   8
  17  -2  15-2843.68 3811.74   8
 -17  -2  15 4779.02 4908.44   2
  17   2 -16-2328.29 4058.65   1
  17  -2  16 1758.85 2624.60   8
 -17  -2  16 647.269 678.498   2
  17   2 -17 571.391 7500.63   1
  17  -2  17-434.332 1980.58   8
 -17  -2  17-1076.88 3813.39   2
 -17  -2  18 7786.15 8167.73   2
  17   2 -18 235.481 351.009   1
  17  -2  18 391.508 3115.81   8
 -17  -2  19 5470.51 7310.49   2
  17   2 -19-455.208 5863.11   1
  17  -2  19 96.2779 2797.30   8
 -17  -2  20-1675.64 5456.90   2
  17   2 -20 1090.65 3288.70   1
  17  -2  20 4903.72 4307.70   8
  17  -2  21-608.092 2138.67   8
  17  -2  22-98.2425 2020.50   8
  17  -2  23-2831.66 5331.84   8
  17  -2  24 5260.46 5982.43   8
  17  -2  25 3962.31 5287.74   8
 -17   3   0 10899.2 6084.44   5
  17  -3   0 6543.02 6589.47   1
 -17   3   0 14342.4 10230.4   4
  17   3   0 28642.6 10858.9   8
 -17   3   1 9019.66 7835.90   5
  17  -3  -1 716.295 3934.28  14
  17  -3   1 13901.2 10450.5   1
 -17   3  -1-4647.70 7248.81   4
  17  -3  -1 5058.48 7902.50   1
 -17   3   1-1046.91 1619.05   4
  17   3   1-3932.67 6179.93   8
  17   3  -1 2082.97 4116.89   8
 -17   3   2 10758.1 6457.52   5
  17  -3   2 1300.06 5024.88   1
  17  -3  -2 2071.85 4414.49  14
 -17   3  -2 913.975 1126.27   4
 -17   3   2-3329.04 5129.24   4
  17  -3  -2 1131.12 4439.00   1
  17   3   2 15191.9 10479.0   8
  17   3  -2 9807.95 9689.70   8
 -17   3   3 5063.95 7860.43   5
  17  -3  -3 2367.24 571.981  14
 -17   3  -3-2984.89 2536.20   4
 -17   3   3-15552.9 9167.48   4
  17   3   3 4001.14 6175.46   8
  17  -3  -3-955.276 7536.74   1
  17   3  -3 10142.0 9038.06   8
 -17   3   4 11854.8 11297.3   5
  17  -3  -4 2541.38 6238.35  14
 -17   3  -4 1501.37 4545.65   4
  17   3   4-3102.71 5233.77   8
  17  -3  -4 257.527 6816.22   1
 -17   3   5 35905.6 13952.1   5
  17  -3  -5-3371.26 5376.44  14
 -17   3   5 34155.3 14333.9   4
  17   3   5 3042.97 4599.70   8
  17  -3  -5 12336.7 13258.3   1
  17  -3  -6-7475.21 2201.56   1
  17   3   6-1140.87 3081.50   8
  17   3   7 6237.33 5814.18   8
  17   3   8 3332.21 6005.11   8
  17   3   9 11250.6 8409.24   8
  17   3  10 6642.54 7595.48   8
  17   3  11-8323.51 7182.77   8
  17   3  12 15053.1 9046.93   8
  17  -3  13-1459.60 2553.97   8
  17  -3  14 4276.27 5945.52   8
  17  -3  15-2192.27 2855.28   8
  17  -3  16 1424.11 4493.74   8
  17  -3  17 8344.59 6682.37   8
  17  -3  18 9556.01 6304.18   8
  17  -3  19 6597.67 3974.19   8
  17  -3  20 80.1610 3115.80   8
 -17  -3  20-2240.21 6279.08   2
  17  -3  21 4394.88 5615.90   8
 -17  -3  21 8258.63 6340.95   2
  17  -3  22-5542.35 4819.12   8
 -17  -3  22-7157.77 8693.56   2
  17  -3  23 11424.4 5763.47   8
  17  -3  24 4284.56 3800.36   8
  17  -3  25-6103.33 6396.75   8
  17  -3  26 4756.06 2701.58   8
  17  -3  27-530.633 1857.85   8
 -17   4   0 831.777 3284.81   5
  17  -4   0 912.656 5063.40  14
 -17   4   0-2123.50 1437.25   4
  17   4   0 6592.30 5389.14   8
  17  -4   0 4267.94 5377.71   1
 -17   4  -1 16263.9 11032.6   5
 -17   4   1-3778.44 7067.22   5
  17  -4   1 1116.74 2445.26  14
  17  -4  -1 393.361 5446.49  14
 -17   4  -1 13561.5 9939.13   4
  17  -4   1 2322.62 5346.09   1
 -17   4   1 3781.28 6490.97   4
  17   4   1 26028.0 9958.01   8
  17   4  -1 6144.64 6372.25   8
  17  -4  -1 8791.36 8345.02   1
 -17   4  -2 484.359 4493.69   5
 -17   4   2 11732.1 8215.89   5
  17  -4   2 3949.09 7063.64  14
  17  -4  -2-1425.84 2091.91  14
  17  -4   2-1390.96 4679.27   1
 -17   4  -2 2245.69 6117.56   4
  17   4   2-3101.45 2676.88   8
  17   4  -2-2412.69 3756.15   8
  17  -4  -2 13873.0 10427.5   1
  17  -4  -3-5648.55 2367.07   1
 -17   4   3 3499.19 8072.28   5
  17  -4  -3 3946.00 5702.51  14
  17  -4   3-928.256 5320.93   1
 -17   4  -3 1716.36 2551.36   4
  17   4   3 3393.10 3902.02   8
 -17   4   3-170.035 5598.35   4
  17   4  -3-2161.14 3523.73   8
  17  -4   4 119.793 4430.33   1
 -17   4  -4 6019.13 6451.99   4
  17   4   4 8255.84 7476.71   8
  17   4  -4 4398.31 3043.81   8
 -17   4  -5 4034.53 5941.62   4
  17   4   5-2954.12 1214.87   8
  17   4  -5 2367.57 3842.22   8
 -17   4  -6 3260.05 6621.69   4
  17   4   6-1262.15 4834.30   8
  17   4   7 4667.57 4448.78   8
  17   4   8-2040.33 6601.36   8
  17   4   9 2622.75 3122.36   8
  17  -4  20-4544.01 6136.95   8
  17  -4  21-3045.73 2524.35   8
  17  -4  22-3061.20 4028.06   8
  17  -4  23-6409.68 4308.17   8
  17  -4  24-6773.62 4156.41   8
  17  -4  25 6782.32 6451.86   8
  17  -4  26-5169.37 5956.72   8
  17  -4  27 4350.51 4946.48   8
  17  -4  28 3579.71 5649.19   8
  17  -4  29-1445.96 3951.35   8
  17  -5   0 3124.40 6888.05   1
 -17   5   0 7035.66 5765.76   5
  17  -5   0 88.4017 6556.65  14
  17   5   0 6157.47 6281.90   8
 -17   5   0 21338.4 13032.2   4
 -17   5  -1 3175.53 609.012   5
  17  -5   1-751.506 5601.18  14
 -17   5  -1 4266.33 5342.78   4
  17   5   1-7328.53 7776.76   8
  17   5  -1 6635.07 4853.13   8
  17  -5   1 10186.2 12748.3   1
 -17   5  -2 16764.8 9270.32   5
  17  -5   2 1680.63 9768.26  14
 -17   5  -2 3312.76 6256.26   4
  17   5   2 2476.78 1985.86   8
  17   5  -2 9242.08 6155.86   8
  17  -5   2-3012.09 4721.29   1
 -17   5  -3-7059.52 7971.05   5
  17  -5   3 227.175 3821.77  14
 -17   5  -3-3105.26 6193.08   4
  17  -5   3 5590.47 10187.8   1
  17   5   3 5617.16 7069.56   8
  17   5  -3 5010.03 4516.51   8
 -17   5  -4 5408.26 8865.52   5
  17  -5   4-1512.62 2763.46  14
  17  -5   4-16563.5 9903.49   1
 -17   5  -4 5170.48 8025.21   4
  17   5   4-10181.9 7500.84   8
  17   5  -4 210.549 6750.28   8
  17  -5   5-1883.95 4485.28  14
  17  -5   5-2839.61 2638.26   1
 -17   5  -5-3779.03 4970.48   4
  17   5   5-7772.63 8119.65   8
  17   5  -5-1136.05 2913.36   8
 -17   5  -6-916.745 3202.36   4
  17   5   6 15668.9 10537.2   8
 -17   5  -7 9584.82 7454.78   4
 -17   5  -8 979.415 4168.33   4
  17   6   0-7975.33 5183.32   8
  17   6   0-250.391 6305.75  18
  17   6   1-1799.77 4596.96   8
  17   6  -1 2028.84 9960.63   8
  17   6  -1 436.357 5300.41  18
  17   6   2-2869.63 2020.15   8
  17   6  -2-1164.32 3030.04   8
  17   6  -2 291.153 1391.45  18
 -17   6  -3 3000.07 3923.15   5
  17  -6   3-1461.58 5052.26  14
  17   6   3 12791.1 8894.86   8
 -17   6  -3 8338.17 9963.87   4
  17   6  -3-482.618 4444.45   8
  17  -6   3 1614.30 6198.87   1
  17   6  -3 477.113 3357.61  18
  17  -6   4-422.802 3466.43  14
 -17   6  -4 3634.31 5792.98   4
  17   6  -4-1645.85 2340.31   8
  17  -6   4 3869.06 6923.26   1
 -17   6  -5 1428.49 7224.25   5
  17  -6   5 251.736 4400.74  14
  17  -6   5-1718.08 8362.96   1
 -17   6  -5 2890.36 3679.67   4
 -17   6  -6-1323.13 2448.23   5
  17  -6   6-353.632 4761.28  14
 -17   6  -6 4279.01 4552.79   4
  17  -6   7-1316.33 5124.75  14
 -17   6  -7 4253.74 5664.67   4
 -17   6  -8-2972.65 3470.60   4
 -17   6  -9-2549.94 6316.62   4
  17   7   0-8679.89 8490.68   8
  17   7   0-7638.17 7310.08  18
  17   7  -1-6611.26 10593.9   8
  17   7  -1-6616.96 6887.52  18
  17   7  -2-1476.43 5302.83   8
  17   7  -2-3511.24 4816.43  18
  17   7  -3-12350.8 9792.39   8
  17   7  -3 280.632 7006.18  18
  17   7  -4 324.911 2318.22  18
  17   7  -5 1710.80 6627.19  18
 -17   7  -6-6483.56 8891.75   5
 -17   7  -6-4791.64 10456.8   4
  17   7  -6 243.241 1436.82  18
 -17   7  -7-4347.13 5239.53   5
  17  -7   7 262.901 17334.7  14
 -17   7  -7-2853.99 5681.07   4
 -17   7  -8 3913.95 5271.36   5
 -17   7  -8 6157.82 6142.15   4
 -17   7  -9 1946.27 6452.00   4
 -17   7 -10 3941.20 7277.94   4
 -17   7 -11-4360.39 8812.91   4
  17   8  -3 5375.59 4813.17  18
  17   8  -4-7329.45 5906.92  18
  17   8  -5-648.744 1383.82  18
  17   8  -6 4644.06 4586.10  18
  17   8  -7 3144.26 7613.24  11
  17   8  -7-96.3748 3938.85  18
  17   8  -8 850.244 6092.32  11
  17   8  -8-40.2850 2337.24  18
  17   8  -9-1750.14 3278.42  11
  17  -8  10-951.191 4125.12  14
 -17   8 -10-787.157 4350.66   4
  17  -8  11 1735.58 6228.91  14
 -17   8 -11-3406.31 7163.31   4
 -17   8 -12 13382.7 11760.2   4
  17   9  -6 17104.3 12556.1  18
  17   9  -7-2024.28 8815.92  11
  17   9  -7-997.003 3451.75  18
  17   9  -8-695.331 3823.77  11
  17   9  -8 735.522 1874.66  18
  17   9  -9-3357.74 6643.96  11
  17   9  -9-659.025 6139.54  18
  17   9 -10-21.7625 7200.67  11
  17   9 -10-1467.94 3085.52  18
  17   9 -11-536.317 9091.83  11
  17  -9  13 1391.16 6195.74  14
 -17   9 -13-3033.79 687.220   4
 -17   9 -14 4660.65 7855.95   4
  17  10 -10 148.402 1415.25  11
  17  10 -10 1897.77 5021.04  18
  17  10 -11 70.6532 8326.54  11
  17  10 -11-1268.69 5219.51  18
  17  10 -12 835.988 6980.18  11
  17  11 -14 5414.55 30060.2  11
  18   0   4-3834.02 3368.16   8
  18   0   5 5722.04 5207.87   8
  18   0   6 246.604 1490.86   8
  18   0   7 55.4795 1042.22   8
  18   0  -8 868.823 4960.91   1
 -18   0   8-324.444 2715.03   4
  18   0   8 1817.26 3281.08   8
  18   0  -9-216.139 4344.85   1
 -18   0   9 6165.31 6979.53   4
  18   0   9 1231.07 2632.85   8
  18   0 -10-301.330 5494.61   1
 -18   0  10 11949.3 7674.80   4
  18   0  10-1387.98 2972.90   8
  18   0 -11-21.2128 5901.29   1
 -18   0  11 3966.54 3460.09   4
  18   0  11 1492.69 2683.37   8
  18   0 -12 2028.52 8520.61   1
 -18   0  12 17777.5 9298.06   4
  18   0  12 1478.22 5886.80   8
 -18   0  13-2559.03 7487.10   5
  18   0 -13-185.251 3861.66   1
 -18   0  13-7008.40 4876.74   4
  18   0  13-7658.05 8206.83   8
 -18   0  14 4711.53 5540.09   5
 -18   0  14 288.876 4329.08   4
  18   0 -14-68.9169 8377.67   1
  18   0  14 7566.60 6431.72   8
 -18   0  15 137.673 1895.82   5
  18   0 -15-825.516 6986.44   1
  18   0  15-1480.05 3287.87   8
  18   0  16 3382.47 4695.25   8
  18   0  17 2840.97 5278.39   8
  18   0  18 1253.06 5119.23   8
  18   0  19 1981.48 6012.49   8
  18   0  20 4951.35 6112.93   8
  18   1   1 6607.12 7038.92   8
  18   1   2 467.160 809.631   8
  18   1   3 238.354 808.535   8
 -18   1   4-1293.01 4740.31   4
  18   1   4 1446.96 3519.09   8
  18  -1  -5-923.726 4335.32   1
 -18   1   5 2926.78 4330.25   4
  18   1   5-706.731 2736.85   8
  18  -1  -6-524.900 5108.59   1
 -18   1   6-3617.85 6633.63   4
  18   1   6-117.343 2345.96   8
  18  -1  -7 1001.25 4911.59   1
 -18   1   7-5084.61 6609.42   4
  18   1   7-2559.38 4326.61   8
  18  -1   7 531.263 5125.78   8
 -18   1   8 7303.61 7439.05   5
  18  -1  -8 753.298 2135.22   1
 -18   1   8-3489.86 3452.71   4
  18   1   8 2266.96 4582.61   8
  18  -1   8 1234.04 6294.72   8
 -18   1   9-6125.90 7267.40   5
 -18   1   9-3230.83 706.677   4
  18  -1  -9 732.393 6822.23   1
  18   1   9-1643.74 7789.94   8
  18  -1   9-1700.72 1618.50   8
 -18   1  10 1056.24 1977.23   5
 -18   1  10-4385.79 6309.61   4
  18  -1 -10-3863.14 8966.56   1
  18   1  10-2380.62 5132.77   8
  18  -1  10-573.675 2443.02   8
 -18   1  11-2775.13 4816.92   5
 -18   1  11-9796.76 8705.20   4
  18  -1 -11-11425.4 15191.8   1
  18   1  11-1189.53 7289.41   8
  18  -1  11 2321.15 8596.47   8
 -18   1  12-9123.67 8293.88   5
 -18   1  12-811.111 4532.94   4
  18   1  12-3140.49 5117.32   8
  18  -1  12 748.770 2926.39   8
  18   1 -13-1930.62 4236.59   1
  18   1  13 197.223 3882.08   8
  18  -1  13 9199.67 6675.35   8
  18   1 -14 1333.87 7404.61   1
  18   1  14 3989.47 5287.45   8
  18  -1  14 5465.31 7705.77   8
  18   1 -15 2561.29 9358.52   1
  18   1  15 1275.15 5410.16   8
  18  -1  15 2764.00 3522.68   8
  18   1 -16 3643.27 10060.1   1
  18   1  16-3443.82 4951.63   8
  18  -1  16 6539.76 4997.02   8
 -18  -1  17 1915.42 3750.92   2
  18   1 -17 4295.89 4046.70   1
  18   1  17 1495.64 4830.14   8
  18  -1  17-3928.77 7407.75   8
  18   1  18 10939.0 8023.92   8
  18  -1  18 2785.86 2574.88   8
  18  -1  19-6915.35 5944.33   8
  18  -1  20-3203.21 5731.09   8
  18  -1  21-2369.29 5305.00   8
  18  -1  22 17.1770 2697.61   8
  18  -1  23-6192.74 4783.23   8
 -18   2   0 9453.36 7238.28   4
  18   2   0 7188.89 3746.15   8
 -18   2   1 3022.50 4302.63   4
  18   2   1 11633.9 6751.39   8
  18   2  -1 4855.50 5075.81   8
  18  -2  -2 8067.47 7250.90   1
 -18   2   2-1585.29 2495.18   4
  18   2   2 9722.11 6326.68   8
  18  -2  -3 2065.00 6172.14   1
 -18   2   3 7327.43 4811.21   4
  18   2   3 13411.4 7901.29   8
 -18   2   4-16.7741 3631.01   5
  18  -2  -4 1981.43 3159.15   1
 -18   2   4 8128.46 8084.70   4
  18   2   4 2971.79 4324.38   8
 -18   2   5 3398.46 2358.73   5
  18  -2  -5 3570.79 6593.32   1
 -18   2   5-860.309 1750.33   4
  18   2   5 12232.3 6800.48   8
 -18   2   6 2458.10 1843.33   5
 -18   2   6-380.379 2256.94   4
  18  -2  -6-1060.83 4060.99   1
 -18   2   7 1802.39 1870.32   5
 -18   2   7 4047.76 4781.21   4
  18  -2  -7-2849.34 10375.3   1
  18   2   7 1205.89 2667.17   8
 -18   2   8-7201.07 6363.60   5
 -18   2   8-726.284 1154.56   4
  18   2   8 4837.44 5925.44   8
  18  -2  -8-5957.28 13458.7   1
 -18   2   9-6620.98 6867.14   5
 -18   2   9 4574.03 5955.98   4
  18   2   9-1120.45 5029.77   8
  18  -2  -9-15508.5 10382.5   1
  18   2  10-670.049 3815.18   8
  18  -2  10 1859.43 6959.54   8
  18   2  11 4442.58 9119.94   8
  18  -2  11 1711.09 4974.90   8
  18   2  12 1599.73 5724.08   8
  18  -2  12 2431.55 4645.61   8
  18   2  13 2129.35 3029.87   8
  18  -2  13 9098.23 6611.61   8
  18   2  14 41.0866 5175.48   8
  18  -2  14 6543.35 6153.24   8
  18   2  15 21199.2 12555.0   8
  18  -2  15 7695.28 6596.88   8
  18  -2  16 2628.72 4349.85   8
  18  -2  17 4626.77 4799.81   8
  18  -2  18 674.340 3185.99   8
 -18  -2  18-8222.99 7531.10   2
  18  -2  19 947.051 3227.11   8
 -18  -2  19 1319.49 2273.97   2
  18  -2  20 1902.19 1207.40   8
  18  -2  21 8553.60 6851.88   8
  18  -2  22 7215.92 3589.40   8
  18  -2  23 6026.60 5522.25   8
  18  -2  24-3773.06 3891.13   8
  18  -2  25 564.895 3184.71   8
  18  -3   0-997.745 4689.99   1
 -18   3   0-1062.50 4293.70   4
  18   3   0 4307.24 5598.89   8
 -18   3   1 7263.91 7884.12   5
  18  -3  -1 3433.74 5199.31   1
 -18   3  -1 4874.35 2258.75   4
 -18   3   1 4994.87 7720.05   4
  18   3   1-2298.46 3388.89   8
  18   3  -1 8521.89 5911.91   8
 -18   3   2 2669.82 6086.55   5
 -18   3  -2-5480.23 4186.65   4
  18  -3  -2-5532.84 8086.33   1
 -18   3   2 10544.6 6882.30   4
  18   3   2-1662.02 3265.03   8
  18   3  -2 6092.70 8808.22   8
 -18   3   3-7455.27 8150.43   5
 -18   3   3-6312.77 7918.87   4
  18  -3  -3 152.918 6621.92   1
  18   3   3-2416.84 4489.72   8
  18   3  -3-2550.27 4965.94   8
 -18   3   4 2527.07 4345.12   5
  18  -3  -4 8174.08 6866.70  14
 -18   3   4-3036.33 4469.44   4
  18  -3  -4-84.6745 6124.62   1
  18   3   4 1050.98 2513.84   8
 -18   3   5-4968.23 971.905   5
  18  -3  -5 1614.15 5928.02  14
 -18   3   5 534.006 4283.11   4
  18   3   5 5142.04 6972.58   8
  18  -3  -5 1534.35 4027.01   1
 -18   3   6 3957.16 5903.48   5
 -18   3   6 5106.00 7344.63   4
  18   3   6 4654.09 6181.06   8
  18  -3  -6 650.340 10158.0   1
  18   3   7-1610.14 4523.08   8
  18   3   8-2766.70 3959.54   8
  18   3   9-4556.71 6540.29   8
  18   3  10 2266.33 8024.57   8
  18   3  11 11264.2 8170.79   8
  18   3  12 1953.07 5285.09   8
  18  -3  15 1557.76 4323.78   8
  18  -3  16 1080.46 4404.38   8
  18  -3  17 2362.94 1785.90   8
  18  -3  18-1188.75 3008.51   8
  18  -3  19 6167.03 4561.69   8
  18  -3  20 2844.28 3558.91   8
  18  -3  21 984.099 2824.91   8
  18  -3  22 1658.69 4892.07   8
  18  -3  23 7760.53 6411.86   8
  18  -3  24 3722.22 3477.55   8
  18  -3  25 9964.23 6703.69   8
  18  -3  26 887.955 2197.44   8
  18  -3  27 8744.51 7576.42   8
 -18   4   0 5240.10 5054.50   5
  18  -4   0-2319.35 3896.80  14
  18  -4   0 2960.02 6508.66   1
 -18   4   0 5720.17 6264.82   4
  18   4   0-325.450 2153.82   8
 -18   4  -1 1326.79 5001.66   5
 -18   4   1 108.016 1362.04   5
  18  -4  -1 1584.40 5160.57  14
  18  -4   1-376.159 5417.19   1
 -18   4  -1 5288.85 7138.56   4
 -18   4   1 1407.88 3560.17   4
  18  -4  -1-3058.82 9423.75   1
  18   4   1-1860.98 627.549   8
  18   4  -1-2259.15 3436.14   8
 -18   4   2 852.807 4679.06   5
  18  -4  -2 1674.47 7948.57  14
  18  -4   2-6234.77 4991.34   1
 -18   4  -2 2526.95 3142.23   4
 -18   4   2-6872.64 8121.65   4
  18   4   2 12081.4 7387.80   8
  18  -4  -2 19741.8 15120.3   1
  18   4  -2-784.934 4832.75   8
 -18   4   3 3181.16 3608.32   5
 -18   4  -3 3647.72 7149.49   4
 -18   4   3 10854.7 11741.7   4
  18   4   3-1097.47 1494.33   8
  18   4  -3 971.810 8810.81   8
  18  -4  -3 4267.66 6440.84   1
 -18   4  -4 1109.16 4942.57   4
  18   4   4-4459.49 3153.12   8
  18   4  -4 4365.70 4270.06   8
 -18   4  -5 6683.46 7406.54   4
  18   4   5 6326.93 2719.16   8
  18   4   6 9302.79 7092.01   8
  18   4   7-682.045 2393.00   8
  18   4   8 8027.86 6815.46   8
  18   4   9 14774.4 8593.91   8
 -18   5   0 6554.94 7107.64   5
 -18   5   0 2921.02 3549.04   4
  18   5   0 3872.82 3993.95   8
  18  -5   0 6551.08 10793.3   1
 -18   5  -1 5570.78 6085.94   5
  18  -5   1 1874.41 9193.28  14
 -18   5  -1-6240.97 6706.46   4
  18   5   1 2725.07 5201.45   8
  18  -5   1-2719.13 6191.90   1
  18   5  -1-265.186 1588.44   8
 -18   5  -2-3430.26 4993.24   5
  18  -5   2-3788.14 4045.40  14
  18  -5   2 1063.79 4416.80   1
 -18   5  -2-8298.09 6381.82   4
  18   5   2 817.909 4256.61   8
  18   5  -2-4399.72 5070.14   8
 -18   5  -3-6991.69 8216.54   5
  18  -5   3 1454.98 4872.05  14
  18  -5   3-5776.72 8965.59   1
 -18   5  -3 2552.03 5002.67   4
  18   5   3-1091.49 7453.76   8
  18   5  -3 1661.63 3009.50   8
  18  -5   4 2414.05 7159.11   1
 -18   5  -4 6243.99 6344.15   4
  18   5   4-2924.31 4151.31   8
  18   5  -4-291.371 3025.24   8
 -18   5  -5-1721.59 5024.70   4
  18   5   5 2484.67 1888.15   8
  18   5  -5 6804.06 2053.77   8
 -18   5  -6 370.513 2041.81   4
  18   5   6-584.923 2904.06   8
 -18   5  -7-3779.64 4862.46   4
  18   6   0 1056.92 3978.18   8
  18   6   1 55.1845 2996.15   8
  18   6  -1 410.721 2127.99   8
  18   6   2 7772.60 6993.29   8
  18   6  -2 4267.86 5185.30   8
 -18   6  -3 11783.8 11440.5   5
 -18   6  -3-8127.80 9387.36   4
  18   6   3 5462.82 3697.28   8
  18  -6   3 8059.12 11495.4   1
  18   6  -3 8937.25 5964.31   8
 -18   6  -4 4621.00 5239.80   5
  18  -6   4 10920.3 12776.2  14
 -18   6  -4 12820.9 11844.2   4
  18   6  -4-2370.56 4301.40   8
 -18   6  -5 1633.98 7613.49   5
  18  -6   5-3614.98 10433.0  14
  18  -6   5-5006.27 12294.8   1
 -18   6  -5 3815.93 6393.09   4
  18  -6   6-3279.33 8996.01  14
 -18   6  -6 4349.67 4110.48   4
 -18   6  -7-3283.77 8200.75   4
 -18   6  -8 6058.13 7917.25   4
  18   7   0 244.270 4195.56   8
  18   7  -1 8553.01 6064.41   8
  18   7  -1-500.625 5887.48  18
  18   7  -2 2069.22 5027.48   8
  18   7  -2 1200.71 4139.51  18
  18   7  -3 1050.73 5714.28   8
  18   7  -3 544.371 729.988  18
  18   7  -4 2360.66 4059.12  18
 -18   7  -7-79.2851 1043.66   5
  18  -7   7-913.294 6196.44  14
  18  -7   8-6327.87 8098.21  14
 -18   7  -8 45.1565 1221.85   4
 -18   7  -9 7728.73 7847.69   4
 -18   7 -10-246.799 3394.97   4
  18   8  -3 846.518 5491.86  18
  18   8  -4 2310.03 8243.39  18
  18   8  -5 601.118 8997.62  18
  18   8  -6-112.102 5865.42  18
  18  -8  10 819.962 6335.65  14
 -18   8 -10 2195.78 4779.66   4
 -18   8 -11 1871.33 1827.50   4
  18   9  -7 670.338 11318.5  18
  18   9  -8-636.106 2756.00  18
  18   9  -9 1104.36 11274.0  11
  18  10 -10 1786.39 3586.03  18
  18  10 -11-678.276 10861.8  11
  19   0   6 53001.5 22515.6   8
  19   0   7-79.5669 7282.53   8
  19   0   8-25.3925 4908.10   8
  19   0   9-250.680 1394.86   8
  19   0  10-3540.49 5098.69   8
  19   0 -11 8159.66 10263.4   1
 -19   0  11 12015.4 7320.97   4
  19   0  11 1539.98 6208.54   8
  19   0 -12-1432.63 4131.88   1
 -19   0  12 6351.43 7918.97   4
  19   0  12 3455.96 4895.22   8
  19   0 -13-2172.87 8956.48   1
 -19   0  13-6694.59 5119.70   4
  19   0  13 1450.14 5695.40   8
  19   0 -14-5335.98 9802.35   1
 -19   0  14 10260.6 7393.62   4
  19   0  14 1138.16 4927.73   8
  19   0  15 5088.84 2934.87   8
  19   0  16 6675.42 7722.43   8
  19   0  17-1409.64 3901.53   8
  19   0  18-5414.06 6491.89   8
  19   0  19 69.2621 580.131   8
  19   0  20-1597.37 2393.94   8
 -19   1   6 4041.16 4946.11   4
  19   1   6 48965.8 18491.4   8
  19  -1  -7 1828.55 5328.90   1
 -19   1   7-948.366 6000.34   4
  19   1   7-806.917 1673.69   8
  19  -1  -8 1901.97 7140.40   1
 -19   1   8-7473.92 6940.12   4
  19   1   8 2403.41 4292.50   8
  19  -1  -9-4015.82 2458.37   1
 -19   1   9 10523.2 6778.62   4
  19   1   9 3068.86 7090.94   8
  19  -1   9-596.029 6126.78   8
  19  -1 -10-2189.06 7031.67   1
 -19   1  10-5446.00 1466.07   4
  19   1  10-686.955 6918.54   8
  19  -1  10-913.469 3811.44   8
 -19   1  11-8766.90 6076.24   5
  19  -1 -11 8926.01 12663.5   1
 -19   1  11 4515.82 5521.18   4
  19   1  11 3005.01 2131.52   8
  19  -1  11 35.3433 2196.44   8
  19   1  12 543.284 5089.75   8
  19  -1  12-1.98635 4465.13   8
  19   1  13-305.627 3205.78   8
  19  -1  13 731.077 986.147   8
  19   1  14-355.311 4628.35   8
  19  -1  14-4664.56 3867.53   8
  19   1  15-71.1954 5184.11   8
  19  -1  15-1115.02 3870.97   8
  19   1  16 2485.20 4415.25   8
  19  -1  16-8762.12 7865.28   8
  19   1 -17 8579.16 9080.42   1
  19   1  17 3226.97 3927.55   8
  19  -1  17 4271.97 2401.31   8
  19  -1  18 10002.9 7172.01   8
  19  -1  19-5521.85 5601.62   8
  19  -1  20-2825.10 2295.00   8
  19  -1  21-11265.2 7235.41   8
  19  -1  22-312.374 4201.75   8
  19   2   1 6517.15 7142.41   8
 -19   2   2 9518.08 7399.86   4
  19   2   2 1265.48 5719.81   8
 -19   2   3-2640.75 6549.08   4
  19   2   3 1785.09 3335.30   8
  19  -2  -4 2037.79 4061.23   1
 -19   2   4 1535.34 4369.28   4
  19  -2  -5 1172.52 4100.95   1
 -19   2   5-347.812 3452.79   4
  19   2   5 12019.5 10726.8   8
 -19   2   6 1452.81 4014.07   5
  19  -2  -6 7495.44 11242.5   1
 -19   2   6 3880.50 4608.09   4
  19   2   6 15168.8 9760.00   8
 -19   2   7 2274.28 4141.71   5
  19  -2  -7 4583.42 9807.58   1
 -19   2   7-2729.70 5875.04   4
  19   2   7 8418.44 4747.97   8
 -19   2   8 99.3191 1765.14   5
 -19   2   8-4834.26 6631.38   4
  19  -2  -8-3517.21 5662.77   1
  19   2   8 58.0835 4332.64   8
  19  -2  -9 534.453 5619.34   1
  19   2   9-1639.71 2360.61   8
  19   2  10 2170.94 5917.13   8
  19   2  11-712.366 452.442   8
  19   2  12-856.355 4762.10   8
  19   2  13 388.879 5496.97   8
  19  -2  13-1962.38 4812.65   8
  19   2  14 3168.28 6718.08   8
  19  -2  14-1721.48 2367.50   8
  19   2  15-1125.51 7251.09   8
  19  -2  15-1224.58 1347.51   8
  19  -2  16 5633.27 5559.96   8
  19  -2  17 765.664 2144.40   8
  19  -2  18 11892.3 7478.23   8
  19  -2  19 1130.41 2023.60   8
  19  -2  20-18175.9 8406.69   8
  19  -2  21 1346.03 2859.57   8
  19  -2  22 7544.82 5141.76   8
  19  -2  23 1823.41 1447.47   8
  19  -2  24 2170.91 4547.81   8
 -19   3   0 3028.69 5719.16   4
  19   3   0 1176.63 3657.06   8
  19  -3  -1 5131.50 6888.07   1
 -19   3  -1 11211.8 10985.4   4
 -19   3   1-193.460 2083.54   4
  19   3   1 549.143 2448.17   8
  19   3  -1 1474.81 4987.06   8
  19  -3  -2 7128.45 9519.08   1
 -19   3   2 2945.87 1065.99   4
  19   3   2-53.5767 979.126   8
 -19   3   3-5135.87 7648.29   5
  19  -3  -3-1915.55 8618.04   1
 -19   3   3 10487.8 6866.73   4
  19   3   3 2991.50 8728.45   8
 -19   3   4 2722.76 1742.23   5
  19  -3  -4 1292.38 5519.31   1
 -19   3   4 6476.67 6099.67   4
  19   3   4-753.556 2316.48   8
 -19   3   5-2472.57 3071.74   4
  19  -3  -5 1056.50 4505.75   1
  19   3   5 2800.40 4003.08   8
 -19   3   6 3504.75 5751.55   4
  19  -3  -6 921.076 12263.0   1
  19   3   6-1456.85 3989.92   8
  19   3   7 3145.35 4333.68   8
  19   3   8-2996.41 6005.64   8
  19   3   9 1234.67 6678.83   8
  19   3  10-1395.98 6840.64   8
  19   3  11 421.394 1988.44   8
  19   3  12 3675.52 9414.76   8
  19  -3  19 736.507 1017.35   8
  19  -3  20 6538.73 5702.84   8
  19  -3  21-2722.18 2409.79   8
  19  -3  22-2947.74 3150.55   8
  19  -3  23 2257.08 2582.07   8
  19  -3  24-3431.32 6815.78   8
  19  -3  25 695.579 502.681   8
  19  -4   0-2635.54 3079.54   1
 -19   4   0-1974.18 4264.30   4
  19   4   0 2164.98 5920.76   8
 -19   4   1 7569.23 7372.59   5
  19  -4   1 2487.58 6073.01   1
  19  -4  -1-717.874 2503.54   1
 -19   4  -1-3022.23 4438.52   4
 -19   4   1-26.4029 3613.60   4
  19   4   1-308.679 7008.65   8
  19   4  -1-1345.26 8729.04   8
 -19   4   2 5066.13 4173.98   5
  19  -4  -2-271.109 7349.87  14
 -19   4  -2-9438.30 6340.10   4
  19  -4  -2-6658.90 8511.21   1
 -19   4   2 5729.94 6342.09   4
  19   4   2 744.798 1733.63   8
  19   4  -2-366.516 4096.97   8
 -19   4  -3-3558.69 5448.38   4
 -19   4   3-4380.68 6477.52   4
  19  -4  -3 1364.98 5596.61   1
  19   4   3 302.569 5582.29   8
  19   4  -3-268.528 2049.38   8
  19   4   4 3944.50 9682.23   8
  19   4   5 1517.51 6439.05   8
  19   4   6-6728.07 6855.85   8
  19   4   7 4042.26 4744.43   8
  19   4   8 4356.04 6018.45   8
  19   4   9 1842.69 6964.24   8
  19   5   0-14560.9 7853.62   8
 -19   5  -1 2844.16 6169.78   5
  19  -5   1-110.991 3793.50  14
  19  -5   1-1851.23 4180.99   1
 -19   5  -1 3866.35 6054.42   4
  19   5   1-1458.73 2958.01   8
  19   5  -1 485.059 4284.79   8
 -19   5  -2 1213.51 4059.63   5
  19  -5   2-4068.15 7859.14   1
 -19   5  -2 99.4678 3333.23   4
  19   5   2 306.961 3472.53   8
  19   5  -2 1490.69 7079.62   8
  19  -5   3 9254.64 13088.1   1
 -19   5  -3-18976.1 10485.1   4
  19   5   3-375.706 7810.21   8
  19   5  -3-2411.74 3209.18   8
 -19   5  -4-2208.10 5887.60   4
  19   5   4 4197.03 6254.72   8
  19   5  -4 2547.79 2821.93   8
 -19   5  -5 660.334 3240.37   4
  19   5   5-2487.82 7279.43   8
  19   5   6 2913.67 8235.49   8
  19   6   0-2037.82 7460.83   8
  19   6   1 438.021 8528.87   8
  19   6  -1 1659.35 7916.11   8
  19   6   2 944.642 5358.01   8
  19   6  -2-2434.65 7049.27   8
  19   6   3 103.791 6033.65   8
  19   6  -3 962.158 3233.90   8
  19  -6   4 1561.97 5592.37  14
  19  -6   4-2495.45 9752.67   1
 -19   6  -4-7760.94 8083.05   4
 -19   6  -5-17932.6 10490.4   4
 -19   6  -6 5678.71 7904.43   4
 -19   6  -7 853.783 4068.24   4
  19   7  -1-212.772 6766.66   8
  19   7  -2 1084.59 1523.30   8
 -19   7  -7 4731.25 6791.70   4
 -19   7  -8 7948.38 10701.3   4
 -19   7  -9-2473.56 3151.98   4
  19   8  -4-2344.97 8572.28  18
  20   0   7-3186.90 6736.56   8
  20   0   8-2196.63 4031.94   8
  20   0   9 1589.03 3990.37   8
  20   0  10 2480.93 5054.13   8
  20   0  11-3594.80 6667.66   8
  20   0  12 1865.55 8210.05   8
  20   0  13 1767.13 4255.73   8
  20   0 -14 14356.1 12227.0   1
  20   0  14-5051.60 4051.09   8
  20   0  15-2764.01 4420.42   8
  20   0  16 336.127 1805.89   8
  20   0  17-3888.78 4703.21   8
  20   0  18 7325.79 7425.17   8
  20   0  19-573.064 3246.09   8
  20   1   4-809.487 5505.25   8
  20   1   5-1422.61 5900.36   8
  20   1   6 2536.60 1882.17   8
  20   1   7 305.331 3833.32   8
  20   1   8 1528.10 4528.17   8
  20  -1  -9-3606.94 6037.53   1
 -20   1   9 4161.34 6433.38   4
  20   1   9 1249.47 4560.91   8
  20  -1 -10 382.610 9560.79   1
 -20   1  10-12958.5 8165.55   4
  20   1  10 1093.98 3515.36   8
  20  -1 -11 874.629 1610.20   1
  20   1  11-2340.24 2734.97   8
  20  -1  11 61.7864 2085.69   8
  20   1  12-1661.78 3400.70   8
  20  -1  12 1216.99 3633.03   8
  20   1  13 702.155 2432.74   8
  20  -1  13 5165.67 5316.77   8
  20   1  14-1480.97 8082.58   8
  20  -1  14 106.135 2363.59   8
  20   1  15 481.911 1377.06   8
  20  -1  15 2533.92 5030.77   8
  20   1  16-187.411 5671.83   8
  20  -1  16 5478.27 6850.97   8
  20   1  17-2709.37 3567.60   8
  20  -1  17 3003.61 5338.27   8
  20  -1  18-13728.9 6729.11   8
  20  -1  19 6652.56 8562.76   8
  20  -1  20 1598.70 3849.26   8
  20  -1  21-2457.91 3962.16   8
  20  -1  22-7607.94 7978.51   8
  20   2   2-1111.79 6420.32   8
  20   2   3 2327.36 4852.35   8
 -20   2   4 7780.50 7467.04   4
  20   2   4 1167.78 2646.63   8
 -20   2   5 7303.64 7505.42   4
  20   2   5-771.636 2748.89   8
  20  -2  -6 1929.10 5249.56   1
 -20   2   6 9325.18 7325.83   4
  20   2   6 948.754 2747.03   8
  20  -2  -7-2772.24 8518.37   1
 -20   2   7-1440.92 3541.15   4
  20   2   7 1090.78 4433.26   8
  20  -2  -8 3711.78 8383.70   1
 -20   2   8 4439.63 6412.79   4
  20   2   8 902.189 4112.57   8
  20   2   9-2614.18 8685.23   8
  20   2  10 1991.14 4773.87   8
  20   2  11 877.634 3551.98   8
  20   2  12-360.220 3244.96   8
  20   2  13 1015.26 3406.68   8
  20   2  14 1603.43 8724.44   8
  20  -2  15-2027.75 3880.98   8
  20  -2  16-1698.97 2151.60   8
  20  -2  17 3976.71 5840.48   8
  20  -2  18 3788.16 4960.88   8
  20  -2  19-5445.79 5713.91   8
  20  -2  20 7097.91 3839.65   8
  20  -2  21 4380.94 5678.96   8
  20  -2  22-1334.25 1459.51   8
  20   3   0 2225.51 779.558   8
 -20   3   1 8770.99 6391.55   4
  20   3   1 5147.09 7328.98   8
 -20   3   2 6590.27 6783.73   4
  20   3   2-1708.89 5872.90   8
  20  -3  -3 5540.88 3064.88   1
 -20   3   3 946.468 4403.85   4
  20   3   3-151.950 2954.17   8
  20  -3  -4 7393.41 11266.0   1
 -20   3   4-13556.7 11361.6   4
  20   3   4-697.967 1048.41   8
 -20   3   5 5128.20 6374.68   5
  20  -3  -5 1654.61 8226.61   1
 -20   3   5-9251.57 8357.92   4
  20   3   5 3714.85 8821.01   8
  20   3   6 547.122 3769.61   8
  20   3   7-2103.22 4101.60   8
  20   3   8 3563.91 6227.69   8
  20   3   9 4213.30 6558.83   8
  20   3  10 3654.27 2877.21   8
  20   3  11-1903.02 4949.49   8
  20   3  12 3922.63 7768.89   8
  20  -4   0 2163.96 2670.73   1
 -20   4   0 6475.04 4960.93   4
  20   4   0-427.629 4292.40   8
  20  -4  -1 2092.48 5874.77   1
 -20   4  -1-966.685 4869.22   4
 -20   4   1 2690.82 4796.85   4
  20   4   1 712.055 4115.87   8
  20   4  -1 819.471 3664.52   8
  20  -4  -2-1131.50 3504.51   1
 -20   4  -2-1055.20 3416.79   4
 -20   4   2 3286.81 3548.90   4
  20   4   2 2610.24 5112.28   8
  20   4  -2-36.1710 5752.42   8
  20   4   3 2552.65 5414.78   8
  20   4   4-424.413 4303.11   8
  20   4   5-3205.48 7437.56   8
  20   4   6 5831.04 10881.2   8
  20   4   7 2308.35 5845.99   8
  20   4   8 6763.94 10644.3   8
  20   4   9 4095.75 10444.9   8
  20   5   0 779.273 3418.12   8
 -20   5  -1 3171.26 4065.59   4
  20   5   1-689.992 1715.56   8
  20   5  -1 405.580 2555.07   8
  20  -5   2 1385.99 5204.05   1
 -20   5  -2 6736.44 6139.30   4
  20   5   2 593.651 7138.40   8
  20   5  -2-428.777 3368.57   8
 -20   5  -3 2213.42 3640.00   4
  20   5   3 62.5755 2818.94   8
  20   5  -3 499.043 3847.53   8
 -20   5  -4 9561.09 9167.18   4
  20   5   4 2021.72 8106.99   8
  20   5   5 4708.97 8988.51   8
  20   5   6 2414.10 6181.35   8
  20   6   0 2005.69 7135.40   8
  20   6   1 464.854 4116.43   8
  20   6  -1 1475.16 3332.47   8
  20   6   2 6214.92 9848.35   8
  20   6  -2 321.798 4245.58   8
 -20   6  -5 3880.23 6225.68   4
 -20   6  -6 69.7350 3807.23   4
  20   7  -1 2098.17 7832.95   8
 -20   7  -8 8654.98 8148.94   4
  21   0   9-1881.87 1231.20   8
  21   0  10-720.779 5223.42   8
  21   0  11-964.166 6754.92   8
  21   0  12-2983.37 4442.84   8
  21   0  13 1278.10 2304.82   8
  21   0  14 780.941 3806.21   8
  21   0  15 253.982 5562.40   8
  21   0  16-4576.37 3417.80   8
  21   0  17-1770.71 5425.77   8
  21   0  18-914.895 1051.04   8
  21   1   6 315.797 6124.31   8
  21   1   7 856.696 3397.68   8
  21   1   8-1169.40 8071.27   8
  21   1   9-1693.35 3105.48   8
  21   1  10-1936.55 2697.25   8
  21   1  11-1945.47 5041.27   8
  21   1  12 140.875 2178.63   8
  21   1  13 299.077 4009.88   8
  21  -1  13-1276.63 1670.59   8
  21   1  14-1649.55 6030.38   8
  21  -1  14-1111.72 4323.05   8
  21   1  15-819.229 2488.51   8
  21  -1  15-1540.80 4275.15   8
  21   1  16 611.260 7767.67   8
  21  -1  16-4.53552 4652.69   8
  21  -1  17 1719.35 5756.41   8
  21  -1  18 587.626 2893.47   8
  21   2   4 2293.66 4934.07   8
  21   2   5 2317.23 6726.72   8
  21   2   6 2758.93 7836.70   8
 -21   2   7 2381.95 2844.23   4
  21   2   7 120.560 7334.04   8
  21   2   8-2439.48 2641.61   8
  21   2   9 902.380 2058.15   8
  21   2  10-198.143 5607.80   8
  21   2  11 2580.54 1167.62   8
  21   2  12 2286.98 3889.55   8
  21   2  13-2086.24 6161.07   8
  21   2  14 1815.65 2477.37   8
  21   3   1-1803.32 3782.17   8
  21   3   2-1513.25 7669.91   8
 -21   3   3 5242.71 7178.49   4
  21   3   3 1792.03 4983.45   8
 -21   3   4 9375.93 8568.40   4
  21   3   4 2471.92 7877.67   8
  21   3   5 893.780 4786.11   8
  21   3   6 929.184 6687.93   8
  21   3   7-1367.45 3252.83   8
  21   3   8-616.047 3958.08   8
  21   3   9-1657.90 7845.20   8
  21   3  10 1603.40 8326.22   8
  21   3  11 264.098 7887.02   8
 -21   4   0-4004.02 8835.85   4
  21   4   0 449.618 2917.90   8
 -21   4   1 3567.34 5122.08   4
  21   4   1 2121.28 7775.27   8
  21   4  -1 1946.37 4154.17   8
  21   4   2-188.373 843.065   8
  21   4   3 281.329 5152.88   8
  21   4   4-987.703 5373.92   8
  21   4   5-2994.72 368.624   8
  21   4   6-2735.23 6215.01   8
  21   4   7 4140.75 9708.54   8
  21   4   8 180.115 4458.94   8
  21   5   0-543.878 819.441   8
  21   5   1-918.905 5423.05   8
  21   5  -1-350.754 6622.62   8
 -21   5  -2 7045.24 8675.18   4
  21   5   2 902.985 7777.23   8
  21   5  -2-540.017 5392.06   8
  21   5   3-1429.04 6673.89   8
  21   5   4 5318.27 6520.47   8
  21   5   5 3839.86 11169.8   8
  21   6   0 3212.27 5913.16   8
  21   6   1 2316.78 9860.28   8
  21   6  -1-1396.21 2241.59   8
  21   6   2 2654.23 9561.80   8
  22   0  12-550.886 2984.85   8
  22   0  13 124.523 3381.24   8
  22   0  14 672.497 4142.98   8
  22   1   8-849.827 5412.93   8
  22   1   9 2497.99 5889.46   8
  22   1  10-4129.18 7383.87   8
  22   1  11 512.339 6211.76   8
  22   1  12 1132.71 4595.22   8
  22   1  13 3891.93 8613.51   8
  22   1  14 1107.99 7094.40   8
  22   2   5-3669.82 4671.43   8
  22   2   6-3927.45 8135.25   8
  22   2   7 868.980 3509.04   8
  22   2   8 3138.83 5513.56   8
  22   2   9-827.955 2865.09   8
  22   2  10 2082.97 6436.91   8
  22   2  11 3682.95 6340.12   8
  22   2  12 777.687 318.594   8
  22   2  13 4435.02 7717.17   8
  22   3   3 574.944 4753.85   8
  22   3   4-2592.22 8429.65   8
  22   3   5 175.416 6120.08   8
  22   3   6 2333.28 6040.80   8
  22   3   7-3362.73 5188.48   8
  22   3   8-1554.60 5603.19   8
  22   3   9-864.544 6734.17   8
  22   3  10 532.727 6174.16   8
  22   4   1-624.397 6080.48   8
  22   4   2 862.401 5217.30   8
  22   4   3 1950.11 5887.87   8
  22   4   4-1428.23 5357.04   8
  22   4   5-177.403 1920.08   8
  22   4   6-2972.87 7113.51   8
  22   4   7-36.7120 5381.27   8
  22   5   0 25.9190 9717.13   8
  22   5   1 205.459 7387.10   8
  22   5  -1-2007.55 9428.79   8
  22   5   2-1241.04 8523.26   8
  22   5   3 2899.69 4403.99   8
  22   5   4 2653.33 8909.32   8
  22   6   0-912.595 9100.75   8
  23   2   8-1541.28 2091.19   8
  23   2   9 1575.60 9117.10   8
  23   2  10 6832.43 10181.7   8
  23   3   5 428.042 6595.12   8
  23   3   6-544.936 6011.56   8
  23   3   7 379.613 1195.59   8
  23   3   8-1952.56 6953.17   8
  23   3   9-3070.93 5969.38   8
  23   3  10-2028.35 4832.89   8
  23   4   3-1912.16 7033.82   8
  23   4   4 1691.41 5313.39   8
  23   4   5-589.039 2843.84   8
  23   4   6-3993.85 8416.63   8
  23   4   7-1560.68 4954.03   8
  23   5   1-35.5028 4298.82   8
  23   5   2-721.143 4102.78   8
  23   5   3-833.826 6034.25   8
  24   4   5 652.023 4927.81   8
   0   0   0    0.00    0.00   0
TITL HFMOF_16 in P4/mnc
REM P4/mnc (#128 in standard setting)
CELL 0.71073  19.186698  19.186698  32.542884  90.0000  90.0000  90.0000
ZERR   13.00   0.001260   0.001260   0.003039   0.0000   0.0000   0.0000
LATT  1
SYMM -x,-y, z
SYMM -y, x, z
SYMM  y,-x, z
SYMM -x+1/2, y+1/2,-z+1/2
SYMM  x+1/2,-y+1/2,-z+1/2
SYMM  y+1/2, x+1/2,-z+1/2
SYMM -y+1/2,-x+1/2,-z+1/2
SFAC C H O Hf
UNIT 572.00 468.00 104.00 13.00
TREF
HKLF 4
END
;
_shelx_hkl_checksum              71520
_shelx_shelxl_version_number     2014/7
_olex2_date_sample_data_collection 2015-11-10
_olex2_submission_special_instructions 'No special instructions were received'
loop_
_space_group_symop_operation_xyz
'x, y, z'
'-y, x, z'
'-x, -y, z'
'y, -x, z'
'x+1/2, -y+1/2, -z+1/2'
'-x+1/2, y+1/2, -z+1/2'
'y+1/2, x+1/2, -z+1/2'
'-y+1/2, -x+1/2, -z+1/2'
'-x, -y, -z'
'y, -x, -z'
'x, y, -z'
'-y, x, -z'
'-x-1/2, y-1/2, z-1/2'
'x-1/2, -y-1/2, z-1/2'
'-y-1/2, -x-1/2, z-1/2'
'y-1/2, x-1/2, z-1/2'
loop_
_atom_site_label
_atom_site_type_symbol
_atom_site_fract_x
_atom_site_fract_y
_atom_site_fract_z
_atom_site_U_iso_or_equiv
_atom_site_adp_type
_atom_site_occupancy
_atom_site_site_symmetry_order
_atom_site_calc_flag
_atom_site_refinement_flags_posn
_atom_site_refinement_flags_adp
_atom_site_refinement_flags_occupancy
_atom_site_disorder_assembly
_atom_site_disorder_group
Hf1 Hf -0.04149(14) 0.12248(13) 0.0000 0.0863(14) Uani 1 2 d DS TU P . .
Hf2 Hf 0.0000 0.0000 0.07484(9) 0.0778(16) Uani 1 4 d DS TU P . .
O1 O -0.0253(11) 0.0921(8) 0.1098(6) 0.065(6) Uiso 1 1 d D U . . .
O4 O -0.0815(12) 0.0341(13) 0.0344(7) 0.078(7) Uiso 1 1 d . U . . .
O13 O -0.0601(11) 0.1720(11) 0.0587(5) 0.080(7) Uiso 1 1 d D U . . .
O19 O -0.147(2) 0.164(2) 0.0000 0.104(12) Uiso 1 2 d S TU P . .
O20 O 0.025(2) 0.218(2) 0.0000 0.109(13) Uiso 1 2 d S TU P . .
C3 C -0.0698(7) 0.3105(13) 0.1915(8) 0.098(12) Uiso 1 1 d D U . . .
C4 C -0.0875(12) 0.3284(12) 0.1486(11) 0.158(17) Uiso 1 1 d D U . . .
H4 H -0.1031 0.3719 0.1401 0.190 Uiso 1 1 calc R . . . .
C5 C -0.0777(12) 0.2717(18) 0.1224(7) 0.162(18) Uiso 1 1 d D U . . .
H5 H -0.0879 0.2796 0.0949 0.194 Uiso 1 1 calc R . . . .
C6 C -0.0572(8) 0.2123(14) 0.1310(8) 0.088(12) Uiso 1 1 d D U . . .
C7 C -0.0393(12) 0.1941(12) 0.1744(11) 0.144(16) Uiso 1 1 d D U . . .
H7 H -0.0237 0.1506 0.1829 0.173 Uiso 1 1 calc R . . . .
C8 C -0.0491(11) 0.2505(17) 0.2003(6) 0.102(13) Uiso 1 1 d D U . . .
H8 H -0.0389 0.2428 0.2279 0.123 Uiso 1 1 calc R . . . .
C9 C -0.0784(8) 0.3655(10) 0.2199(4) 0.076(11) Uiso 1 1 d D U . . .
C16 C -0.0261(11) 0.4157(13) 0.2196(8) 0.026(13) Uiso 0.5 1 d DG U . . .
C15 C -0.025(3) 0.472(3) 0.2506(18) 0.075(16) Uiso 1 2 d DG U . . .
C15D C -0.077(4) 0.470(4) 0.279(2) 0.050 Uiso 0 1 d DG . . . .
C9D C -0.129(3) 0.420(3) 0.2796(16) 0.050 Uiso 0 1 d DG . . . .
C10 C -0.1299(11) 0.3693(11) 0.2502(6) 0.090(17) Uiso 1 2 d DG U . . .
C11 C -0.1815(7) 0.3185(7) 0.2500 0.15(3) Uiso 1 2 d DS TU P . .
H11A H -0.1996 0.3129 0.2773 0.221 Uiso 0.5 1 calc GR . . A -1
H11B H -0.1621 0.2752 0.2407 0.221 Uiso 0.5 1 calc GR . . A -1
H11C H -0.2184 0.3324 0.2319 0.221 Uiso 0.5 1 calc GR . . A -1
C12 C -0.0499(10) 0.1598(10) 0.1008(5) 0.069(10) Uiso 1 1 d D U . . .
C17 C 0.0256(11) 0.4243(16) 0.1963(9) 0.22(3) Uiso 1 1 d D U . . .
H H 0.0529 0.3824 0.1955 0.323 Uiso 1 1 calc GR . . . .
HA H 0.0538 0.4619 0.2065 0.323 Uiso 1 1 calc GR . . . .
HB H 0.0097 0.4353 0.1691 0.323 Uiso 1 1 calc GR . . . .
loop_
_atom_site_aniso_label
_atom_site_aniso_U_11
_atom_site_aniso_U_22
_atom_site_aniso_U_33
_atom_site_aniso_U_23
_atom_site_aniso_U_13
_atom_site_aniso_U_12
Hf1 0.092(2) 0.080(2) 0.087(2) 0.000 0.000 0.007(2)
Hf2 0.077(2) 0.077(2) 0.080(3) 0.000 0.000 0.000
loop_
_atom_type_symbol
_atom_type_description
_atom_type_scat_dispersion_real
_atom_type_scat_dispersion_imag
_atom_type_scat_source
C C 0.0033 0.0016 'International Tables Vol C Tables 4.2.6.8 and 6.1.1.4'
H H 0.0000 0.0000 'International Tables Vol C Tables 4.2.6.8 and 6.1.1.4'
Hf Hf -0.5830 6.1852 'International Tables Vol C Tables 4.2.6.8 and 6.1.1.4'
O O 0.0106 0.0060 'International Tables Vol C Tables 4.2.6.8 and 6.1.1.4'
loop_
_geom_angle_atom_site_label_1
_geom_angle_atom_site_label_2
_geom_angle_atom_site_label_3
_geom_angle
_geom_angle_site_symmetry_1
_geom_angle_site_symmetry_3
Hf1 Hf1 Hf1 90.0 10 2
Hf2 Hf1 Hf1 59.69(3) 9 10
Hf2 Hf1 Hf1 59.69(3) . 2
Hf2 Hf1 Hf1 59.69(3) 9 2
Hf2 Hf1 Hf1 59.69(3) . 10
Hf2 Hf1 Hf2 88.93(9) 9 .
O4 Hf1 Hf1 88.2(7) 4 2
O4 Hf1 Hf1 34.2(6) 4 10
O4 Hf1 Hf1 31.1(6) . 2
O4 Hf1 Hf1 31.1(6) 11 2
O4 Hf1 Hf1 88.4(7) . 10
O4 Hf1 Hf1 88.2(7) 10 2
O4 Hf1 Hf1 88.4(7) 11 10
O4 Hf1 Hf1 34.2(6) 10 10
O4 Hf1 Hf2 85.1(6) 11 .
O4 Hf1 Hf2 87.7(6) 10 .
O4 Hf1 Hf2 85.1(6) . 9
O4 Hf1 Hf2 34.3(7) 4 .
O4 Hf1 Hf2 87.7(6) 4 9
O4 Hf1 Hf2 36.1(6) . .
O4 Hf1 Hf2 34.3(7) 10 9
O4 Hf1 Hf2 36.1(6) 11 9
O4 Hf1 O4 68.3(13) 4 10
O4 Hf1 O4 62.0(12) . 11
O4 Hf1 O4 70.2(13) 4 .
O4 Hf1 O4 70.2(13) 10 11
O4 Hf1 O4 103.8(13) 4 11
O4 Hf1 O4 103.8(13) 10 .
O4 Hf1 O13 78.4(8) 4 .
O4 Hf1 O13 142.1(9) 10 .
O4 Hf1 O13 142.1(9) 4 11
O4 Hf1 O13 78.4(8) 10 11
O4 Hf1 O19 145.2(7) 10 .
O4 Hf1 O19 87.5(11) . .
O4 Hf1 O19 145.2(7) 4 .
O4 Hf1 O19 87.5(11) 11 .
O4 Hf1 O20 84.8(11) 10 .
O4 Hf1 O20 147.5(6) . .
O4 Hf1 O20 84.8(11) 4 .
O4 Hf1 O20 147.5(6) 11 .
O13 Hf1 Hf1 108.7(6) . 2
O13 Hf1 Hf1 110.1(6) . 10
O13 Hf1 Hf1 110.1(6) 11 10
O13 Hf1 Hf1 108.7(6) 11 2
O13 Hf1 Hf2 73.5(6) 11 9
O13 Hf1 Hf2 73.5(6) . .
O13 Hf1 Hf2 162.4(6) . 9
O13 Hf1 Hf2 162.4(6) 11 .
O13 Hf1 O4 137.7(9) 11 .
O13 Hf1 O4 80.2(8) 11 11
O13 Hf1 O4 80.2(8) . .
O13 Hf1 O4 137.7(9) . 11
O13 Hf1 O13 124.0(12) . 11
O13 Hf1 O19 71.7(7) 11 .
O13 Hf1 O19 71.7(7) . .
O13 Hf1 O20 74.5(7) . .
O13 Hf1 O20 74.5(7) 11 .
O19 Hf1 Hf1 85.2(10) . 2
O19 Hf1 Hf1 175.2(10) . 10
O19 Hf1 Hf2 117.4(6) . .
O19 Hf1 Hf2 117.4(6) . 9
O19 Hf1 O20 103.2(14) . .
O20 Hf1 Hf1 171.6(10) . 2
O20 Hf1 Hf1 81.6(10) . 10
O20 Hf1 Hf2 115.2(6) . 9
O20 Hf1 Hf2 115.2(6) . .
Hf1 Hf2 Hf1 91.06(9) 2 10
Hf1 Hf2 Hf1 91.06(9) 9 .
Hf1 Hf2 Hf1 60.61(5) 2 .
Hf1 Hf2 Hf1 60.61(5) 2 9
Hf1 Hf2 Hf1 60.61(5) 9 10
Hf1 Hf2 Hf1 60.61(5) 10 .
O1 Hf2 Hf1 76.3(5) 3 9
O1 Hf2 Hf1 113.9(5) 4 .
O1 Hf2 Hf1 76.3(5) 4 10
O1 Hf2 Hf1 76.3(5) . .
O1 Hf2 Hf1 113.9(5) 3 10
O1 Hf2 Hf1 113.9(5) 2 9
O1 Hf2 Hf1 109.5(5) 4 9
O1 Hf2 Hf1 113.9(5) . 2
O1 Hf2 Hf1 167.1(5) 3 .
O1 Hf2 Hf1 109.5(5) 2 .
O1 Hf2 Hf1 109.5(5) 3 2
O1 Hf2 Hf1 109.5(5) . 10
O1 Hf2 Hf1 167.1(5) 2 10
O1 Hf2 Hf1 167.1(5) . 9
O1 Hf2 Hf1 167.1(5) 4 2
O1 Hf2 Hf1 76.3(5) 2 2
O1 Hf2 O1 116.4(10) . 3
O1 Hf2 O1 73.9(5) 2 3
O1 Hf2 O1 73.9(5) 4 3
O1 Hf2 O1 116.4(10) 4 2
O1 Hf2 O1 73.9(5) . 2
O1 Hf2 O1 73.9(5) . 4
O4 Hf2 Hf1 86.7(6) 4 2
O4 Hf2 Hf1 31.5(6) 3 10
O4 Hf2 Hf1 36.6(6) 4 10
O4 Hf2 Hf1 89.6(6) 2 .
O4 Hf2 Hf1 89.6(6) 4 9
O4 Hf2 Hf1 86.7(6) 3 .
O4 Hf2 Hf1 36.6(6) . .
O4 Hf2 Hf1 31.5(6) . 2
O4 Hf2 Hf1 36.6(6) 2 2
O4 Hf2 Hf1 89.6(6) . 10
O4 Hf2 Hf1 86.7(6) 2 10
O4 Hf2 Hf1 89.6(6) 3 2
O4 Hf2 Hf1 86.7(6) . 9
O4 Hf2 Hf1 31.5(6) 2 9
O4 Hf2 Hf1 31.5(6) 4 .
O4 Hf2 Hf1 36.6(6) 3 9
O4 Hf2 O1 137.5(9) 2 4
O4 Hf2 O1 84.8(9) 2 2
O4 Hf2 O1 148.4(9) 4 3
O4 Hf2 O1 148.4(9) 2 .
O4 Hf2 O1 148.4(9) 3 2
O4 Hf2 O1 78.2(8) . 2
O4 Hf2 O1 78.2(8) 3 4
O4 Hf2 O1 84.8(9) 4 4
O4 Hf2 O1 78.2(8) 4 .
O4 Hf2 O1 137.5(9) 4 2
O4 Hf2 O1 137.5(9) . 3
O4 Hf2 O1 78.2(8) 2 3
O4 Hf2 O1 84.8(9) 3 3
O4 Hf2 O1 84.8(9) . .
O4 Hf2 O1 148.4(9) . 4
O4 Hf2 O1 137.5(9) 3 .
O4 Hf2 O4 104.3(12) 2 4
O4 Hf2 O4 67.9(6) 4 3
O4 Hf2 O4 67.9(6) 2 3
O4 Hf2 O4 67.9(6) 4 .
O4 Hf2 O4 67.9(6) 2 .
O4 Hf2 O4 104.3(12) 3 .
C12 O1 Hf2 136.1(14) . .
Hf1 O4 Hf1 114.8(10) 2 .
Hf1 O4 Hf2 114.2(12) 2 .
Hf2 O4 Hf1 107.2(9) . .
C12 O13 Hf1 139.9(16) . .
C8 C3 C4 120.1(9) . .
C8 C3 C9 125(3) . .
C9 C3 C4 115(2) . .
C3 C4 H4 124.3 . .
C5 C4 C3 111.5(18) . .
C5 C4 H4 124.2 . .
C4 C5 H5 115.7 . .
C6 C5 C4 129(2) . .
C6 C5 H5 115.6 . .
C5 C6 C7 120.0(9) . .
C5 C6 C12 122(3) . .
C12 C6 C7 118(3) . .
C6 C7 H7 124.4 . .
C8 C7 C6 111.3(18) . .
C8 C7 H7 124.3 . .
C3 C8 C7 129(2) . .
C3 C8 H8 115.7 . .
C7 C8 H8 115.8 . .
C16 C9 C3 115.3(6) . .
C16 C9 C10 118.7 . .
C10 C9 C3 125.6(7) . .
C9 C16 C15 120.2(11) . 7_455
C15 C16 C9 120.6 . .
C15 C16 C15 3(7) . 7_455
C17 C16 C9 131.6(2) . .
C17 C16 C15 107.8(2) . .
C17 C16 C15 108.1(11) . 7_455
C16 C15 C16 117.0(10) . 7_455
C16 C15 C15 120(5) . 8
C16 C15 C15 123(5) 7_455 8
C16 C15 C15 123(4) . 3_565
C16 C15 C15 119(6) 7_455 3_565
C16 C15 C15D 115.9 . .
C15 C15 C16 97(10) 7_455 .
C15 C15 C16 80(10) 7_455 7_455
C15 C15 C15 3(9) 8 3_565
C15 C15 C15 89(4) 7_455 8
C15 C15 C15 87(6) 7_455 3_565
C15 C15 C15D 84(10) 7_455 .
C15D C15 C16 4(9) . 7_455
C15D C15 C15 124(5) . 8
C15D C15 C15 121(5) . 3_565
C16 C15D C9 70(10) 7_455 7_455
C16 C15D C15 135(10) 7_455 7_455
C16 C15D C15 139(10) 7_455 .
C16 C15D C9D 74(10) 7_455 .
C15 C15D C9 126(3) 7_455 7_455
C15 C15D C9 126.2(11) . 7_455
C15 C15D C15 4(7) 7_455 .
C15 C15D C9D 123.6(14) 7_455 .
C9D C15D C9 4(2) . 7_455
C9D C15D C15 123.5 . .
C9 C9D C16 108(10) 7_455 7_455
C9 C9D C15D 115(10) 7_455 .
C9 C9D C10 110(10) 7_455 .
C16 C9D C15D 7(6) 7_455 .
C16 C9D C10 125(2) 7_455 .
C10 C9D C15D 119.6 . .
C9 C10 C9 124.8(11) . 7_455
C9D C10 C9 121.7 . .
C9D C10 C9 4(3) . 7_455
C11 C10 C9 117.5(11) . 7_455
C11 C10 C9 117.7(2) . .
C11 C10 C9D 120.6(2) . .
C10 C11 H11A 109.5 . .
C10 C11 H11B 109.5 . .
C10 C11 H11C 109.6 . .
H11A C11 H11B 109.4 . .
H11A C11 H11C 109.4 . .
H11B C11 H11C 109.4 . .
O1 C12 C6 123(2) . .
O13 C12 O1 113.7(19) . .
O13 C12 C6 123(2) . .
C16 C17 H 109.4 . .
C16 C17 HA 109.5 . .
C16 C17 HB 109.5 . .
H C17 HA 109.5 . .
H C17 HB 109.5 . .
HA C17 HB 109.5 . .
loop_
_geom_bond_atom_site_label_1
_geom_bond_atom_site_label_2
_geom_bond_distance
_geom_bond_site_symmetry_2
Hf1 Hf1 3.509(3) 2
Hf1 Hf1 3.509(3) 10
Hf1 Hf2 3.477(3) .
Hf1 Hf2 3.477(3) 9
Hf1 O4 2.17(2) 11
Hf1 O4 1.99(2) 4
Hf1 O4 2.17(2) .
Hf1 O4 1.99(2) 10
Hf1 O13 2.164(14) 11
Hf1 O13 2.164(14) .
Hf1 O19 2.19(4) .
Hf1 O20 2.23(4) .
Hf2 Hf1 3.477(3) 9
Hf2 Hf1 3.477(3) 10
Hf2 Hf1 3.477(3) 2
Hf2 O1 2.157(14) .
Hf2 O1 2.157(14) 4
Hf2 O1 2.157(14) 3
Hf2 O1 2.157(14) 2
Hf2 O4 2.15(2) 4
Hf2 O4 2.15(2) .
Hf2 O4 2.15(2) 2
Hf2 O4 2.15(2) 3
O1 C12 1.412(9) .
O4 Hf1 1.99(2) 2
O13 C12 1.404(9) .
C3 C4 1.48(3) .
C3 C8 1.25(3) .
C3 C9 1.413(6) .
C4 H4 0.9300 .
C4 C5 1.393(10) .
C5 H5 0.9300 .
C5 C6 1.24(3) .
C6 C7 1.49(3) .
C6 C12 1.413(6) .
C7 H7 0.9300 .
C7 C8 1.385(10) .
C8 H8 0.9300 .
C9 C16 1.3900 .
C9 C10 1.3976 .
C16 C15 1.4785 .
C16 C15 1.49(5) 7_455
C16 C17 1.260(4) .
C15 C16 1.49(4) 7_455
C15 C15 1.45(4) 8
C15 C15 1.45(4) 3_565
C15 C15 0.09(18) 7_455
C15 C15D 1.3613 .
C15D C9 1.440(19) 7_455
C15D C16 0.17(15) 7_455
C15D C15 1.35(5) 7_455
C15D C9D 1.3900 .
C9D C9 0.11(6) 7_455
C9D C16 1.352(15) 7_455
C9D C10 1.3589 .
C10 C9 1.401(17) 7_455
C10 C11 1.388(3) .
C11 H11A 0.9606 .
C11 H11B 0.9606 .
C11 H11C 0.9606 .
C17 H 0.9600 .
C17 HA 0.9600 .
C17 HB 0.9600 .
loop_
_geom_torsion_atom_site_label_1
_geom_torsion_atom_site_label_2
_geom_torsion_atom_site_label_3
_geom_torsion_atom_site_label_4
_geom_torsion
_geom_torsion_site_symmetry_1
_geom_torsion_site_symmetry_4
Hf1 O13 C12 O1 -7(3) . .
Hf1 O13 C12 C6 166.9(15) . .
Hf2 O1 C12 O13 -1(3) . .
Hf2 O1 C12 C6 -175.4(11) . .
C3 C4 C5 C6 0.0(4) . .
C3 C9 C16 C15 -178(5) . 7_455
C3 C9 C16 C15 -174(4) . .
C3 C9 C16 C17 6(4) . .
C3 C9 C10 C9 175(3) . 7_455
C3 C9 C10 C9D 171(4) . .
C3 C9 C10 C11 -7(4) . .
C4 C3 C8 C7 0.1(4) . .
C4 C3 C9 C16 -77.3(18) . .
C4 C3 C9 C10 110(3) . .
C4 C5 C6 C7 0.0(4) . .
C4 C5 C6 C12 180.0(3) . .
C5 C6 C7 C8 0.0(4) . .
C5 C6 C12 O1 178.7(19) . .
C5 C6 C12 O13 4.8(19) . .
C6 C7 C8 C3 -0.1(5) . .
C7 C6 C12 O1 -1.3(18) . .
C7 C6 C12 O13 -175.2(19) . .
C8 C3 C4 C5 0.0(3) . .
C8 C3 C9 C16 102.7(18) . .
C8 C3 C9 C10 -70(3) . .
C9 C3 C4 C5 180.0(2) . .
C9 C3 C8 C7 -180.0(3) . .
C9 C16 C15 C16 -3(10) . 7_455
C9 C16 C15 C15 -176(7) . 3_565
C9 C16 C15 C15 -178(4) . 8
C9 C16 C15 C15 -85(25) . 7_455
C9 C16 C15 C15D 1.9 . .
C9 C15D C9D C16 -4(31) 7_455 7_455
C9 C15D C9D C10 135(38) 7_455 .
C9 C9D C10 C9 138(37) 7_455 .
C9 C9D C10 C11 -44(37) 7_455 .
C16 C9 C10 C9 2(4) . 7_455
C16 C9 C10 C9D -1.4 . .
C16 C9 C10 C11 -179.8(4) . .
C16 C15 C15D C9 -5(4) . 7_455
C16 C15 C15D C9 100(41) 7_455 7_455
C16 C15 C15D C16 -106(37) . 7_455
C16 C15 C15D C15 -95(25) . 7_455
C16 C15 C15D C15 11(22) 7_455 7_455
C16 C15 C15D C9D -1.9 . .
C16 C15 C15D C9D 104(37) 7_455 .
C16 C15D C9D C9 4(31) 7_455 7_455
C16 C15D C9D C10 138(68) 7_455 .
C16 C9D C10 C9 -131(48) 7_455 7_455
C16 C9D C10 C9 7(12) 7_455 .
C16 C9D C10 C11 -175(12) 7_455 .
C15 C16 C15 C16 82(21) 7_455 7_455
C15 C16 C15 C15 -92(28) 7_455 3_565
C15 C16 C15 C15 -93(28) 7_455 8
C15 C16 C15 C15D 87(25) 7_455 .
C15 C15 C15D C9 173(11) 3_565 7_455
C15 C15 C15D C9 174(8) 8 7_455
C15 C15 C15D C9 90(27) 7_455 7_455
C15 C15 C15D C16 74(33) 8 7_455
C15 C15 C15D C16 73(32) 3_565 7_455
C15 C15 C15D C16 -11(23) 7_455 7_455
C15 C15 C15D C15 85(22) 8 7_455
C15 C15 C15D C15 83(24) 3_565 7_455
C15 C15 C15D C9D 93(25) 7_455 .
C15 C15 C15D C9D 178(4) 8 .
C15 C15 C15D C9D 176(7) 3_565 .
C15 C15D C9D C9 -134(38) . 7_455
C15 C15D C9D C9 -130(46) 7_455 7_455
C15 C15D C9D C16 -134(76) 7_455 7_455
C15 C15D C9D C16 -138(67) . 7_455
C15 C15D C9D C10 0.4 . .
C15 C15D C9D C10 5(9) 7_455 .
C15D C9D C10 C9 1.4 . .
C15D C9D C10 C9 -136(36) . 7_455
C15D C9D C10 C11 179.7(5) . .
C10 C9 C16 C15 -4(8) . 7_455
C10 C9 C16 C15 -0.3 . .
C10 C9 C16 C17 179.94(16) . .
C12 C6 C7 C8 -180.0(2) . .
C17 C16 C15 C16 177(10) . 7_455
C17 C16 C15 C15 4(7) . 3_565
C17 C16 C15 C15 2(4) . 8
C17 C16 C15 C15 95(25) . 7_455
C17 C16 C15 C15D -178.31(12) . .
