#------------------------------------------------------------------------------
#$Date: 2019-11-25 22:30:06 +0200 (Mon, 25 Nov 2019) $
#$Revision: 241967 $
#$URL: file:///home/coder/svn-repositories/cod/cif/4/13/18/4131835.cif $
#------------------------------------------------------------------------------
#
# This file is available in the Crystallography Open Database (COD),
# http://www.crystallography.net/
#
# All data on this site have been placed in the public domain by the
# contributors.
#
data_4131835
loop_
_publ_author_name
'Yan, Yong'
'O'Connor, Alice E'
'Kanthasamy, Gopikkaa'
'Atkinson, George'
'Allan, David R.'
'Blake, Alexander J.'
'Schr\"oder, Martin'
_publ_section_title
;
 Unusual and Tunable Negative Linear Compressibility in the Metal-Organic
 Framework MFM-133(M) (M = Zr, Hf).
;
_journal_issue                   11
_journal_name_full               'Journal of the American Chemical Society'
_journal_page_first              3952
_journal_page_last               3958
_journal_paper_doi               10.1021/jacs.7b11747
_journal_volume                  140
_journal_year                    2018
_chemical_formula_moiety         'C88 H72 Hf6 O32'
_chemical_formula_sum            'C88 H72 Hf6 O32'
_chemical_formula_weight         2756.40
_space_group_crystal_system      tetragonal
_space_group_IT_number           128
_space_group_name_Hall           '-P 4 2n'
_space_group_name_H-M_alt        'P 4/m n c'
_atom_sites_solution_hydrogens   geom
_audit_creation_date             2017-02-05
_audit_creation_method
;
Olex2 1.2
(compiled 2015.09.30 svn.r3233 for OlexSys, GUI svn.r5103)
;
_cell_angle_alpha                90
_cell_angle_beta                 90
_cell_angle_gamma                90
_cell_formula_units_Z            2
_cell_length_a                   19.3567(16)
_cell_length_b                   19.3567(16)
_cell_length_c                   32.036(4)
_cell_measurement_reflns_used    3342
_cell_measurement_temperature    293(2)
_cell_measurement_theta_max      13.6900
_cell_measurement_theta_min      1.9370
_cell_volume                     12003(2)
_computing_cell_refinement       'CrysAlisPro 1.171.38.41 (Rigaku OD, 2015)'
_computing_data_collection       'CrysAlisPro 1.171.38.41 (Rigaku OD, 2015)'
_computing_data_reduction        'CrysAlisPro 1.171.38.41 (Rigaku OD, 2015)'
_computing_molecular_graphics    'Olex2 (Dolomanov et al., 2009)'
_computing_publication_material  'Olex2 (Dolomanov et al., 2009)'
_computing_structure_refinement  'ShelXL (Sheldrick, 2015)'
_diffrn_ambient_temperature      293(2)
_diffrn_detector                 'CCD plate'
_diffrn_detector_area_resol_mean 16.1592
_diffrn_detector_type            Eos
_diffrn_measured_fraction_theta_full 0.920
_diffrn_measured_fraction_theta_max 0.920
_diffrn_measurement_details
;
List of Runs (angles in degrees, time in seconds):

  # Type    Start    End  Width  t~exp~   \w     \q     \k     \f   Frames
--------------------------------------------------------------------------
  1  \w      4.00  60.00   1.00   90.00    --   26.49   0.00 150.00   56
  2  \w     -5.00  38.00   1.00   90.00    --   26.49 -53.00  17.00   43
  3  \w    -49.00 -18.00   1.00   90.00    --   26.49 134.00 123.00   31
  4  \w    -30.00  -3.00   1.00   90.00    --   26.49  39.00 -12.00   27
  5  \w    -25.00   9.00   1.00   90.00    --   26.49  13.00  -3.00   34
  6  \w     11.00  56.00   1.00   90.00    --   26.49 -97.00-143.00   45
  7  \w    -52.00  -7.00   1.00   90.00    --  -28.05  53.00 -17.00   45
  8  \w      9.00  15.00   1.00   90.00    --  -28.05 -81.00  29.00    6
  9  \w     17.00  26.00   1.00   90.00    --  -28.05 -97.00  35.00    9
 10  \w     -5.00  13.00   1.00   90.00    --  -28.05 -53.00  17.00   18
 11  \w     -2.00  27.00   1.00   90.00    --  -28.05 -97.00-143.00   29
 12  \w    -20.00   4.00   1.00   90.00    --   26.49  81.00 151.00   24
 13  \w     -7.00  47.00   1.00   90.00    --   26.49 -37.00-180.00   54
 14  \w    -29.00 -21.00   1.00   90.00    --   26.49  97.00 -35.00    8
 15  \w     29.00  70.00   1.00   90.00    --   26.49-114.00  44.00   41
 16  \w    -49.00   1.00   1.00   90.00    --  -28.05  39.00 167.00   50
 17  \w     -8.00  27.00   1.00   90.00    --  -28.05 -39.00  12.00   35
 18  \w    -28.00  18.00   1.00   90.00    --  -28.05 -39.00-167.00   46
;
_diffrn_measurement_device       'four-circle diffractometer'
_diffrn_measurement_device_type  'SuperNova, Single source at offset, Eos'
_diffrn_measurement_method       '\w scans'
_diffrn_orient_matrix_type
'CrysAlisPro convention (1999,Acta A55,543-557)'
_diffrn_orient_matrix_UB_11      0.0321382000
_diffrn_orient_matrix_UB_12      0.0018428000
_diffrn_orient_matrix_UB_13      0.0107532000
_diffrn_orient_matrix_UB_21      -0.0064959000
_diffrn_orient_matrix_UB_22      0.0350842000
_diffrn_orient_matrix_UB_23      0.0048885000
_diffrn_orient_matrix_UB_31      -0.0164929000
_diffrn_orient_matrix_UB_32      -0.0102228000
_diffrn_orient_matrix_UB_33      0.0187239000
_diffrn_radiation_monochromator  mirror
_diffrn_radiation_probe          x-ray
_diffrn_radiation_type           MoK\a
_diffrn_radiation_wavelength     0.71073
_diffrn_reflns_av_R_equivalents  0.6189
_diffrn_reflns_av_unetI/netI     0.2350
_diffrn_reflns_Laue_measured_fraction_full 0.920
_diffrn_reflns_Laue_measured_fraction_max 0.920
_diffrn_reflns_limit_h_max       10
_diffrn_reflns_limit_h_min       -10
_diffrn_reflns_limit_k_max       12
_diffrn_reflns_limit_k_min       -12
_diffrn_reflns_limit_l_max       21
_diffrn_reflns_limit_l_min       -20
_diffrn_reflns_number            17466
_diffrn_reflns_point_group_measured_fraction_full 0.920
_diffrn_reflns_point_group_measured_fraction_max 0.920
_diffrn_reflns_theta_full        13.781
_diffrn_reflns_theta_max         13.781
_diffrn_reflns_theta_min         1.957
_diffrn_source                   'micro-focus sealed X-ray tube'
_diffrn_source_type              'SuperNova (Mo) X-ray Source'
_exptl_absorpt_coefficient_mu    2.615
_exptl_absorpt_correction_T_max  0.918
_exptl_absorpt_correction_T_min  0.908
_exptl_absorpt_correction_type   gaussian
_exptl_absorpt_process_details
;
CrysAlisPro 1.171.38.41 (Rigaku Oxford Diffraction, 2015)
Numerical absorption correction based on gaussian integration over
			a multifaceted crystal model
Empirical absorption correction using spherical harmonics,
 implemented in SCALE3 ABSPACK scaling algorithm.
;
_exptl_crystal_density_diffrn    0.763
_exptl_crystal_F_000             2616
_exptl_crystal_size_max          0.113
_exptl_crystal_size_mid          0.103
_exptl_crystal_size_min          0.052
_refine_diff_density_max         1.824
_refine_diff_density_min         -3.875
_refine_diff_density_rms         0.318
_refine_ls_extinction_coef       0.00000(3)
_refine_ls_extinction_expression Fc^*^=kFc[1+0.001xFc^2^\l^3^/sin(2\q)]^-1/4^
_refine_ls_extinction_method     'SHELXL-2014/7 (Sheldrick 2014'
_refine_ls_goodness_of_fit_ref   1.432
_refine_ls_hydrogen_treatment    constr
_refine_ls_matrix_type           full
_refine_ls_number_parameters     75
_refine_ls_number_reflns         908
_refine_ls_number_restraints     73
_refine_ls_restrained_S_all      6.783
_refine_ls_R_factor_all          0.2197
_refine_ls_R_factor_gt           0.1606
_refine_ls_shift/su_max          0.364
_refine_ls_shift/su_mean         0.009
_refine_ls_structure_factor_coef Fsqd
_refine_ls_weighting_details
'w=1/[\s^2^(Fo^2^)+(0.2000P)^2^] where P=(Fo^2^+2Fc^2^)/3'
_refine_ls_weighting_scheme      calc
_refine_ls_wR_factor_gt          0.4020
_refine_ls_wR_factor_ref         0.4427
_reflns_Friedel_coverage         0.000
_reflns_number_gt                585
_reflns_number_total             908
_reflns_threshold_expression     'I > 2\s(I)'
_cod_data_source_file            HfMOF_All.cif
_cod_data_source_block           hfmof_8.45kbar
_cod_database_code               4131835
_chemical_oxdiff_formula         'C88 H72 Hf6 O32'
_chemical_oxdiff_usercomment     'HFMOF UNDER 8.45KBAR'
_shelx_space_group_comment
;
The symmetry employed for this shelxl refinement is uniquely defined
by the following loop, which should always be used as a source of
symmetry information in preference to the above space-group names.
They are only intended as comments.
;
_reflns_odcompleteness_completeness 15.42
_reflns_odcompleteness_iscentric 1
_reflns_odcompleteness_theta     26.32
_olex2_refinement_description
;
1. Fixed Uiso
 At 1.2 times of:
  All C(H) groups
 At 1.5 times of:
  All C(H,H,H) groups
2. Restrained distances
 O13-C12
 1.41 with sigma of 0.01
 C12-O1
 1.41 with sigma of 0.01
 C6-C12 = C9-C3
 1.41 with sigma of 0.02
 C6-C12 = C9-C3
 1.41 with sigma of 0.01
 C9-C3 = C6-C12
 1.41 with sigma of 0.01
 Hf1-O13 = Hf2-O1
 2.11 with sigma of 0.02
 O1-C12 = O13-C12
 1.41 with sigma of 0.02
 C9-C15 = C9-C10
 1.41 with sigma of 0.02
 C10-C11 = C16-C17
 1.45 with sigma of 0.005
 C4-C5 = C7-C8
 1.39 with sigma of 0.01
 C6-C12 \\sim C9-C3
 with sigma of 0.01
 C9-C3 \\sim C6-C12
 with sigma of 0.01
 C11-C10 \\sim C16-C15 \\sim C17-C15
 with sigma of 0.01
 C9-C17 \\sim C15-C17 \\sim C9-C11 \\sim C11-C9D
 with sigma of 0.005
 C3-C7 \\sim C8-C6 \\sim C7-C5 \\sim C6-C4 \\sim C5-C3 \\sim C4-C8
 with sigma of 0.01
3. Restrained planarity
 C12, C6, C5, C4, C3, C9, C8, C7
 with sigma of 0.01
 C9, C3, C8, C7, C6, C12, C5, C4
 with sigma of 0.01
 C9, C3, C8, C4
 with sigma of 0.01
 C17, C15, C16, C10, C9, C11
 with sigma of 0.01
4. Rigid bond restraints
 C6, Hf2, Hf1, C8, C3, C5, C4, C7, C9, C10, C11, C12, C15, C16, C17, O1, O4,
 O13, O19, O20
 with sigma for 1-2 distances of 0.01 and sigma for 1-3 distances of 0.01
5. Uiso/Uaniso restraints and constraints
C6 \\sim Hf2 \\sim Hf1 \\sim C8 \\sim C3 \\sim C5 \\sim C4 \\sim C7 \\sim C9
\\sim C10 \\sim C11 \\sim C12 \\sim C15 \\sim C16 \\sim C17 \\sim O1 \\sim O4
\\sim O13 \\sim O19 \\sim O20: within 1.7A with sigma of 0.04 and sigma for
terminal atoms of 0.08
6. Others
 Fixed Sof: C15D(0.00001) C9D(0.00001) H11A(0.5) H11B(0.5) H11C(0.5)
 Fixed Uiso: C15D(0.05) C9D(0.05)
7.a Aromatic/amide H refined with riding coordinates:
 C4(H4), C5(H5), C7(H7), C8(H8)
7.b Fitted hexagon refined as free rotating group:
 C9(C16,C15,C15D,C9D,C10)
7.c Idealised Me refined as rotating group:
 C11(H11A,H11B,H11C), C17(H,HA,HB)
;
_shelx_res_file
;
    hfmof_7.3kbar.res created by SHELXL-2014/7

TITL HFMOF_7 in P4/mnc
REM P4/mnc (#128 in standard setting)
CELL 0.71073 19.356696 19.356696 32.035599 90 90 90
ZERR 2 0.001631 0.001631 0.003588 0 0 0
LATT 1
SYMM -X,-Y,+Z
SYMM -Y,+X,+Z
SYMM +Y,-X,+Z
SYMM 0.5-X,0.5+Y,0.5-Z
SYMM 0.5+X,0.5-Y,0.5-Z
SYMM 0.5+Y,0.5+X,0.5-Z
SYMM 0.5-Y,0.5-X,0.5-Z
SFAC C H Hf O
UNIT 184 136 12 64
DFIX 1.41 0.01 O13 C12
DFIX 1.41 0.01 C12 O1
DFIX 1.41 C6 C12 C9 C3
DFIX 1.41 0.01 C6 C12 C9 C3
DFIX 1.41 0.01 C9 C3 C6 C12
DFIX 2.11 Hf1 O13 Hf2 O1
DFIX 1.41 O1 C12 O13 C12
DFIX 1.41 C9 C15 C9 C10
DFIX 1.45 0.005 C10 C11 C16 C17
DFIX 1.39 0.01 C4 C5 C7 C8
SADI 0.01 C6 C12 C9 C3
SADI 0.01 C9 C3 C6 C12
SADI 0.01 C11 C10 C16 C15 C17 C15
SADI 0.005 C9 C17 C15 C17 C9 C11 C11 C9D
SADI 0.01 C3 C7 C8 C6 C7 C5 C6 C4 C5 C3 C4 C8
FLAT 0.01 C12 C6 C5 C4 C3 C9 C8 C7
FLAT 0.01 C9 C3 C8 C7 C6 C12 C5 C4
FLAT 0.01 C9 C3 C8 C4
FLAT 0.01 C17 C15 C16 C10 C9 C11
DELU C6 Hf2 Hf1 C8 C3 C5 C4 C7 C9 C10 C11 C12 C15 C16 C17 O1 O4 O13 O19 O20
SIMU 0.04 0.08 1.7 C6 Hf2 Hf1 C8 C3 C5 C4 C7 C9 C10 C11 C12 C15 C16 C17 O1 =
 O4 O13 O19 O20

L.S. 6
PLAN  9
MPLA 6 C3 C4 C5 C6 C7 C8
MPLA 4 C9 C10 C15 C16
CONN 0 C15D
CONN 0 C9D
CONN 1 0 C17
FREE C17 C15D
FREE C17 C15
BIND C16 C17
BIND Hf1 Hf2
DAMP 6000 3
MORE -1
BOND $H
CONF
fmap 2
acta 52
OMIT -4 52
OMIT 1 2 0
REM <olex2.extras>
REM <HklSrc "%.\\HFMOF_7.3KBAR.hkl">
REM </olex2.extras>

WGHT    0.200000
EXTI    0.000000
FVAR       0.09252
HF1   3   -0.040272    0.121210    0.000000    10.50000    0.03638    0.02909 =
         0.03545    0.00000    0.00000    0.00658
HF2   3    0.000000    0.000000    0.075856    10.25000    0.03188    0.03188 =
         0.03098    0.00000    0.00000    0.00000
O1    4   -0.022488    0.092192    0.109197    11.00000    0.01484
O4    4   -0.077365    0.031405    0.036428    11.00000    0.03233
O13   4   -0.057374    0.171650    0.058403    11.00000    0.03566
O19   4   -0.150104    0.168413    0.000000    10.50000    0.07445
O20   4    0.016442    0.221124    0.000000    10.50000    0.07245
C3    1   -0.067310    0.313283    0.193534    11.00000    0.05625
C4    1   -0.087140    0.324073    0.154617    11.00000    0.08686
SPEC 0.3
AFIX  43
H4    2   -0.103609    0.368142    0.148726    11.00000   -1.20000
AFIX   0
C5    1   -0.086533    0.277980    0.121356    11.00000    0.08728
AFIX  43
H5    2   -0.101492    0.289674    0.094689    11.00000   -1.20000
AFIX   0
C6    1   -0.059239    0.206822    0.132506    11.00000    0.04319
C7    1   -0.039333    0.195891    0.171478    11.00000    0.05156
AFIX  43
H7    2   -0.022862    0.151810    0.177334    11.00000   -1.20000
AFIX   0
C8    1   -0.039930    0.241874    0.204695    11.00000    0.06515
AFIX  43
H8    2   -0.024968    0.230155    0.231358    11.00000   -1.20000
AFIX  66
C9    1   -0.073569    0.369774    0.221232    11.00000    0.02349
PART -2
C16   1   -0.022787    0.420546    0.221220    11.00000    0.03186
PART 0
C15   1   -0.025701    0.474289    0.249990    10.50000    0.02970
PART 3
C15D  1   -0.079396    0.477204    0.278718    10.00001   10.05000
C9D   1   -0.130179    0.426432    0.278730    10.00001   10.05000
PART 0
C10   1   -0.127266    0.372728    0.249997    10.50000    0.03788
AFIX   0
C11   1   -0.179797    0.320203    0.250000    10.50000    0.10246
AFIX 137
H11A  2   -0.187929    0.304952    0.221912    10.50000   -1.50000
H11B  2   -0.221732    0.338764    0.261410    10.50000   -1.50000
H11C  2   -0.164800    0.281827    0.266680    10.50000   -1.50000
AFIX   0
C12   1   -0.056093    0.155454    0.101281    11.00000    0.02558
C17   1    0.031792    0.424209    0.195363    11.00000    0.06972
AFIX 137
H     2    0.064932    0.389481    0.202894    11.00000   -1.50000
HA    2    0.052671    0.469048    0.197561    11.00000   -1.50000
HB    2    0.016746    0.416715    0.167170    11.00000   -1.50000
AFIX   0
HKLF 4

REM  HFMOF_7 in P4/mnc
REM R1 =  0.1606 for     585 Fo > 4sig(Fo)  and  0.2197 for all     908 data
REM     75 parameters refined using     73 restraints

END

WGHT      0.2000      0.0000

REM Highest difference peak  1.824,  deepest hole -3.875,  1-sigma level  0.318
Q1    1  -0.1193  0.0674  0.0461  11.00000  0.05    1.70
Q2    1  -0.2215  0.1118  0.0806  11.00000  0.05    1.48
Q3    1  -0.2167  0.4907  0.1699  11.00000  0.05    1.26
Q4    1  -0.0315  0.2187  0.0306  11.00000  0.05    1.24
Q5    1   0.0000  0.0000  0.2064  10.25000  0.05    0.99
Q6    1  -0.0027  0.1091  0.1293  11.00000  0.05    0.87
Q7    1  -0.2187  0.1989  0.0000  10.50000  0.05    0.86
Q8    1   0.0295  0.2885  0.0000  10.50000  0.05    0.81
Q9    1  -0.0807  0.4600  0.2513  11.00000  0.05    0.79
;
_shelx_res_checksum              78392
_shelx_hkl_file
;
   0   1   2-1.87710 15.7754  17
   1   0  -2-0.19064 10.0368   3
   1   0  -2 4.14583 16.2857  13
  -1   0   2 2.75292 8.67943  16
  -1   0   3 7155.78 586.776  16
  -1   0   3 6840.58 512.010  17
  -1   0   3 4214.41 327.829   6
   1   0  -3 6671.74 440.631  18
  -1   0   3 7608.62 565.029   2
   1   0  -4 5.61384 9.07483  18
  -1   0   4 13.0572 33.8870   2
   0   1   4-1.06908 31.4018  17
  -1   0   4 4.58249 20.7480  17
  -1   0   4-4.43458 21.3084   6
  -1   0   4 8.49425 49.8437  16
   1   0  -4 13.0557 35.8303  11
  -1   0   5 495.157 173.045  16
  -1   0   5 405.656 129.506  17
  -1   0   5 611.639 173.620   2
   0   1   5 26.6127 38.5684  17
   1   0  -5 392.539 142.873  11
  -1   0   5 28.9148 21.0667   6
  -1   0   6 6.15813 40.7555   2
  -1   0   6-1.61234 34.6132  16
  -1   0   6 15.9200 33.8048  17
  -1   0   7 216.246 121.377  16
  -1   0   7 131.462 87.8935  17
  -1   0   7 279.579 141.132   2
  -1   0   8-3.58629 50.0965  17
  -1   0   8-43.6741 94.4129  16
  -1   0   8 2.75982 27.5049   2
  -1   0   9 855.603 265.603  16
  -1   0   9 389.160 147.661  17
  -1   0   9 1165.79 316.502   2
  -1   0  10-15.4447 30.7419   2
  -1   0  11 1552.46 389.981   2
  -1   0  11 1314.44 351.660  16
  -1   0  12-102.461 171.288  16
  -1   0  12-42.9871 69.9288   2
  -1   0  13 1194.46 347.298   2
  -1   0  13 1060.62 325.791  16
  -1   0  14-317.860 216.215  16
  -1   0  14 49.8579 101.073   2
  -1   0  15 1647.35 439.513   2
  -1   0  15 709.349 313.992  16
  -1   0  16-406.175 262.073  16
  -1   0  16 197.487 169.706   2
  -1   0  17 893.519 342.768   2
  -1   0  17 547.245 234.196  16
  -1   0  18-475.458 302.232  16
  -1   0  18 70.1748 125.793   2
  -1   0  19-6.59275 245.856  16
   1   1  -1-3.10276 25.9715  12
   1  -1  -1-2.12489 13.9576   1
  -1  -1   1-0.44294 25.2286   8
   1   1  -1-2.40487 19.1741   3
  -1  -1   2 10158.2 699.199  16
  -1   1   2 8887.34 693.587  17
   1   1  -2 11913.8 609.154   3
  -1   1   2 10665.9 712.024   2
   1  -1  -2 9772.32 617.455  18
  -1   1   2 9953.13 645.083  16
  -1  -1   2 10616.5 595.415   8
   1   1  -2 10982.6 591.911  12
  -1  -1   2 13209.9 639.930   6
  -1   1   3 8.74482 23.3897  17
   1   1  -3 6.73876 32.1807  19
  -1  -1   3 13.3949 49.8199  16
  -1   1   3 0.69897 19.8716  16
  -1   1   3-3.85188 33.9890   2
  -1  -1   3 4.46521 16.4487  14
  -1  -1   3 11.1749 27.4132   8
   1   1  -3-0.20588 24.6590   4
  -1  -1   3-3.54197 25.9166   6
   1  -1  -3 4.62253 25.8031  18
   1  -1  -3 5.28340 10.0231   1
   1  -1  -4 345.153 144.320  11
  -1   1   4 359.002 139.852   2
  -1  -1   4 355.713 144.039  16
   1   1  -4 158.212 64.5161  19
  -1  -1   4 261.865 100.988   8
  -1  -1   4 180.660 62.7052  14
  -1   1   4 249.055 108.712  17
   1  -1  -4 228.270 80.2263   1
  -1  -1   4 385.404 112.861   2
  -1   1   4 279.718 126.401  16
  -1  -1   4 186.758 86.5488   6
   1   1  -4 249.121 95.4173  11
   1  -1  -4 219.893 103.817  18
  -1   1   5-12.3273 37.6582  16
  -1  -1   5-17.9196 66.7757   8
  -1  -1   5 7.36094 47.2154   2
   1  -1  -5 1.81733 31.2979  18
  -1   1   5-14.1399 34.1584  17
   1  -1  -5-2.21364 19.7838   1
  -1  -1   5 9.52082 34.5920  16
  -1  -1   5 2.55509 5.14326  17
  -1  -1   5 0.42755 11.8651   6
  -1   1   5 6.50376 23.3043   2
  -1  -1   5-4.60942 3.24663  14
   1  -1  -5 16.9419 41.1798  11
  -1  -1   6 152.220 100.565  16
  -1  -1   6 36.5009 30.8238  17
  -1   1   6 154.972 99.0196  16
   1  -1  -6 105.647 58.3614   1
  -1   1   6 171.846 96.3710  17
  -1  -1   6 9.56997 49.8828   6
  -1  -1   6 181.001 87.5126   2
  -1   1   6 209.869 122.768   2
   1  -1  -6 74.4724 71.3765  11
  -1   1   7-3.25268 50.6471  16
  -1   1   7-0.05352 20.5982  17
   1  -1  -7-13.1741 50.1381   1
  -1  -1   7 1.51114 34.1973   2
  -1  -1   7-31.7074 78.9711  16
  -1   1   7-15.7218 59.7125   2
  -1   1   8 587.240 225.975   2
  -1   1   8 310.091 121.043  16
  -1   1   8 312.815 155.176  17
  -1  -1   8 559.898 214.468  16
  -1  -1   8 407.321 153.263   2
  -1  -1   9-2.07030 81.7300   2
  -1   1   9-75.3276 149.516  16
  -1   1   9-14.4545 56.6561   2
  -1   1   9 8.09616 12.3021  17
  -1  -1   9-77.0597 165.389  16
  -1   1  10 939.369 309.792   2
  -1  -1  10 774.300 228.676   2
  -1   1  10 510.248 162.812  16
  -1   1  10 636.726 219.392  17
  -1  -1  10 821.896 276.807  16
  -1  -1  11-120.972 197.108  16
  -1  -1  11-15.9730 78.9907   2
  -1   1  11-9.25628 15.7821   2
  -1   1  11-158.503 120.666  17
  -1   1  12 1317.37 388.950   2
  -1   1  12 651.832 226.622  16
  -1  -1  12 1125.33 299.772   2
  -1  -1  12 1002.49 315.710  16
  -1   1  13-297.249 198.046  16
  -1  -1  13-116.775 228.279  16
  -1  -1  13-7.29418 77.3161   2
  -1   1  13 92.6219 162.979   2
  -1  -1  14 657.921 251.726  16
  -1  -1  14 871.393 285.905   2
  -1   1  14 465.565 138.390  16
  -1   1  14 1025.53 359.253   2
  -1  -1  15-20.9387 147.156  16
  -1   1  15-187.522 145.748  16
  -1   1  15 349.642 221.633   2
  -1  -1  15-76.4434 116.614   2
  -1   1  16 36.0379 159.466  16
  -1  -1  16 148.675 88.8242  16
  -1  -1  16 727.710 292.310   2
  -1   1  16 680.062 295.480   2
  -1  -1  17-144.764 141.473   2
  -1   1  17 308.430 192.669   2
  -1   1  18-19.2736 214.398  16
  -1  -1  18-56.8527 278.823  16
  -1  -1  18 376.310 220.322   2
  -1   1  18 270.095 167.514   2
  -1  -1  19-441.642 305.365  16
  -1  -1  20-320.451 267.767  16
   0   2   0 7995.71 588.758  19
   0   2   0 7437.14 530.389   4
   0  -2   0 6787.82 411.101  18
   0   2   0 7710.46 557.063   5
   0  -2   0 8330.74 541.579   8
   0  -2   0 8296.88 541.900   1
   0   2   0 4926.26 381.642  17
   0  -2   0 5012.51 349.766  14
   0   2  -1-14.5990 39.3109   4
   0   2   1 9.74109 24.9422   4
   0   2   1-2.57605 24.7407  17
   0   2   1 1.49128 14.7738   2
   0   2  -1-38.4119 41.1261   5
   0  -2  -1-1.34932 21.9988  18
   0  -2  -1-2.17518 13.0152   1
   0  -2  -1-8.28068 30.4521   8
   0  -2   1-1.59093 3.44535   6
   0  -2  -1 4.99649 18.9031  14
   0  -2   1 5.31346 27.8449   8
   0  -2  -1-0.33549 14.7346  11
   0  -2   1 6.58357 25.4833  14
   0   2   1-1.88373 17.6183  19
   0   2   1 2.88260 9.61850   5
   0  -2   1-8.09406 22.0923   1
   0   2  -1-2.05774 44.7032  19
   0  -2   2 736.574 180.882   8
   0  -2   2 302.768 114.823   1
   0  -2   2 477.113 117.618   6
   0  -2  -2 894.827 237.966   8
   0  -2  -2 1483.36 241.313   1
   0   2   2 632.292 167.130  17
   2   0  -2 542.510 203.467   3
   0  -2  -2 1902.36 214.954  14
   0   2   2 853.296 179.590   2
   0   2   2 2385.54 349.978  19
   0   2   2 1549.19 259.357   5
   0  -2   2 548.950 140.116  14
   0  -2  -3-1.07422 10.1325   1
  -2   0   3 3.35316 4.32766   6
   2   0  -3 1.80716 27.5177   3
   2   0  -3-8.37783 12.1884  12
   2   0  -3-12.6400 26.1155  13
   0  -2  -3 5.34748 18.5349  14
   0   2   3-41.3917 58.6730  19
   0  -2   3-3.67991 9.90209  14
   0  -2   3-5.08993 35.5325   6
   0   2   3-3.10350 14.2148  17
   0   2   3-7.66170 50.5514   2
   2   0  -4 1443.19 294.330   3
   2   0  -4 760.330 196.759  18
   0   2   4 126.426 60.3325   2
  -2   0   4 449.124 174.287   2
   0  -2  -4 184.726 82.4723   1
   2   0  -4 744.904 202.048  13
  -2   0   4 979.283 302.234  16
   0   2   4 200.576 105.805  17
  -2   0   4 1233.41 229.506   6
   2   0  -4 1267.33 255.810  12
  -2   0   5 10.9127 82.9073  17
  -2   0   5-7.42061 22.4536   8
   0   2   5 5.81786 47.7588  17
   2   0  -5 3.19431 19.1800  18
  -2   0   5 1.39090 67.7117   2
  -2   0   5 20.4255 48.5546  16
  -2   0   5-4.17451 26.9001   6
   2   0  -5 35.1512 81.8869  12
  -2   0   6 518.671 193.323  17
  -2   0   6 466.303 127.096   8
  -2   0   6 438.243 213.499  16
  -2   0   6 585.072 224.819   2
  -2   0   6 252.693 111.397   6
   0   2   6 26.9528 36.6590  17
   2   0  -6 505.309 170.249  18
  -2   0   7-9.80231 64.5665  16
  -2   0   7 6.92274 76.4992   2
  -2   0   7 5.72926 29.1792   8
   2   0  -7-18.9307 62.0711  18
  -2   0   7-2.27652 7.24132   6
   2   0  -7-19.9064 15.4468  11
  -2   0   7 15.5900 60.7427  17
   2   0  -8-3.88386 68.3191  18
   2   0  -8 49.0207 94.9660  11
  -2   0   8 73.7018 67.5636   8
   2   0  -8 38.4061 41.3489   1
  -2   0   8 61.7336 92.2117  16
  -2   0   8 20.9661 52.5335   6
  -2   0   8 17.2553 68.8199  17
  -2   0   8 92.0356 127.349   2
   2   0  -9-6.50860 24.1554   1
  -2   0   9-22.1675 69.1920   2
  -2   0   9 26.0863 84.2005  16
  -2   0   9-113.475 105.964   8
  -2   0   9-11.0890 44.6166  17
  -2   0  10 873.514 269.905  17
  -2   0  10 1401.64 424.818  16
   2   0 -10 191.339 164.952  11
  -2   0  10 1767.53 443.226   2
   2   0 -10 381.888 104.714   1
  -2   0  11 44.3670 94.1624  16
  -2   0  11-21.8760 57.4119  17
   2   0 -11-15.6005 36.8051   1
  -2   0  11-42.6055 93.5317   2
   2   0 -12 87.9417 45.3188   1
  -2   0  12 1226.59 426.106  16
  -2   0  12 1384.43 381.695   2
  -2   0  12 563.263 228.821  17
  -2   0  13-141.978 138.969  17
  -2   0  13 146.738 170.975  16
   2   0 -13-13.8985 47.8199   1
  -2   0  13 92.1324 176.882   2
  -2   0  14 33.9969 99.8939  17
  -2   0  14 1450.00 397.950   2
   2   0 -14-24.3099 72.0812   1
  -2   0  14 953.711 368.622  16
  -2   0  15 116.666 157.331  16
   2   0 -15-66.0705 93.8594   1
  -2   0  15-0.92020 100.149   2
  -2   0  16 565.357 334.138  16
  -2   0  16 403.187 216.345   2
  -2   0  17-27.2175 61.5055  16
  -2   0  17-147.231 198.529   2
  -2   0  18-29.1398 118.630   2
  -2   0  18 215.066 212.929  16
  -2   0  19 32.3525 132.995  16
  -2   0  19 74.1369 94.4957   2
  -2   0  20 140.049 244.677   2
  -2   0  20 82.3553 221.436  16
  -2   0  21 10.6677 139.667   2
  -2   0  21-26.0226 134.460  16
  -1  -2   0 76.0730 63.8582   8
   1   2   0 14.5879 62.1862  12
   1   2   0 226.685 125.667  19
   1  -2   0-1.40183 31.1896   1
  -1  -2   0 136.120 71.3579  14
   1   2  -1 2009.05 284.365   5
   1   2  -1 2797.22 364.960  12
  -1  -2   1 2365.73 371.387   8
  -1  -2   1 2719.20 299.628  14
  -1  -2   1 1800.20 236.938   1
   1   2  -1 2685.58 353.031   4
  -1   2   1 1064.26 250.955   2
   1  -2  -1 1283.71 250.872   1
   1  -2  -1 2120.99 323.509  18
  -1  -2   1 3682.39 402.875   6
   1   2  -1 1306.44 238.110   3
   1   2   1 1443.75 371.471  19
   1  -2  -1 1865.30 230.752  13
   1   2  -1 3327.81 411.762  19
   2   1  -2 31.2160 45.1495   3
   1   2  -2 82.2624 56.8758   5
  -1   2   2 90.3328 81.5378  17
   1   2  -2 98.0771 73.8829  12
  -1  -2   2 66.9560 45.2259   1
  -1   2   2 56.8800 29.9628  19
  -1  -2   2 102.558 61.3143   6
   1  -2  -2 66.1619 54.8930  18
  -1  -2   2 89.9183 56.1814  14
   1   2  -2 94.4349 75.3695  19
   2   1  -2 61.8868 63.4229  12
   1   2  -2 78.0408 56.3298   3
  -1  -2   2 91.1313 71.9601   8
   1  -2  -2 68.3806 58.8395   1
  -1  -2   2 83.0891 65.7984  16
   2  -1  -2-10.3200 55.3675  13
  -1   2   2 125.934 89.2815   2
   1   2  -2 113.381 71.2728   4
   1  -2  -2-0.20894 6.26039  14
  -1   2   2 38.8158 49.5030   5
  -1   2   3 1886.37 248.912  19
   1  -2  -3 1280.33 237.523   1
   1   2  -3 1526.25 248.779   5
   2  -1  -3 1034.66 232.733  13
  -1  -2   3 1653.86 263.250   6
  -2  -1   3 712.676 231.412   8
  -1   2   3 1743.43 333.712   2
  -1   2   3 1288.74 187.402   4
   2  -1  -3 1576.39 300.517   3
  -1   2   3 1483.12 246.184  16
   1  -2  -3 1344.36 276.177  18
   2   1  -3 590.425 199.815  19
  -2  -1   3 1407.60 290.148   6
   2   1  -3 1557.42 313.909   3
  -1  -2   3 1690.51 308.180  16
   1   2  -3 1435.62 269.070  19
   1  -2  -3 256.868 74.0594  14
   2  -1  -3 632.689 204.389  12
  -1   2   3 1154.11 280.715  17
  -1  -2   3 1466.48 209.546  14
  -2   1   3 471.023 140.510   6
   2   1  -3 275.442 108.571  13
  -1   2   3 1250.00 241.812   5
  -1  -2   3 1774.84 295.848   8
   2   1  -3 1576.59 310.608  12
   1   2  -3 1542.95 274.506   4
   2  -1  -4 55.9670 44.9249  12
  -2  -1   4 43.7875 59.0529   8
   2  -1  -4 60.9058 85.3592  13
  -2  -1   4 52.7613 72.1552  16
  -1  -2   4 35.5337 28.0615  14
  -2   1   4 26.3860 89.6111  17
  -2   1   4 66.4383 52.0484   6
  -1   2   4 38.2945 46.1130   5
  -1  -2   4 44.7835 47.1262   8
   1   2  -4-11.6682 58.9788   5
   1   2  -4-18.7649 73.3206   4
  -1   2   4 63.2242 42.5733   4
   1   2  -4 54.4962 62.0156  19
   1  -2  -4 14.7089 18.7313  14
  -2   1   4 31.3884 25.4165  16
  -1  -2   4 24.0265 31.0153   6
   2   1  -4 31.7950 20.5158  19
  -1   2   4 46.3132 56.2084  16
  -1  -2   4 44.6080 59.9132  16
   2  -1  -4 54.1035 71.9651  18
  -2  -1   4 32.7968 28.5646  14
   1  -2  -4 47.2639 46.2728  18
   2   1  -4 22.1128 30.2082   4
   2   1  -4 36.9104 14.5786  12
  -1   2   4 49.8027 32.2949  19
   2   1  -4 71.2406 76.9084   3
  -2  -1   4 87.3355 63.4819   6
   1  -2  -4 54.3914 60.2067   1
  -1   2   4 33.6364 51.1959  17
   2  -1  -4 63.5803 59.9371   3
   2  -1  -4 6.18635 17.2161   1
  -1   2   4 49.4522 77.3403   2
   2   1  -4 36.6932 32.2030  13
  -2   1   4 70.0333 87.5947   2
   1  -2  -4 48.8455 43.6037  11
   2  -1  -5 263.453 137.278  18
  -2  -1   5 229.109 131.721   2
  -2   1   5 281.980 154.785   2
  -1  -2   5 254.251 139.549  16
  -2  -1   5 254.601 107.492   8
   1   2  -5 43.2369 67.8932  19
  -2   1   5 311.434 158.939  17
   2  -1  -5 58.9652 54.0113   1
   2   1  -5 318.347 112.203   4
  -1   2   5 218.563 129.194   2
  -1  -2   5 185.579 119.303   8
  -2  -1   5 264.358 122.762   6
  -2   1   5 159.581 75.0967   6
   1  -2  -5 184.199 92.5349   1
   1  -2  -5 149.895 98.4331  18
  -2  -1   5 423.419 158.982  17
  -1  -2   5 110.499 64.9590  14
  -1  -2   5 155.392 88.5461   6
   2   1  -5 274.420 151.129  12
   2   1  -5 315.897 112.910  18
  -1  -2   5 229.481 81.1227   2
   1  -2  -5 171.165 119.701  11
  -1   2   5 143.921 87.0383  16
  -2  -1   5 326.296 184.986  16
  -1   2   5 191.330 122.259  17
  -1   2   5 223.876 101.499   5
  -2   1   5 290.968 158.752  16
   2  -1  -5 339.122 123.837  12
   2   1  -5 277.548 100.400  19
  -2  -1   5 239.278 77.5108  14
  -2  -1   6 47.5890 62.5746  17
  -2  -1   6 32.7267 72.8776  16
  -1   2   6-3.13792 42.1603   5
   1  -2  -6 24.5869 40.8700   1
  -2   1   6 28.0927 35.1980   6
  -1  -2   6-15.8593 50.7348   8
  -2  -1   6 27.4675 29.4598  14
  -2  -1   6 52.0272 94.9414   2
   2   1  -6 31.1778 46.9136  18
   2  -1  -6 15.8844 12.1877   1
   2   1  -6 57.3494 53.2807  19
  -2   1   6 1.65880 20.1605   5
  -1  -2   6 44.0358 74.6963  16
  -1  -2   6 5.56930 9.53673  14
  -1  -2   6 24.2547 38.7570   6
  -2  -1   6 35.2158 62.9483   8
   1  -2  -6-25.4978 95.1515  11
  -1   2   6 3.78297 62.3177  16
   2  -1  -6 286.510 252.866  11
  -2   1   6 81.6962 92.8611  16
   2   1  -6 202.020 193.313  11
  -1   2   6 51.5818 89.2721   2
  -2  -1   6 49.6276 65.2583   6
  -1  -2   6 23.3735 36.6146   2
  -1   2   6 9.65145 19.8646  17
  -2   1   6 55.0760 88.4989  17
  -2   1   6 90.7989 135.175   2
   2  -1  -6 15.7295 36.0022  18
   2   1  -6-10.8444 71.6806   4
  -2   1   7 146.769 87.5219  17
  -2   1   7 135.705 129.086  16
   2   1  -7 94.4696 74.5006  19
  -1   2   7 40.2604 54.7231  17
   2  -1  -7 153.574 123.097  11
  -2  -1   7 104.852 110.283  16
  -1  -2   7-53.2566 176.744   8
  -2  -1   7 123.459 118.519   2
  -1   2   7 80.5682 76.4214   2
  -2   1   7 111.658 56.8266   5
   1  -2  -7 54.8125 65.4602   1
   2  -1  -7 70.1164 66.7784  18
   2  -1  -7 88.3944 54.3996   1
  -1   2   7-11.9716 72.8845  16
  -1  -2   7 14.2750 33.1801   2
  -2  -1   7 84.0227 67.4090   6
   2   1  -7 38.5715 24.5325  18
  -1  -2   7-7.68171 63.0515   6
  -2  -1   7 80.1993 53.1693  14
  -1  -2   7 69.7471 90.7538  16
  -2   1   7 136.668 118.942   2
  -2  -1   7 142.019 89.1831   8
  -2  -1   7 102.789 77.3013  17
   2   1  -7 84.6923 51.2272  11
   2   1  -8 53.0328 24.7525  19
  -2  -1   8 124.029 115.498  16
  -2  -1   8 13.2391 7.39379  14
   2  -1  -8 58.9528 37.8173  18
  -2   1   8 128.422 97.6573   2
  -2  -1   8 141.577 104.982   2
  -1   2   8 87.8862 81.9953   2
  -2   1   8 110.171 109.364  17
   1  -2  -8 36.6898 39.6306   1
  -1  -2   8 38.9955 48.7952   2
  -1  -2   8 80.1250 34.6368  16
   2   1  -8 86.6470 69.5768  11
  -2  -1   8 209.974 121.408   8
  -2  -1   8 48.3290 66.7760   6
   2  -1  -8 95.9737 107.628  11
  -2   1   8 104.918 58.3426   5
  -1   2   8 70.3627 53.5386  17
  -2  -1   8 77.1391 65.4259  17
   2  -1  -8 107.552 79.0572   1
  -2   1   8-44.5901 105.771   6
  -2   1   8 175.689 139.734  16
  -1   2   8-50.2519 131.089  16
  -2   1   9 14.4505 56.1541  16
  -2  -1   9-2.64214 28.6686  17
  -1   2   9-74.0512 162.788  16
  -2  -1   9 49.2164 82.3127   2
  -1  -2   9-36.4147 119.717  16
  -2   1   9 21.2693 77.8286  17
  -2   1   9 1.79922 18.4895   5
  -2  -1   9-32.6626 66.0563  16
   2  -1  -9 8.53279 29.7377   1
   2  -1  -9-13.5702 87.2540  11
   1  -2  -9-10.8838 50.7046   1
  -2  -1   9-32.9471 68.8016   6
  -1   2   9 2.42803 56.9283   2
  -2  -1   9 58.6970 71.9095   8
  -2   1   9 65.2574 107.679   2
  -1   2   9-25.2373 87.7025  17
  -1  -2   9-35.9065 92.1421   2
  -1   2  10-7.24766 43.3590   2
  -2   1  10 44.9063 122.568  16
  -2   1  10 8.99025 48.3018  17
  -2  -1  10 30.2474 100.147   2
   2  -1 -10 27.7972 41.9890   1
  -2  -1  10 2.89944 20.6858  17
  -1   2  10 8.59239 35.8844  17
  -2   1  10 20.0381 143.048   2
  -1  -2  10-59.5138 114.025  16
   1  -2 -10-25.6843 71.0685   1
  -2   1  10-28.5031 63.2502   5
  -2  -1  10-81.4097 142.612   6
  -2  -1  10-47.5222 93.6959   8
  -2  -1  10 51.3217 121.135  16
  -2  -1  11 307.169 134.255  17
  -1   2  11 293.361 175.407  17
  -2  -1  11 985.313 369.176  16
   1  -2 -11-9.69550 87.9326   1
  -2  -1  11 1564.62 375.353   2
  -1   2  11 522.142 242.200   2
   2  -1 -11 306.911 121.865   1
  -2  -1  11 344.165 87.4726   8
  -1  -2  11 256.859 99.8212   2
  -2   1  11 954.858 345.759  16
  -2   1  11 990.970 372.838   2
  -1   2  11 57.9183 114.320  16
  -2   1  11 604.052 229.984  17
  -1  -2  11 404.413 174.905  16
  -1   2  12 241.541 207.177  17
  -1  -2  12-209.940 133.834   2
   2  -1 -12 8.31875 16.9797   1
  -2  -1  12 16.0357 61.2980   2
  -2   1  12-23.7075 89.2608  17
  -1  -2  12-331.310 212.760  16
  -2   1  12-21.3182 84.9351   2
  -1   2  12 192.322 117.449  16
  -1   2  12 162.438 216.118   2
  -2   1  12 36.2185 104.781  16
  -2  -1  12 18.2810 73.3619  16
  -1   2  13 245.424 65.0531  17
  -2   1  13 540.362 224.252  17
  -1  -2  13 443.399 192.543  16
  -1   2  13 79.9130 163.767  16
  -2  -1  13 1127.43 401.966  16
   2  -1 -13 110.311 75.4484   1
  -2  -1  13 1369.40 360.369   2
  -2   1  13 917.638 378.873  16
  -1  -2  13 214.800 86.5980   2
  -2   1  13 1091.58 370.828   2
  -1   2  13 656.911 302.885   2
  -2   1  14-49.8689 112.233  17
   2  -1 -14 18.8933 45.1214   1
  -2  -1  14 148.249 185.783  16
  -2   1  14-6.63468 89.3566   2
  -2   1  14 223.837 247.125  16
  -2  -1  14 3.49297 115.372   2
  -1  -2  14-394.062 250.217  16
  -1   2  14-25.7312 60.5096   2
  -1   2  14-136.850 283.082  16
  -2   1  15 235.496 104.333   2
  -1   2  15 270.684 208.777   2
  -2  -1  15 217.667 191.560  16
   2  -1 -15 3.00201 26.2951   1
  -1  -2  15 79.3182 55.6044   2
  -1   2  15-131.464 263.219  16
  -1  -2  15 21.0034 201.465  16
  -2  -1  15 308.681 161.353   2
  -2   1  15-47.3917 187.495  17
  -2   1  15 299.719 251.081  16
   2  -1 -16 5.54698 32.8979   1
  -2   1  16 23.6046 34.7161  16
  -1   2  16-186.341 279.403  16
  -1  -2  16-95.5882 123.895   2
  -1   2  16 203.313 205.773   2
  -2  -1  16-54.7971 37.7921  16
  -2  -1  16-67.7482 123.756   2
  -2   1  16 148.397 143.466   2
  -1  -2  16-49.7592 218.534  16
   2  -1 -17-16.9737 60.9295   1
  -2  -1  17 179.750 200.000  16
  -2   1  17-85.7316 123.999   2
  -1  -2  17-112.283 208.169  16
  -2   1  17-68.6019 152.531  16
  -1  -2  17 25.8891 45.7602   2
  -1   2  17 31.2356 149.491   2
  -2  -1  17 102.909 97.7789   2
   2  -1 -18-22.0681 75.5556   1
  -1  -2  18-389.320 283.618  16
  -1  -2  18 43.7682 77.9221   2
  -1   2  18 9.27210 67.4331   2
  -2  -1  18 1.18430 52.6894  16
  -2   1  18-98.6492 200.426   2
  -1   2  18-301.218 310.052  16
  -2  -1  18 35.3253 94.1461   2
  -2   1  18-17.3569 106.173  16
  -1   2  19 106.381 202.541   2
  -2  -1  19 56.1128 169.603   2
  -1  -2  19-381.312 289.175  16
  -2   1  19-22.5637 76.4339  16
  -2   1  19 37.9816 104.264   2
  -2  -1  19 110.511 225.423  16
   2  -1 -19-40.8345 64.2632   1
  -1  -2  20-67.1803 151.445  16
   2  -1 -20 0.76935 38.3476   1
  -2  -1  20-42.1813 212.173   2
  -2   1  20 38.2097 64.3131  16
  -2  -1  20-17.7601 149.942  16
  -2   1  20 9.57746 61.3042   2
  -2   1  21-284.910 324.477   2
  -2  -1  21-84.9160 161.662   2
  -2   1  21 53.6621 165.281  16
  -2  -1  21 254.253 289.523  16
   2   2  -2 203.638 129.389   3
  -2  -2   2 131.836 51.7364  14
   2   2  -2 303.622 155.318  19
   2  -2  -2-0.70406 40.6675   1
  -2  -2   2 234.432 123.806   6
  -2  -2   2 186.706 128.696   8
   2   2  -2 366.418 181.669  12
   2  -2  -2 189.303 105.698  13
   2  -2  -3-4.55134 58.4521  18
  -2  -2   3-9.06785 64.3871   8
   2   2  -3 1.79583 29.6403   3
   2  -2  -3-8.27211 33.2137   1
  -2  -2   3-14.9711 44.8442   6
  -2   2   3-8.61630 123.466   2
  -2  -2   3-3.58540 23.9976  14
   2   2  -3-8.83060 47.3269  12
   2  -2  -3-8.63764 48.3472   3
   2   2  -3 5.49811 34.2998  19
   2  -2  -3 7.68039 45.9751  13
   2   2  -4 162.678 117.265  12
   2   2  -4 46.7761 27.6240  13
   2   2  -4 167.777 105.828   3
  -2   2   4 122.153 118.510  17
   2  -2  -4 267.801 112.307   3
  -2  -2   4 196.070 92.2283  14
  -2  -2   4 152.103 87.8746   8
  -2  -2   4 269.351 129.005   6
   2  -2  -4 76.3619 64.8629   1
  -2  -2   4 88.8055 72.1810  16
   2   2  -4 233.184 109.620   4
   2  -2  -4 233.290 136.853  18
   2   2  -4 153.631 75.6031   5
  -2   2   4 174.406 120.566  16
  -2   2   4 164.798 138.182   2
   2  -2  -4 259.443 143.647  13
   2   2  -4 212.728 111.025  19
   2  -2  -5-3.08183 24.2277   1
  -2  -2   5-17.1359 30.3582   8
  -2   2   5-15.4296 60.4310   5
   2   2  -5 52.5786 110.186  12
   2   2  -5 17.9652 28.1529   5
  -2   2   5 24.6489 93.6799   2
   2  -2  -5 63.8305 91.3942   3
   2   2  -5-10.6914 27.7843  19
  -2  -2   5 31.1337 25.8359  16
  -2   2   5 63.7333 121.327  17
  -2  -2   5 17.9304 54.7261   6
   2  -2  -5 7.42350 55.3453  18
  -2  -2   5 13.7474 35.2336  14
   2   2  -5 22.6848 91.7003   3
  -2   2   5 3.56008 24.2243  16
   2  -2  -5-2.34302 19.3543  12
   2   2  -5 32.8473 90.9172  13
  -2   2   5 11.2895 22.4870   6
   2   2  -5 4.45606 48.0263   4
  -2  -2   6 3717.76 469.809   2
  -2   2   6 3570.33 616.548  17
  -2  -2   6 4393.11 407.855  14
   2   2  -6 5553.62 563.928  11
  -2  -2   6 4307.22 677.909  16
   2   2  -6 1246.38 209.827   5
  -2   2   6 2817.63 386.364   5
  -2   2   6 3809.01 584.508  16
  -2   2   6 4628.38 680.321   2
   2  -2  -6 2555.78 380.588   1
   2   2  -6 2609.25 404.606   4
   2  -2  -6 3921.58 565.453  18
  -2  -2   6 4594.96 381.826  17
  -2  -2   6 4607.31 527.819   8
   2  -2  -6 5932.16 843.146  11
   2   2  -6 3941.75 465.859  19
   2   2  -6 3192.39 297.758  18
  -2  -2   6 4060.46 527.676   6
  -2   2   7 12.5586 117.407   2
  -2   2   7-4.07722 88.7136  17
  -2  -2   7 11.4587 51.7591   6
   2  -2  -7 6.84478 36.7211  18
  -2  -2   7-3.32931 43.1500  17
  -2   2   7-22.0322 19.3937   5
   2  -2  -7-0.49548 63.2977  11
   2   2  -7 11.3197 55.5604  19
  -2  -2   7-1.40983 19.3905  14
   2   2  -7-6.16534 55.8285  11
  -2  -2   7 20.2446 96.5563   2
   2  -2  -7-13.7968 19.0823   1
  -2  -2   7-3.21323 82.4312   8
  -2   2   7 9.82796 67.7598  16
  -2  -2   7 14.7123 72.8546  16
  -2   2   8 170.668 147.453  16
  -2  -2   8 68.0341 80.0315   6
   2  -2  -8 73.4344 86.3440  11
  -2  -2   8 136.228 157.284  16
   2  -2  -8 116.286 98.8325   1
  -2   2   8 96.5486 73.2234   5
  -2  -2   8 188.506 130.127   2
  -2   2   8 61.6968 66.6471   2
  -2  -2   8 130.305 93.0964   8
   2   2  -8 43.7285 35.1468  19
  -2  -2   8 43.9257 18.4301  17
  -2  -2   8 51.3986 38.0859  14
   2  -2  -8 75.1537 98.5590  18
  -2   2   8 30.6655 55.6041  17
  -2  -2   9 0.01904 56.1268   8
  -2   2   9 0.14827 106.283   2
  -2   2   9 86.1706 133.837  16
  -2  -2   9-10.8401 41.1859  14
   2  -2  -9 5.45127 33.3538   1
  -2   2   9 9.30697 46.0584   5
  -2  -2   9-3.27435 78.1079  16
  -2  -2   9 25.7122 27.1418   6
  -2  -2   9-1.75010 38.4036  17
  -2  -2   9-0.70396 32.4563   2
  -2   2   9-10.4198 51.9552  17
   2   2  -9-9.16619 53.3579  19
   2  -2  -9-52.6130 146.384  18
   2  -2  -9-37.5016 131.251  11
  -2  -2  10-28.3570 88.3021   6
  -2   2  10 69.1253 111.546  16
   2  -2 -10-14.6706 42.9340   1
  -2  -2  10 71.9388 120.941   2
  -2  -2  10 39.5342 95.7236  16
  -2  -2  10 42.5182 94.1393   8
  -2   2  10 53.8143 104.191  17
  -2   2  10 13.0680 32.8588   5
  -2   2  10 48.3983 140.407   2
   2   2 -10-135.776 161.228  19
  -2   2  11 64.6627 124.610  16
  -2   2  11-11.0325 30.6122   5
  -2   2  11 10.1873 95.5351   2
  -2  -2  11-6.97993 71.0557  16
  -2  -2  11-40.4458 57.7215   2
  -2  -2  11 14.8951 51.6251   8
   2  -2 -11 33.0842 67.9858   1
  -2   2  11-24.0425 109.923  17
  -2  -2  12 607.096 318.936  16
  -2   2  12 366.015 186.944  17
  -2   2  12 300.860 213.292  16
  -2  -2  12 285.456 143.051   8
  -2   2  12 630.260 300.139   2
   2  -2 -12 134.039 92.4939   1
  -2   2  12 269.555 104.827   5
  -2  -2  12 555.642 226.953   2
  -2   2  13-33.7006 121.188  17
  -2  -2  13-42.8826 69.4033   2
  -2   2  13-28.1962 19.8384  16
  -2  -2  13-312.617 220.217   8
  -2   2  13-61.6169 157.180   2
   2  -2 -13-36.5841 53.1951   1
  -2  -2  13 14.7132 117.420  16
  -2   2  14 172.930 130.805   2
  -2   2  14 64.7481 7.85915  17
  -2  -2  14 246.803 181.636   2
  -2   2  14 147.198 145.985  16
  -2  -2  14 272.036 200.980  16
   2  -2 -14 12.2002 36.8047   1
  -2  -2  15 140.022 147.986   2
  -2   2  15-16.3789 106.682   2
  -2   2  15-73.4369 148.965  17
  -2   2  15 54.0308 103.395  16
   2  -2 -15-30.6953 40.3304   1
  -2  -2  15 59.2309 121.184  16
  -2   2  16 72.3629 113.979   2
  -2  -2  16 81.7036 170.453  16
  -2   2  16-103.322 196.607  17
   2  -2 -16 18.5694 46.8252   1
  -2  -2  16 8.15936 38.1494   2
  -2   2  16 1.87857 51.0465  16
   2  -2 -17 5.95183 41.2830   1
  -2   2  17-3.55225 67.2128  16
  -2  -2  17-33.1410 47.8402  16
  -2   2  17 40.1278 85.5144   2
  -2  -2  17-116.696 123.342   2
  -2   2  18 227.240 162.122   2
  -2  -2  18 186.800 213.857  16
  -2   2  18 245.988 242.657  16
  -2  -2  18 421.915 226.679   2
   2  -2 -18 10.1046 65.6589   1
  -2   2  19 18.0152 133.000   2
  -2  -2  19 5.57110 79.5496   2
  -2  -2  19 14.7998 138.285  16
  -2   2  19-66.8605 133.485  16
   2  -2 -19 22.3010 55.8643   1
  -2   2  20 406.293 312.141  16
  -2  -2  20 223.576 261.517  16
   2  -2 -20 23.2105 69.9963   1
  -2   2  20 176.747 212.666   2
  -2  -2  20 370.813 126.590   2
   0   3   0 0.56194 46.6746  17
   0  -3   0-1.47746 55.0424   8
   0  -3   0 3.31083 26.2218   6
   0   3   0 8.83012 38.2338  12
   0   3   0-1.32962 32.4965   2
   0  -3   0 6.63188 36.3506  14
   0   3   0 8.47460 44.2464   5
   0  -3   0 4.46066 40.9127  11
   0  -3   0 26.4377 47.0295   1
   0   3   0 16.3143 47.9557  19
   0   3   0 5.17386 25.6045   4
   0  -3   0-3.92900 13.4620  18
   0   3  -1 882.263 195.344  17
   0   3  -1 1021.44 266.283   5
   0   3  -1 805.197 236.520   4
   0  -3  -1 1376.46 284.879   8
   0  -3   1 1539.38 292.626   1
   0   3   1 1270.17 232.829   2
   0  -3  -1 778.978 186.706  11
   0   3   1 1202.76 280.033   5
   0   3   1 1423.13 273.270   4
   0  -3   1 1510.05 228.090  18
   0   3  -1 973.434 255.193  19
   0  -3  -1 1407.86 275.410   1
   0   3   1 524.598 163.815  17
   0  -3   1 1354.06 278.155   8
   0  -3   1 963.047 176.421   6
   0  -3  -1 714.075 174.732  18
   0  -3  -1 1779.35 213.066   6
   0   3   1 454.493 136.967  12
   0  -3  -1 1139.18 201.766  14
   0  -3   1 776.311 176.478  14
   0   3   1 1583.81 314.930  19
   0   3   2-4.20213 14.4603   4
   0  -3   2-2.17831 27.4123  16
   0   3   2-1.79771 33.0550   5
   0  -3  -2 8.33055 30.5446  14
   0   3  -2-30.5403 86.6619  19
   0   3  -2-17.4335 76.8539   5
   0  -3   2 2.26778 12.6362  14
   0   3   2 2.49695 24.5820   2
   0   3   2-10.8369 46.0713  19
   0  -3   2 3.39003 25.8543   6
   0  -3   2 6.97060 38.4749   1
   0   3   2 4.74042 27.3434  17
   0  -3  -2-4.48634 20.9106   1
   0  -3   2-8.48426 37.9552  18
   0  -3  -2-3.34412 21.3188   8
   0  -3   2 14.6631 36.4831   8
   0  -3   3-3.48770 14.8031   6
   0   3   3 26.7372 34.9576   5
   0  -3  -3 25.9671 46.5374   1
   0   3   3 16.3734 34.0224   2
   0   3   3 43.5678 41.1072  19
   0   3   3 0.81995 16.4845  17
   0  -3  -3 37.7301 58.9487  14
   0  -3   3 6.60932 14.1453   1
   3   0  -3-18.1868 86.8001   3
   0  -3   3 3.91336 7.75509  14
   0  -3   3-7.34496 84.2085   8
   3   0  -4 2.61869 55.7368  12
   0   3   4-22.5446 90.4616   5
   3   0  -4 0.57056 37.7299  13
   0   3   4 1.42751 30.3549  17
   0   3   4-5.85444 42.5268   2
  -3   0   4-24.2265 99.5328   6
   0  -3  -4-8.63664 22.7226  14
   0  -3   4 3.26691 31.4697  14
   0  -3  -4-13.0971 54.9639   1
   0   3   4 6.42261 41.2043  19
   3   0  -4 7.37703 25.5100   3
   0   3   5 13.0174 56.7304  17
   3   0  -5 14.5411 29.6725   3
   3   0  -5 37.2436 39.4775  13
   0  -3  -5 24.8753 44.9953  14
   0   3   5-4.60082 59.0432   2
   0  -3   5-14.1437 61.6659  14
   3   0  -5 48.2936 59.3335  12
   0  -3  -5 4.31310 8.17961   1
  -3   0   5 16.8734 20.1396   6
   0   3   6 7.79014 28.0829  17
   3   0  -6-3.40649 24.3363  12
   3   0  -6 13.0749 38.6467  13
   0   3   6-28.5833 104.369   2
   0  -3  -6-11.9211 65.5876   1
  -3   0   6-7.80537 132.174  17
  -3   0   6 23.7972 98.2793  16
   3   0  -6 28.5966 77.9474  18
  -3   0   6-2.19926 27.8830   6
   0  -3  -6-10.0051 58.8284  14
   3   0  -6 0.25757 6.38150   3
   3   0  -7 2146.11 429.978  13
  -3   0   7 2912.94 586.374  17
  -3   0   7 1241.24 269.176   8
   3   0  -7 2818.16 440.365  12
  -3   0   7 2356.19 393.140   6
  -3   0   7 1468.36 407.834   2
  -3   0   7 2542.56 592.145  16
   3   0  -7 3057.53 500.658   3
   0   3   7 387.543 158.376   2
   0  -3  -7 161.433 88.5386   1
   0   3   7 450.168 214.538  17
   3   0  -7 2755.36 483.659  18
   3   0  -8 119.535 159.851   3
  -3   0   8-49.3838 60.7561  17
  -3   0   8-8.40280 56.4272   8
  -3   0   8-18.5737 56.0973  16
   0   3   8-37.8149 129.883  17
   3   0  -8 112.694 154.827  12
  -3   0   8 34.8112 71.7780   6
  -3   0   8 25.4982 61.8679   2
   3   0  -8 4.16774 51.6220  18
  -3   0   9 14.1425 32.6120   8
  -3   0   9-5.15398 8.84041   6
  -3   0   9 41.8379 95.6080  17
   3   0  -9-14.4943 35.1942   1
  -3   0   9 48.0912 94.6971  16
  -3   0   9 130.257 168.030   2
   0   3   9-45.7380 134.134  17
   3   0  -9 138.862 209.379  11
   3   0  -9 26.5789 76.4542  18
  -3   0  10-20.9536 81.4820   6
   3   0 -10-14.8507 95.2473  18
   3   0 -10-0.38062 20.6018   1
  -3   0  10 25.2946 55.9416   8
  -3   0  10 90.2115 130.581  16
   3   0 -10-4.43034 56.6900  11
  -3   0  10 7.93556 158.445   2
  -3   0  10-24.7417 67.1651  17
  -3   0  11 154.751 93.9899   8
  -3   0  11 96.5496 122.552  17
  -3   0  11 95.9354 153.504  16
  -3   0  11 102.220 148.995   2
  -3   0  11-24.2130 51.4379   6
   3   0 -11-38.8774 153.905  11
   3   0 -11 0.86887 19.2076   1
   3   0 -11 72.8700 44.0368  19
  -3   0  12 38.2435 118.958   2
  -3   0  12-38.2586 61.8626  17
  -3   0  12 59.1555 78.2022   8
  -3   0  12 175.538 173.128  16
   3   0 -12 9.26251 20.9910   1
   3   0 -12 39.2015 44.4105  19
  -3   0  13 436.748 258.396  16
  -3   0  13 70.2754 72.9855  17
  -3   0  13 476.625 229.100   2
   3   0 -13 44.7463 35.0475   1
   3   0 -13 234.285 79.9712  19
  -3   0  13 327.004 142.977   8
  -3   0  14-67.9087 131.764  17
   3   0 -14-14.0909 31.4056   1
  -3   0  14 129.177 164.287   2
   3   0 -14-90.2638 61.4425  19
  -3   0  14 6.25678 31.4124   8
  -3   0  14-13.9370 30.6430  16
   3   0 -15 61.2244 65.0596   1
  -3   0  15 335.242 262.964   2
   3   0 -15-172.773 100.572  19
  -3   0  15 213.039 119.329   8
  -3   0  15 18.6264 61.3343  16
  -3   0  15 67.1282 21.2356  17
  -3   0  16 39.1160 146.762   2
  -3   0  16 46.2030 53.5217   8
  -3   0  16-108.337 129.848  17
   3   0 -16 22.8092 44.4554   1
  -3   0  16-158.259 174.714  16
  -3   0  17 266.660 257.376  16
  -3   0  17 152.568 189.950   2
   3   0 -17 35.0757 59.6519   1
  -3   0  17 80.7452 50.5877   5
  -3   0  17 243.808 142.288   8
  -3   0  18 5.72501 23.7579   5
  -3   0  18 20.0394 117.127  16
  -3   0  18-9.33627 23.0124   8
  -3   0  18 276.207 315.727   2
   3   0 -18 68.8359 75.6757   1
  -3   0  19 401.937 196.601   8
  -3   0  19 543.295 354.766   2
  -3   0  19 393.305 293.995  16
  -3   0  20 90.4239 206.384  16
  -3   0  20-24.6707 58.5186   8
  -3   0  20 63.1498 171.517   2
  -1  -3   0 442.233 150.745   1
  -1  -3   0 510.793 165.424   6
   1   3   0 296.517 151.799  12
   1  -3   0 15.6946 38.4623  14
  -1  -3   0 577.115 160.605  14
   1   3   0 843.833 253.594  19
   1  -3   0 297.501 124.305  18
   1  -3   0 304.743 145.312   1
  -1  -3   0 501.555 208.054   8
   1   3   0 468.519 164.628   5
   1  -3  -1 371.483 158.302   1
   1   3  -1 497.036 186.822  19
  -1   3   1 93.8221 68.1387   5
  -1  -3   1 334.003 121.530  14
   1  -3  -1 250.287 107.838   8
  -1   3   1 186.303 117.016  17
  -1  -3  -1 225.720 107.985  14
   1  -3  -1 330.112 109.976  13
   1   3  -1 351.812 148.868   5
  -1  -3  -1 107.519 70.9361   1
   1  -3  -1 360.864 151.558  18
  -1  -3   1 283.248 150.731   8
   1  -3  -1 34.1076 24.6567  14
  -1   3   1 120.325 59.6306  19
   1   3   1 344.246 176.153  19
   1   3  -1 301.158 138.478  12
   1  -3   1 11.8642 34.4610   1
  -1  -3  -1 83.7217 39.7266   8
   1   3  -1 112.603 73.3714   3
   1   3  -1 404.925 163.609   4
  -1   3   1 276.983 123.769   2
  -1  -3   1 532.943 162.760   6
   1  -3   1 1.70512 36.8424  14
  -1  -3   1 307.503 121.202   1
   1  -3   2-73.5883 78.7022   1
  -1  -3   2 240.828 135.224   8
   1  -3  -2 237.550 134.945   1
   1  -3  -2 43.2600 38.7164  14
  -1   3   2 72.2809 54.9711   4
  -1  -3   2 215.106 96.6566   1
  -1  -3   2 147.532 98.7663  16
   1   3  -2 144.180 100.309  12
   1   3  -2 192.450 121.700   5
   1  -3  -2 231.300 99.9534   8
  -1   3   2 184.147 109.812  19
  -1   3   2 167.308 154.152  17
   1   3  -2 198.631 126.384  19
  -1   3   2 129.201 105.374   5
   1   3  -2 196.927 106.327   4
   1   3   2 177.477 151.683  19
  -1  -3   2 237.619 109.429   6
   1   3  -2 139.229 82.6536   3
  -1  -3   2 197.506 93.3886  14
  -1  -3  -2 65.1889 55.0497  14
  -1   3   2 263.221 140.075   2
   1  -3  -2 177.661 116.042  18
   3  -1  -3-13.8615 113.081  13
  -1   3   3 156.934 84.6444  16
   1  -3  -3 278.422 187.541  11
  -1  -3   3 205.892 95.7272   1
   1  -3  -3 163.941 84.4517   8
  -1  -3   3 186.216 88.3162  14
   3   1  -3 24.6998 120.728  12
  -1   3   3 160.605 107.862   5
   1  -3  -3 52.2873 41.2736  14
  -1   3   3 217.680 118.129  19
   1   3  -3 162.028 112.103   4
  -1  -3   3 223.906 125.193   8
  -1  -3   3 227.792 104.859   6
  -1  -3   3 204.471 113.386  16
   1  -3  -3 172.469 109.531   1
  -1   3   3 118.441 93.3353  17
   1   3  -3 125.024 94.0592  19
  -1   3   3 121.328 114.028   2
   1   3  -3 188.501 106.659   5
   1  -3  -3 137.234 104.113  18
  -1   3   3 116.394 72.1535   4
   3   1  -3 32.6841 13.6093   3
  -1   3   4 276.814 113.377   4
  -1   3   4 248.346 113.944  16
   1   3  -4 217.079 141.217  19
   1  -3  -4 124.383 57.7737  14
  -1  -3   4 331.774 151.593   8
  -3  -1   4 190.018 135.272   6
   1  -3  -4 249.916 129.989  18
   3  -1  -4 220.304 146.665   3
  -1   3   4 369.551 144.031  19
   3   1  -4 268.646 154.268  12
   1  -3  -4 292.433 159.993  11
   3   1  -4 18.7613 64.9358  13
   1   3  -4 170.522 102.116   5
   3   1  -4 244.967 146.887   3
   3  -1  -4 155.957 118.907  13
  -1   3   4 283.232 138.210   5
  -1   3   4 173.312 113.458  17
  -1  -3   4 245.866 103.103  14
  -1  -3   4 321.530 139.659   6
  -1  -3   4 336.013 162.439  16
   1  -3  -4 288.575 143.829   1
   1  -3  -4 171.098 97.3697   8
   1   3  -4 149.693 98.6226   4
  -1  -3   4 285.861 121.362   1
  -1   3   4 397.474 179.764   2
  -3  -1   5 343.836 167.227   6
   3  -1  -5 379.341 164.021  12
  -1   3   5 301.400 138.335   5
  -1   3   5 152.404 91.5365  17
  -1  -3   5 234.598 124.152   6
   3   1  -5 362.478 168.815   3
  -1   3   5 324.465 154.625  19
  -1  -3   5 248.681 119.238  14
  -1   3   5 205.639 108.868  16
   1  -3  -5 159.556 67.7838  14
  -3   1   5 258.879 117.259   6
   3  -1  -5 275.840 140.127  13
  -1  -3   5 23.6021 31.7063   1
   3   1  -5 357.351 182.398  12
  -1   3   5 379.731 180.613   2
   3  -1  -5 487.087 187.492   3
   1   3  -5 177.147 110.606  19
   3   1  -5 154.745 111.040  13
   3  -1  -5 115.603 73.8152  18
  -1   3   5 319.507 114.863   4
   1  -3  -5 294.461 135.120   1
   1  -3  -5 240.977 130.125  18
   1  -3  -5 205.317 122.973  11
  -1  -3   5 332.548 163.366  16
  -1  -3   5 388.959 176.549   8
  -3   1   6 660.424 298.183  16
  -1   3   6 810.776 270.460   2
  -1  -3   6 660.281 231.669   8
  -1  -3   6 415.678 153.500  14
   3   1  -6 863.442 196.197   4
  -1   3   6 757.520 225.815   5
   3   1  -6 559.366 184.735  18
  -1  -3   6 785.052 267.737  16
  -3  -1   6 495.990 145.558  14
   3   1  -6 282.274 131.818  19
   1  -3  -6 564.701 192.642   1
   3  -1  -6 986.170 305.473  18
  -3  -1   6 980.519 271.968   6
  -1   3   6 410.564 161.998  16
  -1  -3   6 458.996 114.281   2
  -1  -3   6 490.909 179.203   6
  -1   3   6 373.475 198.120  17
   1  -3  -6 283.881 132.946  18
  -3   1   6 708.034 307.636  17
   3   1  -6 1063.53 309.265   3
   3   1  -6 999.722 274.131  12
   1  -3  -6 554.113 119.014  14
  -3   1   6 687.109 196.483   6
  -3  -1   6 481.365 193.064   8
   3   1  -6 638.266 217.345  13
  -3  -1   6 661.974 294.313  16
   3  -1  -6 732.930 242.740  13
  -3   1   6 386.228 189.914   2
   1   3  -6 58.2183 88.5204  19
   3  -1  -6 1191.16 305.411   3
   3  -1  -6 939.452 244.079  12
   1  -3  -6 448.499 212.733  11
  -1  -3   7 36.7474 48.6061  14
  -3   1   7 280.780 201.872  16
   3   1  -7 297.965 122.824   4
   3  -1  -7-6.85822 34.1395   1
  -3  -1   7 185.040 116.352   8
   1  -3  -7-27.7480 198.123  11
   1  -3  -7 151.536 67.5854  14
  -3  -1   7 351.900 194.831  17
  -3  -1   7 11.9825 196.959   2
  -1   3   7 149.454 92.6960   2
  -1   3   7 92.2793 88.5187  17
  -3  -1   7 195.426 181.212  16
  -1   3   7 65.0777 62.0714  16
  -1  -3   7 241.580 162.241  16
   3   1  -7 98.7697 54.5716  19
   3  -1  -7 325.851 209.915  13
   3   1  -7 300.557 181.787   3
   1  -3  -7 147.766 107.534   1
  -1  -3   7 64.1753 28.0927   2
   3  -1  -7 274.352 173.931  18
  -3   1   7 135.204 93.0500   6
  -1   3   7 122.070 99.6961   5
  -3  -1   7 215.916 142.912   6
  -3   1   7 202.167 215.361  17
  -1  -3   7 155.957 82.4966   8
   3  -1  -7 258.402 154.697   3
   3   1  -7 158.709 132.765  13
  -1  -3   7 113.044 83.3260   6
  -3   1   7 99.2661 113.546   2
   3   1  -7 196.743 126.646  12
  -3  -1   7 205.600 88.4944  14
   3  -1  -7 236.476 100.617  12
   3   1  -7 302.067 154.193  18
   3   1  -8 650.602 270.324   3
   3  -1  -8 726.803 267.028   3
  -1  -3   8 106.971 26.4818   2
  -3  -1   8 430.051 226.270   2
  -1  -3   8 375.734 205.073  16
  -1  -3   8 57.2694 62.8648   6
   3  -1  -8 619.280 227.834  12
  -3   1   8 295.147 139.250   6
   1  -3  -8 209.193 129.333   1
   1  -3  -8 246.758 81.2346  14
  -3   1   8 551.624 282.500  16
   3   1  -8 608.187 204.241  18
  -1  -3   8 163.751 47.5266   8
  -1   3   8 114.618 89.9896  16
  -3  -1   8 653.627 146.185  14
  -1   3   8 296.334 117.215   5
   3  -1  -8 745.864 266.634  18
  -3   1   8 568.535 278.409   2
   3   1  -8 187.000 49.5724   4
  -1   3   8 203.820 162.092  17
  -1   3   8 402.501 189.394   2
   3   1  -8 580.335 244.623  12
  -1  -3   8-0.35948 91.4647  14
  -3  -1   8 661.070 319.425  16
  -3  -1   8 558.022 214.326   6
  -3  -1   8 825.958 281.524  17
  -3  -1   8 496.489 170.995   8
  -3   1   8 767.357 335.786  17
   3   1  -8 588.048 151.048  19
  -1  -3   9-85.2687 262.051   8
  -3  -1   9 369.388 226.846  16
  -3   1   9 75.3121 58.9487   6
  -3   1   9 347.167 169.301  17
  -3  -1   9 319.158 97.6388  14
   3  -1  -9 35.7507 33.8898   1
  -3   1   9 385.879 242.251   2
   3  -1  -9 326.593 181.667  18
   3  -1  -9 696.839 352.751  11
  -3   1   9 199.040 77.5609   8
  -1   3   9 239.992 151.460   2
   1  -3  -9 106.896 52.8037  14
  -1  -3   9 286.171 190.895  16
  -3  -1   9 399.929 151.952   8
  -3   1   9 321.187 216.362  16
   3   1  -9 378.693 110.663  19
  -3  -1   9 500.874 183.861  17
  -3  -1   9 218.899 142.103   6
  -1   3   9 145.779 113.758  17
   1  -3  -9 29.2645 45.9380   1
   3   1  -9 244.749 136.284  18
  -1   3   9-31.0000 139.508  16
  -1  -3   9 42.6508 75.2450   2
   3   1  -9 571.025 274.805  11
  -3  -1   9 364.879 227.397   2
  -1   3  10-73.0762 191.981  16
  -1  -3  10-32.7687 93.5889   2
  -3  -1  10 116.159 84.7044   8
   3   1 -10 59.2165 56.7791  19
  -1  -3  10 34.1144 81.9409  16
   3   1 -10-16.8851 85.1875  18
  -1   3  10 38.7960 80.9736   2
  -3  -1  10 88.3021 151.605   2
  -1   3  10 1.30609 66.1048  17
   3  -1 -10 31.0579 64.6557   1
  -3   1  10-27.7704 116.590   2
   3  -1 -10 84.6567 116.164  11
  -3   1  10 91.6690 116.564  16
  -3  -1  10 17.4907 7.24890  14
   1  -3 -10-0.78026 51.1787   1
   1  -3 -10 8.17744 2.08592  14
  -3  -1  10 14.0922 63.5231   6
  -3  -1  10-11.4858 66.3860  17
   3   1 -10 103.488 129.586  11
   3  -1 -10 13.4237 36.3594  18
  -3   1  10 24.8098 70.2356   6
  -3   1  10 49.8747 132.324  17
  -3  -1  10 62.9390 105.839  16
  -3   1  10 26.0101 35.7375   8
   3   1 -11 50.3792 47.6983  19
   3  -1 -11 10.5935 30.0547   1
  -1  -3  11-89.3451 152.494  16
   3  -1 -11-45.2434 124.599  11
   3   1 -11-22.3671 122.610  11
  -3  -1  11 109.217 141.750   2
  -3  -1  11-1.69298 25.7801   6
  -3  -1  11 189.150 128.582   8
   3  -1 -11-27.7026 114.596  18
   1  -3 -11-17.6669 45.7514  14
  -3   1  11 117.880 173.471  16
  -3   1  11 106.060 164.198   2
  -1   3  11 74.1543 84.7138  17
  -3   1  11 88.2531 136.652  17
  -3   1  11 94.6079 63.3898   8
  -3  -1  11 82.4987 143.695  16
  -1   3  11-82.2188 206.699  16
  -3  -1  11-46.1003 75.0225  14
  -3   1  11-4.16169 47.8408   5
  -3  -1  11-27.3563 91.1832  17
   1  -3 -11-1.66208 58.5563   1
  -1   3  11 43.4136 70.8355   2
  -1   3  12 47.8735 52.1499  17
  -1   3  12 48.3148 63.5633   2
  -3  -1  12 173.350 110.991   8
  -3   1  12 105.165 73.8768  17
  -3   1  12 100.403 69.1440   5
  -3  -1  12-242.821 159.952   6
  -3   1  12 249.767 96.8554   8
  -1  -3  12-177.627 135.216   2
  -1   3  12-94.9070 219.525  16
  -3  -1  12 249.298 183.934   2
  -3  -1  12 57.8714 25.1233  17
   3  -1 -12-10.3989 177.909  11
  -3   1  12 142.821 212.267  16
   3  -1 -12 71.4342 65.4211   1
   1  -3 -12-2.48518 64.4167   1
  -1  -3  12 5.83232 77.7985  16
  -3   1  12 140.524 189.622   2
   3   1 -12 163.750 103.685  19
  -3  -1  12 198.640 188.205  16
  -3  -1  13 6.92296 91.5634  17
  -3   1  13 8.66640 79.6342  16
  -1  -3  13-97.2136 188.803  16
  -1   3  13-68.1165 170.507  17
  -3  -1  13 152.225 153.009   8
  -3   1  13-97.6090 148.737  17
  -3   1  13 13.4081 241.462   2
  -1   3  13-75.1927 121.368   2
   3   1 -13 42.0611 49.2533  19
   3  -1 -13-17.9272 43.3963   1
  -3  -1  13-7.57357 192.444  16
  -3   1  13 13.3809 16.2617   5
  -3   1  13 54.2287 50.4426   8
  -3  -1  13 483.677 323.477   2
   1  -3 -13 11.3011 31.5427   1
  -1   3  14-85.8097 178.100  17
  -3  -1  14 290.868 233.139  16
   3   1 -14 43.7472 40.3554   1
  -3   1  14 274.141 196.691   2
   1  -3 -14-38.6413 67.2967   1
  -3   1  14 128.069 61.4402   8
  -1  -3  14-20.4327 183.200  16
  -1   3  14 123.492 140.595   2
  -3  -1  14 35.2627 51.1951  17
   3   1 -14-60.0949 27.3002  19
  -3  -1  14 333.942 246.024   2
  -3   1  14 322.632 243.427  16
  -3   1  14 46.3969 44.1904  17
   3  -1 -14 7.99895 41.6793   1
  -3  -1  14 124.546 107.031   8
  -1   3  14-198.047 310.462  16
  -3   1  14 167.999 80.2364   5
  -1  -3  14-115.626 166.676   2
  -1   3  15 109.187 136.221   2
  -1  -3  15-109.012 141.411   2
  -3   1  15 226.676 210.833  16
  -3  -1  15-5.62449 95.5161  17
   3  -1 -15 87.5772 78.3993   1
  -3  -1  15 428.460 318.178  16
  -3   1  15 228.633 104.372   8
  -1  -3  15 9.08627 118.093  16
   3   1 -15 7.51230 3.37514   1
   1  -3 -15-55.9078 104.831   1
  -3  -1  15 395.324 233.050   2
   3   1 -15-98.1529 86.1366  19
  -3   1  15 337.873 237.643   2
  -3   1  15 117.630 70.0894   5
  -3  -1  15 110.186 81.6796   8
  -3   1  15 26.2110 38.8380  17
  -3  -1  16 120.027 139.398  16
   3   1 -16 3.13040 31.5368   1
  -1  -3  16-96.9244 200.246  16
  -3   1  16 74.0474 137.466  16
  -1  -3  16-75.5646 153.782   2
  -3   1  16-13.8748 27.1127   8
  -3   1  16 22.4278 36.1439   5
  -3   1  16-27.5345 65.3164  17
   3   1 -16-93.8779 109.064  19
   3  -1 -16 55.9798 86.1472   1
  -3  -1  16 232.985 238.054   2
  -3  -1  16 146.970 130.250   8
  -3   1  16 0.76484 61.1757   2
  -1   3  16-10.6283 90.0079   2
  -3   1  17 158.403 232.966   2
  -1   3  17-20.8980 68.0772   2
  -3   1  17-18.6244 95.8671  17
  -3   1  17-57.3759 83.3502   8
   3   1 -17 32.9400 37.8541   1
  -3   1  17 143.227 80.0189   5
  -1  -3  17-142.534 171.463   2
  -3  -1  17 74.1876 191.966  16
  -3   1  17 59.7419 85.8627  16
  -1  -3  17-98.6662 150.059  16
   3   1 -17-421.435 200.819  19
  -3  -1  17 239.403 158.204   8
  -1   3  17-210.310 326.649  16
   3  -1 -17 18.4472 47.2015   1
  -3  -1  17 580.746 338.749   2
  -3  -1  18 476.430 220.368   8
   3  -1 -18 78.3226 93.0705   1
  -3   1  18-77.2823 181.010  17
  -1   3  18-106.682 243.492  16
  -1  -3  18 219.163 204.154  16
  -1   3  18 268.154 222.680   2
  -3   1  18 447.894 146.250   5
  -3  -1  18 479.896 342.961  16
  -3   1  18 751.302 374.257   2
  -3   1  18 176.737 65.1606   8
  -3   1  18 464.079 326.367  16
  -3  -1  18 903.198 393.946   2
  -1  -3  18 176.882 105.356   2
  -3   1  19 79.9522 201.294  16
  -1   3  19 117.759 162.335   2
  -3  -1  19 353.567 333.912   2
  -1  -3  19-13.3430 137.764   2
  -3   1  19 264.230 301.335   2
  -1  -3  19 18.0591 38.8250  16
   3  -1 -19 19.0888 83.4017   1
  -3  -1  19 153.952 141.718   8
  -3   1  19-91.9903 151.483   8
  -3  -1  19 182.102 126.122  16
  -1  -3  20 368.971 279.680  16
  -3   1  20 696.346 416.192   2
  -3   1  20 635.165 411.661  16
  -3  -1  20 519.796 368.854  16
  -3  -1  20 674.229 377.377   2
  -3  -1  20 471.825 217.555   8
   2   3   0-1.01560 78.4491  19
   2  -3   0-17.3043 92.7447   1
   2   3  -1 34.2728 27.8067  19
   2   3  -1-0.27544 131.296  12
   2  -3  -1 22.8571 68.2702   1
  -2  -3   1 2.10996 84.9802   8
  -2  -3   1 13.0821 38.6579  14
  -2  -3   2 356.965 187.066   8
   2   3  -2 626.606 238.164  19
  -2  -3   2 513.954 175.153  14
   2  -3  -2 321.882 132.957  18
   2   3  -2 474.561 215.513  12
   2   3  -2 215.795 137.733   3
   2  -3  -2 341.844 142.228  13
   2  -3  -2 158.714 117.156   1
  -2  -3   2 638.234 230.233   6
   3   2  -3 79.5590 96.7467   3
  -2   3   3 68.9950 54.5694  17
   3  -2  -3 34.5775 79.8841  13
   2   3  -3 172.970 100.777   5
   2   3  -3 193.918 130.942   3
  -2  -3   3 206.670 128.097   8
   2   3  -3 278.352 143.684  19
   2  -3  -3 307.840 145.344  13
   2  -3  -3 98.7834 81.6842   1
   3   2  -3 176.264 152.797  12
  -2  -3   3 170.906 83.9025   1
  -2  -3   3 390.105 169.689   6
   2  -3  -3 33.2129 21.1032   3
   2  -3  -3 239.316 148.156  18
   2   3  -3 291.040 146.675  12
  -3  -2   3-24.3907 125.853   6
  -2   3   3 113.250 41.5968   2
   2   3  -3 246.193 130.533   4
  -2  -3   3 246.646 117.724  14
  -3  -2   4-22.9530 139.273   8
  -2  -3   4 81.5451 101.291  16
   2   3  -4 153.085 110.927   4
   2   3  -4 105.575 81.1701   5
   2  -3  -4 121.306 66.1180   8
   3   2  -4 72.5319 37.9647  12
   2   3  -4 6.65479 23.9442  13
   2   3  -4 113.287 87.3425   3
  -2   3   4 74.1762 47.9033  19
   3  -2  -4 49.1665 68.1748   3
   2   3  -4 74.1710 73.6766  12
  -2   3   4 76.8591 134.812  17
   2  -3  -4 194.261 150.560  13
  -2  -3   4 117.057 96.2681   8
  -2  -3   4 105.347 59.4366   1
   3   2  -4 124.706 102.227   3
   2  -3  -4 152.668 104.231  18
   2  -3  -4 164.623 82.9119   3
  -2  -3   4 123.748 77.9942  14
  -2   3   4 69.8178 82.2864  16
   2   3  -4 97.4157 76.4544  19
  -2   3   4 89.9239 110.216   2
   3   2  -4 25.8785 53.2534  19
   3  -2  -4 84.7623 71.8792  13
   2  -3  -4 88.3846 70.9347   1
  -2   3   4-6.88351 100.237   5
  -3  -2   4 42.3448 17.1106   6
  -2  -3   4 171.579 119.041   6
  -3   2   5 410.299 136.695   6
   3  -2  -5-13.4562 65.9853   1
  -2   3   5 925.382 276.417  16
   2  -3  -5 1216.78 237.491   3
   2   3  -5 753.351 267.529  12
  -2   3   5 894.689 323.090  17
  -3   2   5 86.3773 214.398   2
   3   2  -5 879.077 275.801   3
  -2  -3   5 1042.81 271.666   6
  -3  -2   5 873.646 282.672   6
  -2  -3   5 1183.30 205.756   1
  -2   3   5 922.241 215.674  19
   2   3  -5 973.294 272.727   4
   3   2  -5 574.530 222.639  19
   3   2  -5 120.657 74.1008  13
  -3  -2   5 394.456 192.991   8
  -2  -3   5 912.780 216.867  14
   3  -2  -5 635.713 249.828  18
   2   3  -5 343.592 126.024  13
   2   3  -5 672.947 225.526   3
   2   3  -5 905.142 265.979  19
  -3  -2   5 555.862 180.074  14
   3  -2  -5 856.068 253.901  13
  -3   2   5 348.831 215.069  17
   2   3  -5 1005.41 247.833   5
   2  -3  -5 971.727 301.270  18
  -2  -3   5 1010.34 287.223   8
  -2   3   5 843.461 307.494   2
  -2  -3   5 975.632 324.936  16
   2  -3  -5 662.984 223.831   1
   3   2  -5 799.171 251.317  12
   3  -2  -5 1091.09 289.746   3
  -2   3   5 442.538 175.762   5
  -2  -3   6 232.126 95.3203   1
   3  -2  -6 302.493 131.452  12
   2  -3  -6 581.853 334.970  11
   3  -2  -6 353.976 195.517  18
   2   3  -6 167.025 107.282   5
   3   2  -6 296.581 136.525  12
  -3  -2   6 207.676 111.535   8
   3  -2  -6 398.361 164.970   3
  -2   3   6 104.131 28.2902   4
   3   2  -6 371.222 163.725   4
  -3   2   6 178.254 127.224  16
   3   2  -6 167.969 128.279  13
  -3  -2   6 203.090 155.131  16
  -2   3   6 200.603 118.199   5
   2   3  -6 257.180 141.357  19
  -2  -3   6 279.338 182.656  16
  -3   2   6 303.264 223.283  17
   3   2  -6 159.576 46.9773   5
  -2   3   6 357.060 242.753  17
   2  -3  -6-9.76860 43.9111  14
  -2  -3   6 309.602 162.616   6
  -2   3   6 324.889 196.786   2
   3  -2  -6 210.605 121.055  13
  -2  -3   6 276.113 120.478  14
  -3   2   6 178.934 80.0027   6
   3   2  -6 284.683 160.276   3
  -3  -2   6 317.081 159.086   6
  -2  -3   6 267.779 147.808   8
  -2   3   6 308.333 166.565  16
  -3   2   6 212.046 174.567   2
   2  -3  -6 222.896 143.292  18
  -2   3   6 363.467 129.398  19
   3   2  -6 193.788 112.552  19
   2   3  -6 256.480 151.306   4
   2   3  -6 277.010 110.147  11
   3  -2  -6-10.0308 51.4799   1
  -3  -2   6 242.458 118.787  14
   2  -3  -6 197.078 124.237   1
   3  -2  -7 3287.95 551.648  13
   3   2  -7 3818.57 445.907  18
  -2   3   7 3450.00 655.259   2
  -3  -2   7 3943.58 578.989   6
  -2  -3   7 3845.11 672.461  16
   2  -3  -7 2599.36 511.521  18
  -2  -3   7 3290.91 432.110   2
  -3   2   7 1282.17 244.023   6
  -3   2   7 2948.92 623.297  16
   3   2  -7 2894.97 441.106  19
   3  -2  -7 3482.94 443.045  12
  -2  -3   7 3368.02 520.221   6
  -2   3   7 2733.07 435.247   5
  -2   3   7 2414.62 277.004   4
  -3   2   7 3003.79 622.925   2
   3   2  -7 1728.26 349.753  13
   2   3  -7 959.056 191.022  11
  -2   3   7 3010.41 528.033  16
   2  -3  -7 3449.15 689.258  11
   3   2  -7 2605.04 477.316  12
  -2  -3   7 3144.63 418.062  14
   3   2  -7 4054.59 528.653   4
  -2   3   7 2561.61 556.579  17
   2  -3  -7 2329.65 404.709   1
   3   2  -7 3537.00 350.763   5
  -3  -2   7 2543.33 450.550   8
   3  -2  -7 354.278 145.834   1
  -3  -2   7 3419.44 393.646  14
   3  -2  -7 4206.85 570.516   3
  -3   2   7 3269.48 666.491  17
  -3  -2   7 3157.55 679.854  16
  -2   3   7 1721.80 363.465  19
   3  -2  -7 3400.69 630.065  18
   2   3  -7 1989.51 405.372  19
  -2  -3   7 3876.44 567.811   8
   3   2  -7 2867.86 510.502   3
  -3  -2   7 5487.76 592.024  17
  -2   3   8 46.8320 72.2737   2
  -3   2   8-0.47630 39.7543   6
   3  -2  -8-7.10853 67.3916  18
  -3  -2   8 16.3496 47.8976  14
   2  -3  -8 7.25060 11.6712   1
  -3   2   8 16.4831 24.8179  16
  -2  -3   8-4.02575 34.1402  14
  -2  -3   8-15.6657 61.4062   6
  -3  -2   8 24.7512 68.7798   6
  -3  -2   8-57.3013 179.438   2
  -2  -3   8 45.0628 112.031  16
  -2   3   8-7.01507 42.9141  16
  -2   3   8 16.3644 72.0455   5
   2  -3  -8-4.02380 37.8464  18
  -3  -2   8 46.6302 62.7705  17
   3  -2  -8-9.69721 33.8012   1
  -3   2   8 5.93811 158.309   2
   3   2  -8 197.459 185.272  13
   3   2  -8-4.42577 22.7752   4
  -3  -2   8 92.8782 148.449  16
   3  -2  -8 16.6305 54.2797  12
   2  -3  -8-7.79216 23.5264  14
   3   2  -8-20.3671 70.7256  19
  -2  -3   8 33.4121 114.539   2
   2  -3  -8-14.8078 96.8360  11
  -2  -3   8 11.4190 113.041   8
  -2   3   8 20.4197 45.4220   4
   3   2  -8 118.904 169.609   3
   3  -2  -8 83.0779 136.622   3
  -3   2   8 16.8783 128.480  17
   3   2  -8 124.091 193.322  12
  -3  -2   8-11.1876 59.9688   8
   2   3  -8 47.1276 106.811  19
   3   2  -8 3.73566 50.7454  18
  -2   3   8-12.2278 38.0161  17
  -3  -2   9 607.842 178.709  17
  -3   2   9 557.012 286.238  16
  -2  -3   9 881.434 245.924   2
  -3   2   9 15.5572 28.4823   6
   3  -2  -9 266.921 126.609   1
  -3  -2   9 616.971 225.333   2
  -2   3   9 444.793 184.418   5
  -2  -3   9 628.978 302.830  16
  -3  -2   9 535.723 152.664  14
  -2  -3   9 241.485 124.784  14
  -3   2   9 457.893 238.944  17
   3   2  -9 558.914 166.460  19
  -2   3   9 440.086 231.942  16
   2  -3  -9 119.399 71.7440  18
  -2  -3   9 382.137 187.075   6
  -2   3   9 608.429 287.852   2
   2   3  -9 198.939 134.445  19
   2  -3  -9 369.638 169.875   1
  -3  -2   9 552.268 237.748   6
  -3  -2   9 667.991 315.900  16
  -2  -3   9 488.758 214.941   8
   3  -2  -9 921.771 405.053  11
   2  -3  -9 362.611 191.797  11
  -3  -2   9 787.733 235.252   8
  -2   3   9 397.389 112.328   4
   3   2  -9 411.964 154.562  18
   3  -2  -9 501.949 247.307  18
  -3   2   9 717.013 346.573   2
   3   2  -9 741.980 284.679  11
  -2   3   9 405.579 213.087  17
  -3  -2  10 458.072 282.006  16
  -3  -2  10 278.853 120.127  14
  -3  -2  10 516.781 176.349   8
   2  -3 -10 4.08245 14.2754  14
   2  -3 -10 214.918 129.911   1
  -3  -2  10 371.823 135.499  17
  -2   3  10 423.330 255.167   2
  -3   2  10 130.118 63.0790   5
  -2  -3  10 496.602 187.477   2
  -2   3  10 323.976 145.949   5
  -2  -3  10 400.161 232.895  16
   3   2 -10 377.824 128.137  19
  -2  -3  10 68.8426 82.6965  14
  -2  -3  10 114.802 81.1868   6
   2   3 -10 35.4035 32.8006  19
   2  -3 -10 12.7163 186.055  18
   3  -2 -10 263.702 172.501  18
   2  -3 -10-31.1773 183.922  11
  -3   2  10 388.482 300.167   2
  -3   2  10-71.7125 134.702   6
  -2   3  10 306.812 194.878  17
  -3  -2  10 317.632 191.434   6
  -3   2  10 377.891 240.066  17
   3   2 -10 279.614 171.221  11
  -3   2  10 326.947 241.474  16
  -3  -2  10 538.994 236.692   2
   3  -2 -10 215.826 126.836   1
  -2  -3  10 313.939 156.445   8
  -2   3  10 250.813 192.379  16
   3  -2 -10 568.693 315.756  11
  -3  -2  11-26.1770 104.726  17
  -3  -2  11-13.4122 79.3051   8
  -3   2  11 109.697 153.607   2
  -3   2  11-35.2429 135.826  17
   3  -2 -11 12.8408 97.5561  18
  -3   2  11 57.0127 79.5955   5
   2   3 -11-84.6141 151.262  19
  -2   3  11 105.325 200.024   2
   2  -3 -11-5.45736 14.0266  14
  -3  -2  11 8.54774 60.3023  14
   2  -3 -11 29.8008 50.0725   1
  -2  -3  11-34.4988 160.736   6
  -3  -2  11-10.1795 79.5702   6
   3  -2 -11-23.9727 127.698  11
   3   2 -11-112.485 105.655  19
  -3   2  11 125.469 162.787  16
  -2  -3  11 139.231 116.579   2
   3  -2 -11 4.65775 43.6039   1
  -2   3  11-16.4880 131.124  17
  -2  -3  11 120.780 159.251   8
  -3  -2  11-15.6997 50.2166  16
  -3  -2  11-14.1920 72.7069   2
  -2  -3  11 49.1536 97.6114  16
  -2   3  11 47.4104 71.5054  16
  -2   3  11 44.5088 83.3172   5
  -2   3  12-68.1895 131.554  17
  -3   2  12 14.6438 20.1332   2
  -3  -2  12-30.8517 82.1015  17
  -3   2  12 38.9621 59.5412   5
  -2   3  12 27.8079 45.3849  16
   3  -2 -12 11.7923 51.3750   1
  -3  -2  12 63.0585 81.4229   2
  -2   3  12 32.1650 74.0532   5
   3   2 -12 123.946 97.4719  19
  -3  -2  12 66.0670 69.1016   8
   3  -2 -12-36.8158 125.977  11
  -2  -3  12 18.5581 54.7552   2
   3  -2 -12-97.6128 226.947  18
   2  -3 -12 41.9347 63.1727   1
  -2  -3  12-14.7781 46.2564  16
  -3  -2  12-105.943 141.607  14
   2  -3 -12-1.49427 4.93217  14
  -3   2  12 46.9378 150.504  17
  -3  -2  12 193.801 213.585  16
  -3   2  12 85.9470 126.238  16
  -2   3  12 164.803 212.835   2
  -2  -3  12-14.0161 53.3568   8
  -3  -2  12-85.8962 140.042   6
  -3  -2  13 1450.79 619.434   2
  -2   3  13 7.28349 121.527  17
  -3  -2  13 2029.77 715.014  16
  -2   3  13 18.8780 53.6684  16
  -3  -2  13 171.967 157.418  17
  -2   3  13 124.964 61.7833   2
  -3   2  13 204.409 87.0153   8
  -2  -3  13 191.014 226.448   8
  -2   3  13 97.2033 91.5098   5
  -3   2  13 167.436 120.188   5
  -3   2  13 173.574 217.304  16
  -3   2  13 425.094 377.032   2
   3   2 -13 340.521 227.369  19
  -3   2  13-64.1543 136.374  17
  -2  -3  13 365.500 287.246   2
  -2  -3  13 389.699 234.015  16
  -3  -2  13 1018.75 434.177   8
   3  -2 -13 35.7852 41.9574   1
   2  -3 -13 100.153 91.4080   1
  -3   2  14 83.8893 114.181  16
  -2   3  14-22.4818 63.6988   5
  -2  -3  14 81.9580 110.527   2
   2  -3 -14 112.375 116.761   1
  -2   3  14-22.3885 95.4586  17
  -3   2  14 24.8245 4.19931   8
  -2   3  14 52.6214 89.1288  16
  -3  -2  14 94.8583 106.030   8
   3   2 -14 3.71714 35.4276  19
  -3   2  14 229.684 264.606   2
  -3   2  14 58.0606 80.2104   5
  -2  -3  14 29.8760 64.7989   8
  -3  -2  14-58.4485 129.347   2
  -2   3  14 20.1958 29.1930   2
  -2  -3  14 283.132 238.129  16
  -3   2  14-72.3057 117.479  17
  -3  -2  14 70.1396 146.011  16
   3  -2 -14 27.9808 21.0571   1
  -3   2  15-32.7577 128.710   2
  -2  -3  15-69.8545 132.015   2
  -2   3  15 17.6571 74.5628  16
  -3  -2  15 141.653 162.053   8
  -2  -3  15-138.136 158.593   8
  -3  -2  15 63.4188 159.881   2
  -3   2  15 1.69211 39.1778   5
  -3   2  15 63.4833 155.691  16
  -2   3  15-101.512 136.619   5
   3   2 -15 57.8636 72.1146  19
  -2   3  15-125.613 141.463  17
  -2   3  15 18.5395 26.6376   2
  -3   2  15 15.5854 20.3703   8
   3  -2 -15 48.9684 88.7953   1
   2  -3 -15-4.30527 69.9063   1
  -2  -3  15 50.0309 162.325  16
  -3  -2  15 204.960 180.208  16
  -3   2  15-13.5854 68.6536  17
   3  -2 -16 34.8388 53.9347   1
  -3   2  16-2.59907 55.0606   8
  -3  -2  16 1129.64 410.317   2
  -3  -2  16 509.288 239.383   8
  -2  -3  16 624.986 353.631  16
  -3   2  16 416.063 291.153  16
  -3   2  16 557.829 342.482   2
  -2   3  16-1.94799 50.7694  17
  -3  -2  16 557.608 357.827  16
  -3   2  16-9.24041 52.1908  17
   2  -3 -16-0.20499 39.5825   1
  -2   3  16 197.611 183.845  16
  -2   3  16 319.262 286.590   2
  -2  -3  16 503.154 245.548   2
  -3   2  16 276.993 128.297   5
   3   2 -16 40.2073 44.6962  19
  -2  -3  16-21.0321 134.096   8
  -2   3  16 76.8333 78.2191   5
  -2   3  17 655.384 363.523   2
  -2   3  17 168.965 68.4616   5
  -3   2  17 669.772 189.304   5
   3   2 -17 75.8438 38.8320  19
   3  -2 -17 50.0323 55.4753   1
   2  -3 -17-3.92478 60.4110   1
  -3   2  17 329.693 222.771  17
  -2  -3  17 669.563 263.231   2
  -2  -3  17 707.275 398.463  16
  -2   3  17-266.203 215.694  17
  -2  -3  17 207.351 89.8196   8
  -3  -2  17 721.199 389.974  16
  -3  -2  17 1126.94 407.176   2
  -3   2  17 34.9650 64.6718   8
  -3   2  17 969.276 427.747   2
  -2   3  17 289.090 219.589  16
  -3  -2  17 891.726 292.958   8
  -3   2  17 860.128 429.969  16
  -2   3  18 78.9202 144.739  16
  -3   2  18 106.611 107.411   5
  -3  -2  18 130.545 305.070  16
   2  -3 -18 141.305 145.750   1
  -3  -2  18 319.887 244.237   2
  -2  -3  18 85.2766 187.390  16
  -3   2  18-234.075 174.387   8
  -2   3  18-156.791 196.117   5
  -2  -3  18-496.300 313.222   8
  -3  -2  18 167.609 189.770   8
  -2  -3  18-77.0120 118.598   2
  -3   2  18-40.7336 109.848  17
   3   2 -18-10.3574 93.6709  19
  -3   2  18-53.8660 118.110  16
   3  -2 -18-24.0889 20.0578   1
  -2   3  18 5.99524 145.296   2
  -3   2  18 15.9536 38.1186   2
  -2  -3  19 220.837 226.824   8
  -2  -3  19 1349.15 390.321   2
  -3   2  19 1042.93 250.433   5
  -3   2  19 976.505 473.499  16
  -3   2  19 1530.03 529.916   2
   2  -3 -19-8.33139 65.6072   1
  -3  -2  19 1195.28 380.560   8
  -2  -3  19 1129.77 530.584  16
   3  -2 -19 154.504 141.808   1
  -2   3  19 445.485 79.6791   5
  -3  -2  19 1837.29 536.319   2
  -3  -2  19 1199.29 522.843  16
   3   2 -19-261.839 184.130  19
  -2   3  19 813.893 416.035  16
  -2   3  19 1259.64 500.142   2
  -3   2  19 87.2415 91.6525  17
  -2   3  20 117.968 178.141   2
  -3  -2  20 20.2987 80.6876   2
  -2  -3  20 151.371 206.510  16
   2  -3 -20 66.5049 104.231   1
  -2  -3  20-265.465 349.668   8
  -3   2  20 254.166 313.159   2
  -2  -3  20 165.419 94.2719   2
  -3  -2  20 184.528 242.612  16
  -3  -2  20 102.286 177.120   8
  -3   2  20-156.787 187.621  16
  -2   3  20 155.738 248.428  16
   3   3  -2-20.3324 196.127  12
   3  -3  -3-33.1387 99.4269  13
   3   3  -3 6.44324 20.5440  19
  -3  -3   3-32.4268 106.516  14
   3   3  -3-6.50804 17.3272   3
  -3  -3   3-39.6499 122.410   6
   3  -3  -3-126.185 117.537   1
   3   3  -3 4.89786 64.3034  12
   3   3  -4 1823.90 441.752  12
   3   3  -4 1466.45 404.271  19
   3  -3  -4 379.452 174.139   3
  -3  -3   4 1876.38 430.699   6
   3  -3  -4 1980.43 397.230  13
  -3  -3   4 940.948 344.822   8
  -3  -3   4 1145.24 290.518  14
   3  -3  -4 1147.22 357.288  18
   3   3  -4 1509.02 393.218   3
   3  -3  -5-19.6908 78.6961   3
  -3   3   5 54.9989 189.256  17
   3  -3  -5 21.2975 101.325  18
   3   3  -5-15.1015 75.2437  19
   3  -3  -5 31.3546 90.2224  13
  -3   3   5 18.1730 37.8093   6
   3   3  -5 18.0685 24.7609   3
   3   3  -5-46.3880 85.7806   4
  -3  -3   5-27.2056 108.342   8
  -3  -3   5 10.9797 4.72457   6
   3   3  -5-13.1034 86.2066  12
  -3  -3   5-12.9472 2.04356  14
   3  -3  -5 0.94379 36.8290   1
  -3   3   5-119.061 229.861   2
  -3   3   6 1001.49 362.436  16
   3   3  -6 1829.51 332.336   5
   3   3  -6 2303.71 448.619   4
   3  -3  -6 2003.16 483.900  18
   3  -3  -6 439.424 186.992   1
   3   3  -6 296.083 135.929  13
   3  -3  -6 2609.81 436.646   3
   3   3  -6 1672.66 407.079   3
  -3  -3   6 1914.69 425.340   6
  -3   3   6 638.833 140.226  19
  -3  -3   6 1392.90 224.856   1
  -3  -3   6 1815.56 341.722  14
   3  -3  -6 1709.74 386.282  13
  -3   3   6 1059.04 395.082   2
  -3  -3   6 1254.76 351.053   8
  -3   3   6 781.887 152.207   6
  -3   3   6 1017.99 412.712  17
   3  -3  -6 868.704 232.389  12
   3   3  -6 1492.09 358.451  19
   3   3  -6 1510.04 382.709  12
  -3  -3   6 1101.38 406.358  16
   3  -3  -7 1.26257 66.9041   3
   3   3  -7 40.5477 60.8640  13
  -3  -3   7 36.5178 81.6075  16
   3   3  -7 23.2425 81.6227  19
  -3   3   7 1.73870 51.3196  19
   3   3  -7 23.2810 47.3700  18
   3   3  -7 2.44173 84.5345  12
  -3   3   7 3.89898 16.7597   6
  -3  -3   7 29.4173 91.8841   6
  -3  -3   7-22.0770 37.5652   8
   3   3  -7 44.2521 65.5630   5
   3  -3  -7-1.13302 11.4793  12
  -3   3   7 134.225 140.988  17
  -3   3   7 8.32963 63.5312  16
   3  -3  -7-20.3441 19.3173   1
   3   3  -7 26.9821 82.1117   4
   3  -3  -7 185.744 229.036  13
  -3  -3   7 24.3388 85.3303  17
  -3  -3   7 4.40243 25.1480  14
  -3  -3   7 5.46289 20.7843   1
   3   3  -7 12.0007 56.9613   3
   3  -3  -7 11.5472 80.9621  18
  -3   3   7-25.0623 66.9945   2
  -3   3   8 396.598 95.0007   5
   3  -3  -8 4354.76 570.418   3
  -3  -3   8 3532.74 749.359  16
   3  -3  -8 1910.54 394.912   1
  -3   3   8 2874.09 379.898  19
   3   3  -8 2390.52 513.254  12
   3   3  -8 1721.41 342.388  13
   3   3  -8 3138.78 346.481  18
   3   3  -8 2100.77 342.230   5
  -3   3   8 3166.46 678.755  17
  -3   3   8 3541.26 688.478  16
  -3  -3   8 4020.61 626.888   6
  -3   3   8 3339.93 706.204   2
   3   3  -8 2945.58 535.661   4
   3  -3  -8 5780.96 1021.35  11
  -3  -3   8 3091.85 543.729   8
   3  -3  -8 3411.78 652.669  18
  -3  -3   8 4528.96 427.835  17
  -3  -3   8 4047.08 483.550  14
   3   3  -8 5399.49 686.673  11
   3   3  -8 3103.33 490.542  19
   3   3  -8 2130.32 480.407   3
   3  -3  -8 3946.83 433.508  12
  -3   3   9 25.1825 147.704  17
  -3  -3   9 31.1598 67.0958  14
  -3  -3   9-36.1835 74.5010  17
   3  -3  -9 108.844 133.880  12
   3   3  -9-21.8412 25.2501  19
  -3   3   9 12.8081 60.1947   2
   3  -3  -9 126.914 195.242  11
  -3  -3   9-35.4565 9.65069   8
   3   3  -9 446.956 219.103  13
  -3  -3   9-51.7100 128.291   2
  -3   3   9-30.8944 93.6749   5
   3   3  -9-7.38087 44.6061  11
  -3   3   9 16.2614 58.2111  16
  -3  -3   9-59.9126 126.105   6
   3  -3  -9-4.79790 19.7192   1
   3  -3  -9-0.36632 45.5969  18
  -3  -3   9 153.745 169.943  16
  -3  -3  10 222.770 131.374   6
  -3   3  10 207.766 180.167  17
  -3   3  10 337.866 273.351   2
  -3  -3  10 126.671 47.4293  17
  -3  -3  10 222.736 135.020  14
   3  -3 -10 159.477 105.617  18
   3   3 -10 33.7443 100.859  11
  -3  -3  10 274.372 183.316   2
  -3   3  10 242.048 196.554  16
   3  -3 -10 157.744 125.622   1
   3   3 -10 155.340 124.710  19
  -3  -3  10 308.364 187.766  16
   3  -3 -10 235.324 177.429  11
  -3  -3  10 336.825 190.898   8
  -3   3  10 122.069 93.7068   5
  -3   3  11-25.2332 26.5741   5
  -3   3  11 109.362 136.715  17
  -3   3  11-2.71558 60.0385  16
  -3  -3  11 53.0634 151.059  16
   3   3 -11-24.4356 58.7241  19
   3  -3 -11-8.51126 91.2836  11
  -3  -3  11-6.93245 18.3987  14
   3  -3 -11-31.6904 90.0572  18
  -3  -3  11-76.1456 128.330   6
  -3  -3  11 116.482 151.165   2
  -3  -3  11 97.2529 139.404   8
  -3   3  11 57.5061 214.277   2
  -3  -3  11-13.1411 68.5895  17
   3  -3 -11-8.82702 62.5580   1
  -3  -3  12 401.512 319.017   6
  -3  -3  12 375.445 316.434   2
  -3   3  12 111.440 177.324  16
  -3   3  12 206.694 264.546   2
   3  -3 -12 31.4031 12.4353   1
  -3   3  12 72.4247 88.9928   5
   3  -3 -12-28.7914 139.029  11
  -3  -3  12 245.035 169.580  14
   3   3 -12 206.340 193.033  19
  -3  -3  12 110.974 256.642  16
  -3  -3  12 778.506 340.493   8
   3  -3 -12-103.341 257.542  18
  -3   3  12 156.945 288.055  17
   3  -3 -13-69.1634 87.3139   1
   3   3 -13 595.577 216.476  19
  -3   3  13-129.222 201.056  17
  -3  -3  13-13.3122 48.4557   6
  -3   3  13 26.2560 108.028   5
  -3   3  13 4.95062 159.398   2
  -3  -3  13 1578.17 461.709   8
  -3  -3  13 535.194 394.446  16
  -3   3  13-42.9643 27.6506  16
  -3  -3  13-206.737 189.163  14
  -3  -3  13 1006.28 516.107   2
  -3   3  14 1.54976 12.0578  17
  -3   3  14 83.8058 102.837   5
  -3   3  14 61.0734 155.168  16
  -3  -3  14 72.1500 136.120  16
  -3  -3  14 301.363 202.170   2
  -3  -3  14 139.644 176.013   8
  -3   3  14 23.7948 158.928   2
   3   3 -14 28.8911 71.6552  19
   3  -3 -14 12.2944 28.7621   1
  -3  -3  15-2.07266 132.475   2
  -3   3  15 49.0143 147.640   2
  -3   3  15-43.7750 140.049  16
   3  -3 -15-5.54825 56.7651   1
   3   3 -15 154.615 156.745  19
  -3  -3  15 30.4064 140.120   8
  -3   3  15-88.8993 124.430  17
  -3  -3  15-56.3771 61.3235  16
  -3   3  15 104.841 102.063   5
  -3   3  16 832.581 398.754   2
  -3  -3  16 447.766 291.629  16
  -3   3  16 471.846 341.727  16
   3  -3 -16 182.625 159.870   1
  -3   3  16 540.092 207.549   5
  -3  -3  16 1150.23 382.117   2
   3   3 -16 126.938 124.642  19
  -3  -3  16 585.501 263.376   8
  -3   3  16 239.474 227.717  17
  -3  -3  17 153.836 172.078   2
  -3  -3  17-122.270 184.648  16
  -3   3  17 73.8417 170.581  16
   3   3 -17 60.2423 38.1646  19
  -3   3  17 24.1185 69.3448   5
   3  -3 -17-37.5312 67.7649   1
  -3   3  17-38.6132 87.6930   2
  -3   3  17-5.62983 71.0329  17
  -3  -3  17 39.4902 131.555   8
  -3  -3  18 2164.41 527.857   2
  -3   3  18 1068.35 459.811  16
  -3   3  18 565.443 342.821  17
   3  -3 -18 147.563 125.267   1
  -3   3  18 1743.74 591.002   2
  -3   3  18 1181.99 306.678   5
  -3  -3  18 1127.40 532.596  16
  -3  -3  18 1614.20 436.312   8
   3   3 -18 47.1495 67.8867  19
  -3   3  19-12.8561 76.8861  16
  -3   3  19 42.8597 266.075   2
  -3  -3  19-59.9646 63.1961  16
  -3   3  19-124.081 218.553  17
  -3   3  19 9.41597 65.3035   5
  -3  -3  19 124.657 225.160   2
   3  -3 -19 123.486 165.014   1
   3   3 -19-99.1864 153.511  19
  -3  -3  19 67.5462 102.792   8
  -3   3  20 1434.51 543.542  16
   3   3 -20-22.3685 93.3709  19
  -3   3  20 2305.14 730.279   2
  -3  -3  20 3298.72 720.780   2
  -3  -3  20 2205.45 511.478   8
  -3   3  20 285.023 137.237  17
  -3  -3  20 2255.65 783.776  16
   3  -3 -20 83.9373 129.813   1
   0   4   0 1220.52 257.122   2
   0  -4   0 1026.56 186.291   6
   0   4   0 785.903 261.534   5
   0  -4   0 885.698 207.167  11
   0   4   0 735.433 232.753   4
   0   4   0 573.627 165.979  12
   0  -4   0 697.192 188.909  14
   0  -4   0 786.029 201.488  18
   0   4   0 852.467 287.449  19
   0  -4   0 963.442 264.384   8
   0   4   0 416.448 162.763  17
   0  -4   0 1059.34 280.253   1
   0   4   1-6.97647 34.5148  12
   0  -4   1-7.43775 37.8155   6
   0   4   1-2.93924 15.6450  17
   0   4  -1 41.1421 86.7040   5
   0  -4  -1 37.5079 54.0042   8
   0  -4  -1-0.75316 30.8673   6
   0  -4   1 27.9429 107.877   8
   0   4   1 15.6747 57.9436   5
   0  -4  -1-7.11465 42.7571   1
   0   4   1 10.6911 60.8933   2
   0   4   1-20.5625 52.8945  19
   0  -4   1-6.15214 13.6475  18
   0   4  -1-2.59558 34.5183  19
   0  -4  -1 3.26059 33.6615  11
   0   4  -1 1.29513 41.5334   4
   0  -4   1 13.6848 64.1252   1
   0  -4  -1 0.64163 18.6654  14
   0   4  -1 5.68293 27.7287   2
   0   4  -1 9.74992 38.4244  17
   0  -4  -1-6.94927 25.0861  18
   0  -4   1 2.42363 26.6564  14
   0   4   1 0.39264 35.5758   4
   0  -4  -2 21.9949 25.3188  14
   0   4   2 2.32926 35.6138  17
   0   4   2 13.4806 24.9590   4
   0  -4   2 17.0136 30.2553   6
   0  -4   2 12.8932 20.4008  18
   0   4   2 7.42603 31.6229   5
   0  -4   2 21.1992 62.4547   1
   0   4  -2-12.1226 61.5305   5
   0  -4  -2 46.1810 75.7215   1
   0   4   2-2.65163 34.6297  19
   0   4  -2-29.0181 118.213   4
   0  -4  -2-10.6962 69.0506  18
   0   4   2-4.92879 45.8558   2
   0  -4  -2-15.9822 72.7512   8
   0  -4   2 12.9862 36.1618   8
   0  -4   2 25.3712 45.3899  16
   0  -4  -2 1.74404 38.0599   6
   0  -4   2 16.2889 16.5564  14
   0   4  -2-2.02018 66.9751  19
   0   4  -2 9.48996 60.6977  17
   0   4  -3-82.0295 153.458  19
   0   4   3 18.3693 62.9010   5
   0  -4  -3 3.97107 36.6158   1
   0  -4   3-10.9917 34.7332  16
   0  -4   3-2.86762 36.2506  14
   0  -4   3-1.39811 32.3120   1
   0   4   3-0.67128 25.0499  17
   0  -4   3-2.01316 21.8833   6
   0   4   3 4.03956 51.1972  19
   0  -4   3 41.0143 108.896   8
   0  -4  -3-2.72836 54.6707   8
   0   4   3-12.3210 55.2398   4
   0  -4  -3 2.93899 33.4067  14
   0  -4   3-18.8875 66.2995  18
   0   4   3-13.8724 30.5387   2
   0  -4   4 397.965 142.791   6
   0  -4   4 990.368 300.320   8
   0  -4   4 651.232 177.994  16
   0  -4  -4 1168.94 294.363   1
   4   0  -4 491.330 258.516   3
   0   4   4 1722.16 456.999  19
   0  -4   4 265.528 158.724   1
   0   4   4 435.774 187.242  17
   0   4   4 1426.20 349.721   5
   0   4   4 904.012 260.275   2
   0  -4   4 616.635 211.944  14
   0  -4  -4 1187.89 232.186  14
   0  -4  -5 2.04966 40.9233  14
   0  -4   5-10.8404 60.7810  14
  -4   0   5-69.8538 165.058   6
   0   4   5-10.9605 94.6106   5
   0   4   5-15.8945 78.1152  17
   0   4   5-16.0159 53.0688   2
   4   0  -5 4.33264 43.9752   3
   0  -4   5-68.7301 188.650   8
   0   4   5 4.74459 31.2858  19
   4   0  -5-44.7797 149.141  13
   0  -4  -5-5.99937 53.9314   1
   0  -4   6 29.1568 103.860  14
   4   0  -6 690.184 284.573  12
   0   4   6 290.345 140.565   2
   4   0  -6 307.995 166.762  13
   0  -4  -6 331.173 126.358  14
   4   0  -6 831.822 299.846   3
   0  -4  -6 268.020 144.797   1
  -4   0   6 340.449 171.184   6
   0   4   6 204.053 125.532  17
   4   0  -7-46.3947 126.738  12
   4   0  -7-48.6164 136.641  18
   0   4   7-12.9232 72.3647  17
   0  -4  -7-24.0463 52.8031  14
   4   0  -7 13.7624 46.9721  13
   0  -4  -7-0.11023 22.4679   1
   0   4   7-4.62964 70.3543   2
  -4   0   7 60.0041 116.417   6
   4   0  -7-9.66055 63.6296   3
   4   0  -8 2993.72 577.698   3
   4   0  -8 2647.43 503.064  12
   0   4   8 489.542 208.549  17
   4   0  -8 1908.83 435.068  13
  -4   0   8 1869.97 394.023   6
   0  -4  -8 490.624 159.598  14
   0   4   8 657.910 252.135   2
  -4   0   8 2020.83 539.196  17
   4   0  -8 2725.53 537.311  18
  -4   0   8 1614.36 539.370  16
   0  -4  -8 285.734 151.576   1
   4   0  -9-14.0091 88.9742   3
  -4   0   9 10.2184 67.6106   6
   0  -4  -9-37.9726 108.512   1
   0   4   9-5.82359 101.123   2
  -4   0   9 17.4841 120.812  17
   4   0  -9-22.4074 59.9041  12
   4   0  -9 43.9686 100.710  18
  -4   0   9-34.1014 68.6861  14
  -4   0   9-10.8256 22.5288  16
  -4   0   9-69.9459 287.134   2
   4   0  -9 15.0316 44.5126  13
   4   0  -9-2.01645 26.5211   4
   0   4   9-38.8365 119.165  17
  -4   0  10 89.1810 91.7835   6
  -4   0  10 137.629 175.843  17
   0   4  10 7.81984 137.334  17
  -4   0  10-9.14709 78.2434  16
   0   4  10-36.4128 152.622   2
  -4   0  10 73.5891 52.8960  14
   4   0 -10 252.082 210.597  13
   4   0 -10 19.3673 44.7890  12
   4   0 -10 74.2858 87.9178  18
  -4   0  10 28.8771 140.102   2
   4   0 -10 75.0037 126.596   3
   0  -4 -10-43.1409 120.954   1
  -4   0  11-5.09361 15.5652  14
  -4   0  11-111.082 86.3218   8
   0   4  11-48.2720 169.164   2
   4   0 -11 153.749 187.168   3
   4   0 -11 236.602 224.424  13
   4   0 -11-14.4167 48.9950  18
  -4   0  11-82.1399 106.834  17
   4   0 -11 569.288 385.286  11
  -4   0  11-19.7977 71.2615  16
  -4   0  11 20.5041 90.6368   6
   4   0 -11 169.832 159.849  12
  -4   0  11 103.903 185.627   2
  -4   0  12 0.82471 54.3173   6
   4   0 -12 180.295 205.839  11
  -4   0  12-58.9890 64.5438   8
  -4   0  12 7.47867 41.0955  17
  -4   0  12 20.2623 69.9004  16
   0   4  12-32.5830 127.935   2
  -4   0  12 15.5865 147.437   2
   4   0 -12 80.1474 102.751  18
  -4   0  13 1807.28 345.921   8
   4   0 -13 261.414 115.359  19
  -4   0  13 1350.50 589.108  16
   4   0 -13 272.952 277.416  11
  -4   0  13 1917.61 796.156   2
   0   4  13-93.7260 173.672   2
   4   0 -13 148.366 189.441   1
  -4   0  13 1042.81 518.804   6
   4   0 -13 15.0098 44.9892  18
   4   0 -14-32.3360 42.1164  19
  -4   0  14 156.672 192.667  16
   4   0 -14-73.2963 170.895  11
  -4   0  14 406.912 278.356   2
  -4   0  14-220.148 222.923   6
  -4   0  14-38.7354 116.470  17
  -4   0  14 81.5339 96.2493   8
   4   0 -14 7.04007 37.3875   1
  -4   0  15-51.5210 109.154  17
   4   0 -15-35.7881 44.0416  19
  -4   0  15 157.416 233.848   2
  -4   0  15 108.105 217.352  16
   4   0 -15-25.6159 53.1381   1
  -4   0  15 1.91903 31.1760   8
  -4   0  16 323.624 316.670  16
   4   0 -16-42.0687 67.4153   1
   4   0 -16-0.25545 18.1109  19
  -4   0  16 155.324 118.936   8
  -4   0  16 230.275 291.260   2
  -4   0  16-130.785 179.825  17
   4   0 -17-17.7165 57.2997   1
  -4   0  17 348.066 364.665  16
  -4   0  17 614.010 464.237   2
  -4   0  17 103.446 126.585   8
  -4   0  17 115.338 195.662  17
   4   0 -17 52.8280 55.0057  19
  -4   0  18 697.274 322.424  17
  -4   0  18 1122.69 304.729   8
  -4   0  18 1238.37 545.040   2
  -4   0  18 1021.76 514.045  16
  -4   0  19 230.682 194.642   8
  -4   0  19 330.124 409.547  16
  -4   0  19 58.0030 64.8263  17
  -4   0  19 243.832 356.552   2
  -4   0  20 1733.14 659.218   2
  -4   0  20 1395.78 615.772  16
  -4   0  20 190.690 137.584  17
   1  -4   0 1464.87 319.375   8
   1  -4   0 2069.38 388.882  18
  -1   4   0 219.537 131.098   5
   1  -4   0 1733.34 392.330   1
   1   4   0 2000.64 402.208   5
  -1  -4   0 1916.49 363.632   1
  -1  -4   0 1807.33 433.445   8
   1   4   0 865.451 272.367  12
  -1  -4   0 1900.34 319.844  14
  -1  -4   0 2517.62 395.825   6
   1   4   0 2111.46 416.406   4
   1   4   0 2552.77 486.526  19
  -1   4   0 476.751 235.736  17
   1  -4   0 329.176 148.748  14
  -1  -4  -1 43.5727 47.8558   8
  -1   4   1 67.1549 84.8151   2
   1  -4  -1 72.4431 38.0293  13
   1  -4   1 27.9485 40.1370   1
  -1   4   1 32.1670 50.9775   5
  -1   4   1 82.8261 101.191  19
  -1  -4   1 124.140 131.790   8
   1   4  -1 90.2749 80.3901  12
   1  -4  -1 77.1587 78.1594   8
   1   4  -1-3.54595 33.8329  17
   1   4  -1 142.154 121.358   4
   1  -4   1-5.82288 130.782   8
   1  -4   1-22.1701 123.835  18
   1  -4  -1 87.0638 93.4011  18
   1  -4  -1 37.9338 52.6446  14
   1   4  -1 16.2314 32.7250   2
  -1  -4   1 128.084 120.265   1
   1   4   1 20.7075 52.7561   5
   1   4   1-43.2589 43.9758  17
  -1  -4   1 193.158 127.612   6
  -1  -4   1 88.5818 87.1287  14
   1  -4   1-2.89907 16.9982  14
   1  -4  -1 112.895 97.9833   1
   1   4   1 94.2162 78.2146  19
  -1   4   1 80.4413 138.760  17
   1   4  -1 127.214 141.904  19
  -1  -4  -1 40.6349 49.6218   1
   1   4  -1 11.6919 10.7954   3
  -1  -4  -1 71.7798 59.8695  14
   1   4  -1 131.168 102.659   5
  -1   4   2 49.8640 70.6064   5
   1   4  -2 93.0982 66.7325  19
  -1  -4  -2 67.8234 67.0019  14
  -1   4   2 54.1758 75.2596  17
   1  -4   2-14.8268 70.2108  14
   1  -4   2 23.3495 67.8679   1
   1   4  -2 40.8079 62.5311   3
  -1   4   2 70.0199 77.3390   4
   1   4  -2 117.966 113.606   5
   1  -4  -2 110.462 99.2693  18
   1   4   2-9.04148 102.039   5
   1   4   2 79.0107 106.448  19
   1   4  -2 80.5354 99.1621   4
  -1  -4   2 127.469 95.9587   6
   1   4  -2 64.5898 46.9470  12
  -1   4   2 117.680 131.613   2
  -1  -4   2 146.140 104.956   1
   1   4  -2-1.89429 26.4412  17
   1  -4  -2 86.7456 82.7562   1
  -1  -4   2 115.451 84.4940  14
  -1  -4   2 95.9774 110.933   8
   1  -4  -2 31.0951 33.4565  14
   1  -4  -2 148.652 109.849   8
   1   4   2-45.9013 48.5587  17
  -1   4   2 108.729 114.856  19
  -1  -4  -2 34.0047 36.2257   1
   1  -4  -3 379.108 167.305  18
   1   4  -3 433.797 210.206  19
  -1  -4   3 479.338 189.692  16
   1   4  -3 508.794 215.833   4
   1  -4   3-34.6060 119.770   1
  -1   4   3 501.836 214.829   2
  -1   4   3 433.455 178.367   4
   1  -4  -3 726.737 278.698  11
  -1   4   3 263.736 158.992  17
  -1  -4  -3 95.1978 71.5725   1
  -1  -4   3 625.283 201.597   1
   1   4  -3 435.094 201.481   5
   1  -4  -3 437.811 163.308   8
   1  -4  -3 489.980 192.873   1
   1  -4  -3 183.780 96.6918  14
   1   4   3 374.132 227.712  19
   1   4  -3 384.212 166.636   3
  -1   4   3 446.004 130.348  16
  -1   4   3 504.078 195.933  19
   1   4   3-0.26827 68.9269  17
  -1  -4  -3 155.243 88.2239  14
  -1  -4   3 631.419 192.218   6
  -1  -4   3 528.659 203.717   8
  -1   4   3 339.915 172.590   5
  -1  -4   3 453.821 158.099  14
   1  -4  -4 11.1085 32.3680  14
  -1   4   4 0.71684 39.8897   4
  -1   4   4 28.0973 101.858  17
  -1   4   4 12.3218 33.3634  16
  -1   4   4 16.7405 81.1356   2
   1   4  -4-28.1774 50.9157   4
  -1  -4   4-0.84935 29.4402  14
  -1  -4   4 25.2879 84.3452   8
   1  -4  -4 10.5373 47.4103   8
   1  -4  -4 17.4166 51.0821  11
  -1  -4  -4-27.5370 106.121   1
   4   1  -4-30.1770 130.548   3
  -1  -4   4-9.34159 33.3717  16
  -1   4   4 24.4761 65.5494   5
   1  -4  -4-5.26381 5.09150  18
   1  -4  -4-23.3372 47.3613   1
  -1   4   4 10.5560 66.2288  19
   1   4  -4-21.4242 64.8693   5
  -1  -4   4-31.4663 48.0629   6
   1   4  -4 14.6370 75.2610  19
  -1  -4   4-12.7443 46.6800   1
  -1  -4  -4-8.31993 42.3553  14
  -1  -4   5 1455.70 320.402   1
  -1   4   5 1535.36 285.331  16
   1  -4  -5 1129.32 210.656  14
   4   1  -5 2239.32 535.354   3
  -1   4   5 2574.32 484.851  19
  -1   4   5 1351.13 360.747  17
   1   4  -5 321.564 71.3286   5
  -1   4   5 2021.84 423.350   5
  -4  -1   5 562.078 260.363   6
   4   1  -5 9.06397 161.280  13
   1  -4  -5 1607.13 416.044  11
   1  -4  -5 2008.17 395.772   1
   4  -1  -5 1840.03 493.678   3
   1  -4  -5 1456.52 356.306  18
  -1  -4   5 2513.17 474.797   8
  -1  -4   5 2501.06 453.686  16
   4  -1  -5 903.192 288.380  13
  -1  -4   5 2033.68 381.815   6
   1   4  -5 1085.97 311.531  19
   1  -4  -5 666.470 238.848   8
  -1  -4   5 2084.97 371.120  14
  -1   4   5 2094.65 363.572   4
   4   1  -5 2232.87 562.119  12
  -1   4   5 2522.97 499.718   2
   4   1  -6 189.319 107.943  13
  -4  -1   6 275.089 149.938   6
  -1   4   6 534.557 227.512  19
  -1   4   6 517.019 214.801   5
   4   1  -6 692.495 277.742   3
  -1  -4   6 639.178 255.641   8
  -1  -4   6 469.613 180.565  14
   4   1  -6 530.689 253.738  12
   1  -4  -6 318.531 106.156  14
   1   4  -6 104.104 92.7841  19
  -1  -4   6-17.8959 55.4995   1
  -1  -4   6 677.811 253.251  16
   1  -4  -6 447.051 190.208   1
   4  -1  -6 378.489 173.587  13
   4  -1  -6 475.452 206.432  12
  -4   1   6 211.891 133.798   6
   4  -1  -6 827.537 301.506   3
  -1   4   6 547.649 179.462   4
   1  -4  -6 362.709 208.322  11
  -1   4   6 316.386 151.217  17
  -1   4   6 273.381 136.052  16
  -1  -4   6 435.142 185.786   6
  -1   4   6 616.756 268.021   2
   1  -4  -6 195.514 101.495  18
  -1   4   7 856.050 232.688  16
   4  -1  -7 1593.78 417.958  18
   4   1  -7 2367.81 528.712   3
   1  -4  -7 965.055 189.965  14
  -1  -4   7 1029.07 291.754   6
   1  -4  -7 1186.63 311.673   1
   1  -4  -7 335.364 136.862  18
   4  -1  -7 1634.98 395.916  13
  -1   4   7 1598.02 419.828   2
   1   4  -7-103.988 199.546  19
   4   1  -7 1975.74 467.660  12
  -4   1   7 1059.28 294.870   6
  -4  -1   7 1660.67 409.034   6
   1  -4  -7 323.911 61.6999  11
   4  -1  -7 2712.20 546.602   3
  -1   4   7 780.619 294.753  17
  -1  -4   7 728.268 140.015   2
   4  -1  -7 1981.71 446.396  12
  -1  -4   7 981.526 277.688  14
  -1  -4   7 1546.85 394.864   8
   4   1  -7 988.368 294.270  13
  -4   1   7 677.156 347.613  17
  -1   4   7 1396.81 345.273   5
  -1  -4   7 2052.91 464.486  16
  -1   4   8-38.6306 131.270  16
   1  -4  -8 65.6746 45.5803  14
   4  -1  -8 233.817 190.410  18
   4   1  -8 161.073 113.164  12
   4   1  -8 217.454 154.950  18
  -4   1   8 80.7537 125.375  16
  -4  -1   8 166.941 167.929  16
   4   1  -8 178.404 86.6017   3
  -1  -4   8 175.825 152.853  16
   4   1  -8 248.340 108.863   4
   1  -4  -8 116.189 112.348   1
  -4  -1   8 230.478 173.453  17
  -1   4   8 81.5596 76.2709   5
  -1  -4   8-5.56352 105.430   6
   4  -1  -8 129.813 98.0354  12
  -1   4   8 100.717 113.329   2
  -1   4   8 139.599 148.895  17
  -4  -1   8 69.0334 47.7629  14
   4  -1  -8 125.674 102.039  13
  -1  -4   8 166.562 130.451   8
  -4   1   8 130.743 120.649   6
  -1  -4   8 23.2753 67.6766   2
  -1  -4   8 55.3755 53.8478  14
   4   1  -8 132.781 117.900  13
  -4   1   8-117.774 362.371   2
   4  -1  -8 184.915 122.280   3
  -4   1   8 170.050 189.571  17
  -4  -1   8 157.828 115.505   6
  -4  -1   9 1227.86 348.338  17
  -4  -1   9 536.254 227.946   6
  -1   4   9 535.468 249.273   2
   1  -4  -9 270.078 97.0864  14
  -1  -4   9 486.748 244.162  16
   4   1  -9 701.209 260.547  18
  -4   1   9 372.197 158.311   6
   1  -4  -9 153.124 120.994   1
  -1  -4   9 32.9525 108.836  14
   4  -1  -9 814.196 316.361  18
  -1  -4   9 392.727 221.104   8
  -4   1   9 694.061 334.678  17
  -4  -1   9 680.722 164.664  14
   4  -1  -9 775.449 289.997   3
   4   1  -9 509.887 190.582  13
   4   1  -9 711.769 290.242   3
  -1   4   9 390.301 180.789   5
  -1   4   9 103.223 108.488  16
  -4   1   9 532.065 326.460  16
  -1   4   9 189.849 112.629  17
  -4  -1   9 525.913 313.862  16
  -4  -1   9 292.438 136.983   8
   4  -1  -9 710.500 244.629  12
   4   1  -9 658.731 253.951  12
  -1  -4   9 15.5411 122.696   6
   4  -1  -9 497.797 268.753  13
   4   1  -9 686.158 197.348   4
  -4   1   9 247.703 147.592   2
   4  -1 -10 498.355 186.153  12
  -4   1  10 303.464 223.724   2
  -1   4  10 354.006 217.318   2
  -1  -4  10 350.986 234.500  16
  -4  -1  10-39.6119 224.304   2
   1  -4 -10 139.550 75.5670  14
   1  -4 -10 118.178 86.2163   1
  -4  -1  10 839.770 254.142  17
   4  -1 -10 522.980 307.595  13
  -4  -1  10 265.422 141.962   8
  -1   4  10 91.5855 62.3759  17
   4   1 -10 378.660 247.237   3
  -1  -4  10 225.544 87.8829   8
   4   1 -10 390.308 237.034  13
   4   1 -10 42.8798 38.7458  19
  -4   1  10 374.989 251.656  16
   4  -1 -10 550.362 257.015  18
   4   1 -10 370.580 189.356  12
  -4  -1  10 350.353 216.537   6
  -1   4  10 175.611 75.9164   5
  -4  -1  10 586.570 142.357  14
   4   1 -10 483.784 228.382  18
   4   1 -10 71.5505 96.7399   4
  -4   1  10 587.491 279.204  17
   4  -1 -10 326.036 210.868   3
  -1   4  10-48.1787 145.845  16
  -1  -4  10 32.5398 101.007   2
  -4   1  10 246.630 141.978   6
  -4  -1  10 457.462 270.653  16
  -4  -1  11-18.5619 91.0662   6
  -4  -1  11-39.0360 54.5507   8
  -1   4  11-6.35508 63.3781  17
   4  -1 -11 132.281 225.104   3
   4   1 -11 125.971 219.729   3
   4  -1 -11 406.217 357.520  11
  -1  -4  11-238.759 342.468   8
  -4   1  11-28.4805 48.3877   6
   4  -1 -11-1.89197 69.1088  18
  -1  -4  11 27.4015 39.2878  16
  -4  -1  11-88.5732 131.234  16
  -1   4  11-7.56494 78.4157   2
   1  -4 -11-2.50143 12.5343  14
  -4   1  11 63.5677 88.6758   2
  -4  -1  11 25.4296 36.8720  14
   4   1 -11 344.973 240.408  13
  -4   1  11-105.965 144.378  17
   4  -1 -11-35.1866 91.6763   1
  -1   4  11-187.290 200.332  16
  -4  -1  11 47.8798 40.7967  17
  -4  -1  11 44.6326 84.6265   2
   1  -4 -11-19.2834 25.1567   1
   4   1 -11-18.8383 53.9560  19
   4   1 -11 285.127 288.911  11
   4  -1 -11 20.8826 107.548  12
   4   1 -11 222.242 214.222  12
   4   1 -11 64.4822 91.3459  18
  -4   1  11 40.1716 111.502  16
  -4   1  12 42.2406 57.4385  16
   4  -1 -12-50.4500 102.792  18
   4   1 -12 590.955 380.066   3
  -4   1  12-150.461 122.566   8
   4   1 -12 1018.69 395.323  12
  -1  -4  12-361.621 389.237   8
  -4   1  12 187.545 213.862  17
   1  -4 -12-33.0303 62.6888   1
  -4  -1  12 247.795 203.060   2
   4  -1 -12 133.897 243.123   3
   4  -1 -12 198.045 250.691  11
   4   1 -12 27.3629 44.4558  19
   1  -4 -12-9.40800 16.1894  14
   4  -1 -12 381.397 279.109  12
  -4  -1  12 170.122 189.890   6
  -1  -4  12-5.91159 92.7430  16
  -4   1  12 14.5229 60.6492   6
  -1   4  12-28.9874 140.872   2
   4   1 -12-12.8118 76.2015  18
  -4  -1  12 637.631 375.375  17
   4   1 -12 88.8596 138.385  11
  -4   1  12 61.2815 102.421   2
   4  -1 -12-39.4372 67.1231   1
  -4  -1  12 122.189 80.3970  14
  -4  -1  12 218.659 194.327   8
  -4  -1  12-67.2489 147.039  16
  -1   4  12-32.2981 112.288  17
  -4  -1  13 4801.39 749.507   8
   4  -1 -13-121.404 42.5012   1
  -1  -4  13 12.5201 102.946  16
  -4   1  13-191.925 140.313   6
  -4  -1  13 1025.91 497.353   6
  -4   1  13 89.5691 267.531   2
  -4  -1  13 6091.99 1106.94  17
  -4  -1  13 1586.41 847.132  16
  -4   1  13 673.577 376.638  17
   1  -4 -13-76.3924 103.748   1
  -4  -1  13 2.03537 164.891  14
   4   1 -13 2181.18 421.097  19
   4   1 -13 1653.04 709.096  11
  -4  -1  13 3096.38 877.471   2
   1  -4 -13-30.0675 43.8242  14
   4  -1 -13-32.2311 62.8463  11
   4  -1 -13-1.94738 34.2461  18
   4   1 -13 145.205 273.681  18
  -4   1  13 217.515 106.166   8
  -1   4  13-99.5485 145.229  17
  -4   1  13 96.5397 123.193  16
  -1   4  13 92.0653 135.275   2
  -1   4  14 187.941 164.107   2
   4  -1 -14-16.7160 222.941  11
  -1  -4  14-16.2869 114.735   2
   4  -1 -14-35.2170 203.615  18
  -4  -1  14 241.056 155.593  17
   4   1 -14 136.102 83.4672  19
  -4   1  14 150.202 141.719  17
  -4   1  14 363.969 285.781  16
  -4  -1  14 387.673 167.365   8
  -4  -1  14 469.468 298.567   2
  -4  -1  14 35.5362 67.9753   6
   1  -4 -14-36.0891 91.0162   1
   4  -1 -14 5.25978 25.2099   1
   1  -4 -14 52.5633 57.9707  14
  -4  -1  14 364.128 272.381  16
  -4   1  14 560.940 359.031   2
  -1  -4  14 213.317 150.157  16
   4   1 -14-147.178 261.649  11
  -4   1  14 186.264 99.7246   8
  -1   4  14-0.20876 126.160  17
  -4   1  15 109.173 192.043  16
  -1  -4  15-67.0487 137.142   2
  -1  -4  15-45.6518 145.051  16
  -4  -1  15 125.041 115.990  17
  -4  -1  15 246.351 229.816   2
  -1   4  15 100.321 162.068   2
   1  -4 -15-19.8373 60.8747   1
  -4  -1  15-360.089 221.328   6
  -4  -1  15 137.695 125.399   8
   4  -1 -15-516.546 338.137  11
   4   1 -15-15.5275 16.5779  19
  -4  -1  15 20.2248 159.259  16
  -4   1  15 78.4913 142.917  17
   4  -1 -15-63.9551 72.1635   1
  -4   1  15 132.438 85.0184   8
  -4   1  15 448.060 323.525   2
  -4  -1  16 87.7603 97.4200  17
   4  -1 -16 25.8980 53.9776   1
  -4   1  16 380.288 145.090   8
  -1   4  16-154.915 269.464  16
  -4  -1  16 562.593 223.132   8
  -1  -4  16 300.681 285.583  16
   4   1 -16 184.361 110.632  19
  -1   4  16 244.579 229.693   2
  -4  -1  16 635.644 344.436   2
  -4   1  16 154.010 220.449  17
  -4  -1  16 715.891 425.186  16
  -1  -4  16 83.7995 34.8281   2
  -4   1  16 717.152 408.128   2
  -4   1  16 418.028 313.896  16
   1  -4 -16-3.59838 74.3899   1
  -1   4  17-322.509 229.426  16
  -4  -1  17 310.234 195.724  17
  -4  -1  17 923.856 512.690  16
  -1   4  17 464.720 312.217   2
   4  -1 -17 25.6438 81.2899   1
  -1  -4  17 151.356 96.8818   2
  -4   1  17 613.560 411.246   2
  -4  -1  17 762.301 286.858   8
  -4   1  17 786.922 210.680   8
  -1  -4  17 338.033 251.723  16
   4   1 -17 167.044 114.581  19
  -4   1  17 168.762 90.0862  17
  -4   1  17 1032.40 542.804  16
  -4  -1  17 1001.88 446.759   2
  -4  -1  18 72.5432 57.1787  17
  -4   1  18 224.114 183.738  17
   4  -1 -18-4.86002 31.0775   1
  -1  -4  18 90.0041 49.7291   2
  -4  -1  18 578.921 262.857   8
  -1  -4  18 394.618 341.441  16
  -4   1  18 614.208 416.034  16
  -4  -1  18 1098.87 552.241  16
  -4   1  18 648.356 434.266   2
  -4   1  18 583.126 212.250   8
  -1   4  18 445.378 353.862   2
  -4  -1  18 642.780 431.299   2
  -4  -1  19-171.050 270.906  17
  -4   1  19 344.796 263.530  17
  -4  -1  19 1399.40 653.830  16
  -1  -4  19 1444.20 603.445  16
  -4  -1  19 2042.52 733.420   2
  -4   1  19 1281.20 607.690  16
  -1   4  19 1002.73 454.298   2
  -4  -1  19 2063.51 429.012   8
  -1   4  19 251.530 106.360  16
  -4   1  19 1434.81 531.409   2
  -1  -4  19 743.504 313.263   2
  -1  -4  20-8.49617 144.045  16
  -4   1  20-60.7832 225.395  17
  -4   1  20 177.555 341.677   2
  -4   1  20 340.987 371.593  16
  -4  -1  20 227.651 211.058   8
  -4  -1  20 154.219 257.154   2
  -4  -1  20 325.959 345.312  16
   2  -4   0 13.5263 54.0024   1
  -2  -4   0 5.32090 108.310   1
   2   4   0 181.193 157.571  19
  -2  -4   0 97.7201 85.2731  14
  -2  -4   0 36.6087 160.302   8
   2   4  -1 1235.23 376.612  19
  -2  -4  -1 332.792 161.469  14
   2  -4   1-13.8509 106.249   1
   2  -4  -1 287.642 173.606   1
   2  -4  -1 489.231 159.988  18
  -2  -4   1 918.982 259.091  14
  -2  -4   1 736.928 256.816   6
   2   4   1 777.303 351.598  19
   2   4  -1 510.653 242.356  12
  -2  -4   1 579.268 275.631   8
  -2  -4   1 462.029 176.125   1
  -2  -4   2 273.272 137.095   1
   2   4  -2 325.518 158.134   4
  -2  -4   2 375.894 165.011  14
   2  -4  -2 385.985 200.537  18
   2  -4  -2 44.5302 114.590   8
  -2   4   2 56.4092 117.638  17
   2   4  -2 427.850 220.097  19
   2   4  -2 117.716 78.4000   3
   2   4  -2 197.870 120.216   5
   2  -4  -2 229.997 103.087  13
   2   4  -2 295.935 171.924  12
  -2  -4   2 290.124 199.651   8
  -2  -4   2 579.162 227.806   6
   2  -4  -2 228.816 155.360   1
   2  -4  -3 1304.91 366.164  18
  -2  -4   3 1056.38 336.725   8
  -2  -4   3 1887.83 392.770   6
   2   4  -3 1237.91 324.563  12
   2   4  -3 1443.27 364.127   4
  -2  -4   3 1127.26 264.152  14
   2  -4  -3 1542.36 312.716  13
   2   4  -3 1271.44 321.318   5
  -2   4   3 658.177 268.149   2
   2  -4  -3 917.858 227.930   8
   2   4  -3 1345.41 361.689  19
  -2   4   3-1.98535 140.599   5
  -2   4   3 533.780 270.028  17
   2   4  -3 699.094 240.128   3
  -2  -4   3 1058.15 249.849   1
   2  -4  -3 830.435 280.997   1
   2  -4  -3-14.1771 71.1601  14
  -2   4   3 309.479 81.3115  19
  -2  -4   4 1811.72 377.851   6
   2  -4  -4-13.2728 56.1230  14
   2  -4  -4 1610.51 330.332  13
   2   4  -4 1508.76 380.143   4
   2  -4  -4 1114.88 318.668   1
   4   2  -4 551.660 281.478   3
   2   4  -4 995.623 283.435  12
   2   4  -4 1259.08 357.375  19
   2  -4  -4 1494.49 269.762   8
  -2   4   4 495.319 197.402   5
  -2   4   4 857.375 367.801  17
  -2   4   4 896.594 248.340  19
  -2  -4   4 1536.09 295.442   1
   2  -4  -4 1320.54 375.915  18
   2   4  -4 1406.03 331.879   5
  -2   4   4 662.120 241.631  16
   4   2  -4 762.204 312.088  12
  -2  -4   4 1158.82 338.305   8
   2   4  -4 993.340 275.066   3
   2  -4  -4 1187.48 242.293   3
  -2   4   4 1170.43 374.441   2
   4  -2  -4 163.024 123.013  13
  -2  -4   4 625.503 269.802  16
  -2  -4   4 1379.93 297.400  14
   2   4  -5 19.6875 66.2522   4
  -4  -2   5 15.8517 39.3452   6
   2  -4  -5 60.3250 88.1216   1
   4   2  -5 29.8013 36.7877   3
   2   4  -5 77.4296 117.967   3
   2   4  -5 52.5117 78.2713   5
   4  -2  -5 6.65438 12.0700  13
  -2  -4   5 102.177 65.5284  16
  -2  -4   5 62.6067 48.0371  14
   2  -4  -5-0.90766 9.05679  14
  -2  -4   5 94.8650 136.721   8
  -2   4   5 73.4971 110.181  19
  -2  -4   5 67.0302 78.9535   6
  -2  -4   5 76.7918 59.3268   1
  -2   4   5-24.6641 70.6733  17
   2  -4  -5 110.580 96.2231   8
   4   2  -5 26.5018 61.3049  12
  -2   4   5-22.7815 49.9956   5
   2   4  -5 33.5004 116.634  19
   2  -4  -5 62.7184 98.5521  18
   4  -2  -5 24.1076 19.6884   3
   2   4  -5 4.77016 17.1137  13
   2   4  -5 70.5900 164.678  12
   2  -4  -5 66.8589 39.0039   3
  -2   4   5 81.0493 124.407   2
  -2   4   5 9.50378 32.7931  16
   2  -4  -6 2031.44 365.508   8
   4  -2  -6 3231.35 572.735  13
  -2   4   6 3583.37 554.939  16
   4  -2  -6 1916.45 458.776  18
   4   2  -6 3687.91 676.569   3
  -2  -4   6 3711.94 670.671  16
  -4  -2   6 2376.25 531.581   6
  -2  -4   6 4357.25 502.382   1
   2  -4  -6 2952.19 516.865   1
   4   2  -6 3554.62 660.322  12
  -2   4   6 1874.09 312.115   4
  -2   4   6 2596.35 483.822   5
  -2  -4   6 4043.79 515.526  14
   2   4  -6 2710.90 512.668  19
   2  -4  -6 4281.22 787.231  11
   2   4  -6 2496.23 479.407   5
  -4   2   6 901.288 252.659   6
  -2   4   6 4117.71 720.829   2
  -2  -4   6 4078.62 631.823   8
  -2  -4   6 4370.15 610.664   6
   4  -2  -6 4248.00 703.539   3
  -2   4   6 2509.54 587.738  17
  -2   4   6 4103.39 548.283  19
   2  -4  -6 3343.35 618.348  18
   2   4  -6 2647.08 540.156   4
   2   4  -6 1182.29 234.853  13
  -2   4   7 230.972 197.863  17
   2   4  -7-59.8259 181.027   5
   4  -2  -7 357.766 204.394   3
   2  -4  -7 251.763 122.736  11
   4   2  -7 75.9185 38.7121  13
   4   2  -7 199.072 139.381   3
  -2   4   7 226.727 122.372  19
  -4   2   7 157.632 112.280   6
  -2   4   7 241.879 112.888   4
  -4   2   7-241.620 408.809   2
   4  -2  -7 294.097 181.735  13
   2   4  -7 170.556 144.685  19
  -4  -2   7 258.578 185.688   6
   4   2  -7 70.7067 116.690   4
  -2  -4   7 230.308 124.674  14
  -4   2   7 25.1190 126.241  17
   2  -4  -7 2.27016 23.5603  14
   2  -4  -7 218.618 147.240  18
  -2  -4   7 296.745 198.197  16
   4  -2  -7 341.723 216.909  18
   2   4  -7-5.43782 155.154   4
  -2  -4   7 61.3474 52.3515   1
   4  -2  -7 130.210 65.7697  12
  -2   4   7 405.542 236.261   2
  -2   4   7 275.367 175.341   5
  -2  -4   7 360.727 182.063   6
  -4  -2   7 25.3243 150.243   8
  -4  -2   7 150.205 104.359  14
  -2  -4   7 351.727 210.765   8
   4   2  -7 209.524 159.817  12
  -2   4   7 327.653 183.807  16
   2  -4  -7 262.226 173.792   1
  -4  -2   8 1469.36 308.369  14
  -4   2   8 1175.26 479.404  17
  -2  -4   8 2044.62 530.021  16
   2  -4  -8 1152.79 326.699   1
  -2  -4   8 1507.62 379.969   6
  -4   2   8 926.547 403.775  16
   4   2  -8 962.812 192.441   5
   4   2  -8 1697.67 462.063   3
  -4   2   8 286.877 116.938   2
  -4  -2   8 1687.15 424.109   6
   2  -4  -8 1162.67 409.106  11
   4  -2  -8 1663.01 415.118  13
   4   2  -8 722.786 227.411  13
  -4   2   8 924.801 246.147   6
  -4  -2   8 789.189 269.797   8
   4   2  -8 1741.69 438.646  12
   4  -2  -8 1906.31 497.627  18
   4  -2  -8 1675.34 388.133  12
  -2  -4   8 1714.15 308.190   2
   4   2  -8 2060.32 399.649   4
   2  -4  -8 1070.68 359.737  18
   4  -2  -8-29.8964 119.781   1
  -2   4   8 1434.42 387.759  16
  -2   4   8 1916.86 523.150   2
  -2   4   8 1513.21 269.460   4
  -2  -4   8 2039.31 465.216   8
  -2  -4   8 1581.83 351.651  14
  -4  -2   8 1807.23 426.848  17
  -2   4   8 1095.55 384.018  17
  -2   4   8 725.289 296.339  19
  -2   4   8 1312.59 353.442   5
  -4  -2   8 886.648 412.765  16
   4   2  -8 773.633 252.579  19
   2   4  -8 810.951 294.269  19
   4  -2  -8 2187.83 487.146   3
   4   2  -8 1426.01 327.455  18
   4   2  -9 237.799 176.337   3
   2  -4  -9 73.9282 35.2206  18
   4   2  -9 227.165 143.303  13
  -2   4   9 254.048 112.206   4
   4   2  -9 283.784 130.771  19
  -4   2   9 344.413 245.830  17
  -2  -4   9 415.747 250.706  16
  -2   4   9 363.907 229.555   2
  -4  -2   9 240.438 169.985   6
   2   4  -9 41.5329 76.2203  19
  -2  -4   9 458.771 176.188   2
   4  -2  -9 256.670 169.808  13
  -4  -2   9 375.041 152.557  14
   2  -4  -9 15.6491 22.0653  14
  -4  -2   9 606.719 242.162  17
  -2  -4   9 395.168 199.743   8
   4  -2  -9 343.721 153.506  12
   4  -2  -9-5.22257 82.7871   1
  -4   2   9 139.815 99.5704   6
   4   2  -9 401.807 183.676   4
   4  -2  -9 380.860 236.438  18
  -2   4   9 260.611 190.273  16
  -4  -2   9 248.992 135.197   8
   4   2  -9 204.190 130.789  12
  -4   2   9 364.503 265.941  16
  -2   4   9 205.786 151.254  17
  -4   2   9 167.331 134.118   2
   2  -4  -9 218.160 138.517  11
   4   2  -9 353.583 176.391  18
  -4  -2   9 304.370 261.479  16
   2  -4  -9 238.198 161.820   1
  -2  -4   9 187.370 148.064   6
   4  -2  -9 421.015 194.834   3
  -2  -4   9 192.861 111.147  14
  -2   4   9 345.566 182.545   5
   2  -4 -10 36.7906 29.1372  14
   4  -2 -10 753.006 333.048  13
  -4  -2  10 728.837 353.021  16
  -4  -2  10 1042.37 273.884  17
  -2  -4  10 385.436 202.545   6
   4   2 -10 397.314 151.580  19
   4   2 -10 356.124 229.688   3
  -4   2  10 576.153 318.399   2
   4  -2 -10-16.9270 83.0664   1
  -2   4  10 436.150 147.990   4
  -2  -4  10 762.877 243.882   2
  -2   4  10 627.760 304.323   2
   2   4 -10 65.5771 115.385  19
   4   2 -10 385.026 155.580   4
   2  -4 -10 349.420 174.719   1
  -4   2  10 170.794 121.982   6
   4  -2 -10 757.334 318.000   3
   4  -2 -10 798.135 244.862  12
  -4  -2  10 655.689 268.364   6
  -2  -4  10 521.961 226.826   8
   4   2 -10 491.587 232.581  12
  -2   4  10 457.832 232.232  16
  -2  -4  10 642.764 346.704  16
   2  -4 -10 193.247 41.9722  11
  -2  -4  10 300.329 175.061  14
   4   2 -10 664.554 238.685  18
   4   2 -10 374.509 162.068  13
  -4  -2  10 295.973 133.008   8
  -2   4  10 433.685 202.536   5
  -4   2  10 658.298 346.513  17
   4  -2 -10 609.656 309.505  18
  -4  -2  10 737.262 182.170  14
  -4   2  10 468.528 323.746  16
  -2   4  10 268.382 192.218  17
   2  -4 -10 40.0439 144.647  18
  -2   4  11 754.342 255.124   5
  -4   2  11 939.313 342.815  17
   4  -2 -11-25.8184 82.3904   1
   4  -2 -11 831.094 240.057  12
   2  -4 -11 311.496 193.840   1
   4  -2 -11 902.810 334.960   3
  -2  -4  11 1025.45 262.461   2
  -4  -2  11 866.919 188.030  14
  -2  -4  11 120.616 89.5865  14
   4   2 -11 1304.97 411.730  11
  -2  -4  11 874.703 296.226   8
  -4   2  11 637.172 355.435  16
  -2  -4  11 773.810 324.505  16
  -2   4  11 522.357 285.883  17
   4   2 -11 938.541 339.105  12
  -4  -2  11 112.470 202.664   2
   4   2 -11 659.952 317.157   3
   2   4 -11-65.0868 138.553  19
   4   2 -11 455.229 177.865  19
   4   2 -11 813.197 308.102  13
   4  -2 -11 1649.64 616.669  11
   2  -4 -11 51.3712 42.6782  14
  -4   2  11 739.408 385.892   2
   4   2 -11 655.268 224.571  18
  -4  -2  11 751.895 273.234   6
  -2  -4  11 377.606 191.119   6
  -2   4  11 829.530 349.753   2
  -4  -2  11 692.692 237.037   8
  -2   4  11 601.235 268.088  16
  -4   2  11 48.0757 30.3920   6
  -4  -2  11 746.058 362.485  16
  -2   4  11 333.784 94.8324   4
   4  -2 -11 824.927 329.939  18
  -4  -2  11 1029.63 264.450  17
  -2  -4  12 164.707 251.249   8
   4  -2 -12 106.899 354.205   3
   4   2 -12 180.843 326.657  18
   4   2 -12 6932.27 685.074  19
  -4   2  12-191.774 99.0336  16
   4  -2 -12 319.841 377.072  11
  -2   4  12 24.5945 108.139  16
   4  -2 -12 125.679 294.229  12
  -4   2  12-92.6457 278.945   2
  -4  -2  12 275.126 1134.36  17
  -4   2  12-102.698 179.185   6
   4   2 -12 18062.7 1400.06  13
   4   2 -12 17628.3 1474.53   3
  -4  -2  12 552.576 579.573  14
  -2   4  12-55.6265 100.588  17
  -4  -2  12 165.742 989.650   8
  -4   2  12 177.452 597.043  17
   2   4 -12-149.366 191.213  19
  -4  -2  12 543.319 1371.55   2
   4  -2 -12-6.56083 48.1634  18
  -2   4  12 36.5329 112.057   5
   4   2 -12 16814.1 1368.00  12
  -2   4  12 123.012 242.607   2
   4   2 -12 216.076 631.218  11
  -4  -2  12 1653.06 1000.33   6
  -2  -4  12 244.229 191.672   2
   2  -4 -12 51.2325 121.545   1
   4  -2 -12 148.379 277.152   1
  -2  -4  12 66.2868 175.326  16
  -4  -2  12 285.131 823.526  16
   2  -4 -12 28.0875 37.2726  14
  -2  -4  13 377.925 261.051  16
  -2  -4  13 313.205 201.741   8
  -4  -2  13 1542.35 510.637   2
   4  -2 -13-60.7853 104.957   1
  -2   4  13 194.987 161.301  16
  -2  -4  13 628.333 220.160   2
   2  -4 -13 39.4435 36.7532  14
   2  -4 -13 143.880 133.532   1
  -2   4  13 108.888 28.6858  17
  -4  -2  13 1620.64 403.060   8
   4   2 -13 320.379 256.166  11
  -2   4  13 348.120 184.977   5
  -4  -2  13 753.650 440.346  16
   4   2 -13 1059.40 272.581  19
   2   4 -13-265.606 252.758  19
  -4  -2  13 1339.40 379.561  17
   4  -2 -13 296.555 113.967  11
  -4   2  13 564.122 304.994  17
  -4  -2  13 166.264 130.042  14
  -4   2  13 386.707 280.552   2
   4  -2 -13 200.285 101.457  18
  -4   2  13 243.270 197.874  16
  -4  -2  13 300.601 242.913   6
  -2   4  13 466.246 286.360   2
  -2  -4  14 140.076 201.359  16
  -2   4  14 17.0632 95.4715   5
  -4  -2  14 41.0143 60.3244   2
  -4  -2  14-44.4956 104.276  14
   2   4 -14-270.405 291.706  19
  -2   4  14 25.1877 81.7165  16
  -4   2  14-79.0809 30.3181  16
  -4   2  14-86.1066 188.605  17
  -2   4  14-45.4347 116.552   2
  -4  -2  14 75.9484 144.560  16
  -4  -2  14 34.1230 87.8160   8
   4  -2 -14-96.1679 240.027  18
   2  -4 -14 8.11685 35.2953   1
  -4  -2  14 6.54584 10.3517   6
  -2  -4  14 89.8060 129.951   8
  -4   2  14 83.9237 216.996   2
  -2   4  14 40.1470 91.2279  17
   2  -4 -14 15.9004 32.2798  14
   4   2 -14-50.9071 58.6797  19
  -2  -4  14 79.6282 78.2270   2
   4  -2 -14 14.0414 44.9939   1
  -4  -2  14-111.301 147.960  17
   4  -2 -14-2.76250 35.1474  11
  -4   2  15 545.008 354.091  16
   4  -2 -15 80.0867 200.328  11
  -4   2  15 195.442 91.0763   8
  -2  -4  15 417.745 312.514  16
  -4  -2  15 26.3094 33.8529   6
  -4  -2  15 219.500 114.102  17
   2  -4 -15 51.1773 36.5486  14
   4   2 -15 243.065 148.622  19
  -2  -4  15 717.989 261.536   2
   4  -2 -15 75.2756 79.9787   1
  -2   4  15 501.206 302.724   2
  -2   4  15 171.847 181.790  17
   4  -2 -15-84.6807 287.577  18
   2  -4 -15 63.5899 81.7239   1
  -2  -4  15 429.143 320.372   8
  -4  -2  15 729.086 333.342   2
  -4  -2  15 862.861 486.835  16
  -2   4  15 248.485 206.164  16
  -4  -2  15 742.675 261.532   8
  -4   2  15 624.228 356.485   2
  -4   2  15 355.056 242.468  17
  -2   4  15 440.420 203.255   5
  -2   4  16 71.5798 71.3296  17
  -2  -4  16 106.388 105.012   2
  -4   2  16-3.47906 69.1772  17
  -2  -4  16 328.248 295.137  16
  -2   4  16 105.199 109.392   2
   2  -4 -16-38.2126 51.0799   1
   4  -2 -16 36.8906 49.9759   1
  -4  -2  16 44.2732 209.534  16
  -4  -2  16 386.013 329.233   2
  -2   4  16 108.170 115.827   5
  -4  -2  16-44.4536 98.1402  17
  -2  -4  16 190.873 214.661   8
  -4   2  16 132.237 256.408   2
  -4  -2  16-390.421 244.933   6
  -4   2  16 212.329 284.461  16
  -4   2  16 105.594 63.9949   8
  -2   4  16 138.693 209.438  16
  -4  -2  16 272.138 171.130   8
   2  -4 -16 2.98720 6.28013  14
   4   2 -16 93.3015 85.3667  19
  -2   4  17 322.335 253.322  16
  -4   2  17 959.311 495.220  16
  -4  -2  17 1197.68 555.656  16
  -4   2  17 568.353 160.561   8
  -4   2  17 1063.26 464.186   2
   4   2 -17 289.865 165.992  19
  -2   4  17 755.545 394.037   2
  -2   4  17 85.1089 125.036  17
  -2  -4  17 1136.13 525.060  16
  -4  -2  17 93.9122 82.0120  17
   2  -4 -17 114.004 115.792   1
  -2  -4  17 613.514 327.534   8
  -2  -4  17 906.410 314.567   2
  -4   2  17 143.806 285.585  17
  -4  -2  17 1764.54 567.977   2
   4  -2 -17-42.8467 32.3624   1
  -4  -2  17 841.542 307.977   8
  -2   4  17 586.892 241.967   5
   4  -2 -18 89.6174 82.1857   1
  -2   4  18 335.062 149.814  17
  -4  -2  18 1951.36 706.485  16
  -4   2  18 816.603 376.809  17
  -4   2  18 1554.28 603.284  16
  -2   4  18 1264.99 502.056  16
  -4  -2  18 2093.04 497.185   8
  -4   2  18 1961.24 658.950   2
  -4  -2  18 2958.97 719.348   2
  -2   4  18 1201.80 331.549   5
  -2  -4  18 1273.71 470.745   8
  -2   4  18 1753.28 586.238   2
  -2  -4  18 1735.84 467.691   2
   2  -4 -18 73.8294 108.747   1
   4   2 -18 306.882 172.638  19
  -2  -4  18 1845.25 651.308  16
  -4  -2  19 984.799 346.409   8
  -4   2  19 391.497 330.348  16
  -2   4  19 135.015 73.6912   5
  -4   2  19 21.0510 65.5370  17
  -2  -4  19 609.772 338.843   2
   2  -4 -19 112.029 107.808   1
  -4   2  19 336.657 330.885   2
  -2   4  19 144.288 97.6397   2
  -4  -2  19 1008.06 464.766   2
  -2  -4  19 624.907 403.569  16
  -4  -2  19 798.872 522.952  16
  -2   4  19 359.773 289.013  16
  -2  -4  19 374.795 313.199   8
  -2   4  20 762.609 270.652   5
  -2  -4  20 1501.17 442.867   2
  -4  -2  20 1833.57 428.383   8
  -4  -2  20 1857.54 715.743  16
  -2  -4  20 1054.13 388.749   8
  -4   2  20 1649.72 680.010  16
  -2  -4  20 1679.09 676.085  16
  -4   2  20 2194.49 707.430   2
  -2   4  20 1066.82 469.692  16
   2  -4 -20 60.2229 91.3555   1
  -4  -2  20 1706.34 543.985   2
  -4   2  20 193.521 293.952  17
   3   4  -1 61.3671 83.6437  19
  -3  -4   2 321.466 124.497   6
   3  -4  -2-31.0658 131.498   1
   3   4  -2 756.810 318.200  12
  -3  -4   2 636.344 243.242  14
   3   4  -2 1235.05 428.142  19
  -3  -4   2 224.634 51.7411   8
   3   4  -3 57.3312 118.272  19
   3  -4  -3 17.4145 91.7371  13
  -3  -4   3 10.1425 91.6481   8
  -3  -4   3 26.8652 22.0019   6
   3  -4  -3 37.6027 74.5270   1
   3   4  -3 121.859 68.9477  12
  -3  -4   3 84.9515 97.4558  14
   3  -4  -3-61.2005 171.672  18
   3   4  -3 43.4075 35.0422   3
   3   4  -4 488.204 210.269   3
   3   4  -4 696.966 255.217   4
  -3  -4   4 753.004 242.964  14
   3   4  -4 794.443 294.746  19
   4   3  -4 272.495 167.536   3
   3  -4  -4 478.624 253.154   1
   4  -3  -4 140.465 140.900  13
  -3  -4   4 949.293 325.823   6
   3   4  -4 695.916 283.004  12
  -3  -4   4 386.695 148.004   1
   3  -4  -4 1003.21 300.374  13
  -4  -3   4 253.204 132.478   6
  -3   4   4 157.995 244.957  17
   4   3  -4 638.750 304.401  12
   3   4  -4 531.968 175.412   5
  -3  -4   4 503.761 249.935   8
   3  -4  -4 1364.50 426.207  18
   3  -4  -5 1298.57 224.970   8
   3  -4  -5 2473.87 566.745  18
   3   4  -5 3241.59 593.675   4
   3   4  -5 2494.10 458.805   5
   3   4  -5 2452.74 514.330  19
  -3   4   5 929.667 330.469   2
  -3  -4   5 1970.11 508.345   8
   3  -4  -5 3310.37 533.251  13
  -4  -3   5 513.924 165.517  14
   4   3  -5 2134.01 547.145  12
   4  -3  -5 981.922 292.465  18
   3   4  -5 2221.95 483.237   3
  -3  -4   5 2791.03 461.425  14
  -3  -4   5 3455.63 603.004   6
   4  -3  -5 2006.77 447.505  13
   3  -4  -5 1747.73 406.930   3
  -4  -3   5 1487.39 447.620   6
   3  -4  -5 1171.39 349.761   1
  -3   4   5 790.454 394.445  17
   3   4  -5 2128.12 479.829  12
   4   3  -5 1885.52 504.423   3
  -3  -4   5 1995.43 345.929   1
   3  -4  -6 0.45863 22.4450   3
  -3  -4   6 31.4346 94.4906  14
   4  -3  -6-29.2287 121.819   3
   4   3  -6-29.2141 72.2344   3
   3   4  -6-92.1741 91.4186  13
   3   4  -6 20.7213 54.9520  12
   4  -3  -6-13.3102 71.4726  18
   4   3  -6-15.6217 121.695  19
  -3   4   6 57.1871 107.433  17
   4   3  -6-7.43604 73.9258  12
   3  -4  -6 21.4720 65.0890   8
  -3  -4   6-5.18288 55.3115   1
   3  -4  -6 57.4845 141.718  18
  -3  -4   6-53.6053 94.5094  16
   3   4  -6-3.40436 49.3990   3
   3   4  -6 45.1997 114.028   4
  -3   4   6-30.5648 66.2897   2
   4  -3  -6-6.30346 16.8071  13
   3  -4  -6-11.6729 76.9720  13
  -3   4   6-7.25322 89.2077  16
   3   4  -6 14.0229 50.1262   5
  -3   4   6 27.4781 76.0873  19
  -4  -3   6-6.93898 76.7603   6
   3   4  -6 21.4625 84.4643  19
  -3  -4   6 7.05878 70.3014   6
  -3  -4   6-3.77933 24.1879   8
  -4   3   6 109.258 240.907  17
   3  -4  -6 0.66672 16.4323   1
  -4  -3   6 17.9770 43.4101  14
  -4   3   6-14.8024 51.8991   6
  -3  -4   7 3703.31 646.473   8
  -3  -4   7 5708.74 528.519   1
  -4  -3   7 4400.60 718.047   6
   3  -4  -7 4321.75 759.548  18
   3   4  -7 470.887 160.890  13
  -4  -3   7 3487.24 532.092  14
  -3  -4   7 5377.15 745.508   6
   3   4  -7 4298.90 690.616   4
   4  -3  -7 5412.45 773.222   3
  -3  -4   7 3454.04 763.927  16
   3   4  -7 2775.57 551.742  12
  -3   4   7 3723.88 761.306   2
   4   3  -7 3837.09 700.044   3
   3  -4  -7 1653.71 322.715  12
   4   3  -7 303.041 156.838  13
   4   3  -7 2546.60 539.488  19
   4   3  -7 4520.28 683.817   4
  -3   4   7 2844.65 642.278  17
  -4   3   7 567.504 119.978   2
   4   3  -7 3506.30 652.447  12
  -3   4   7 2941.36 640.683  16
   4  -3  -7 4502.84 697.621  13
   4  -3  -7 4032.78 751.540  18
   3  -4  -7 4701.27 672.493  13
   3   4  -7 4630.00 621.350   5
   3   4  -7 3552.63 606.849  19
  -3  -4   7 4640.00 571.612  14
  -4   3   7 1516.89 275.372   6
  -4   3   7 1351.64 473.874  17
   3  -4  -7 5578.85 641.694   3
  -4  -3   7 1864.46 506.840   8
   3  -4  -7 2431.02 498.811   1
   3   4  -7 2947.72 571.248   3
  -3   4   7 4089.52 500.381  19
   3  -4  -7 3262.11 367.879   8
  -4   3   8 294.711 126.510   6
   4  -3  -8 694.676 264.948  13
   3   4  -8 1035.13 266.495  11
   3  -4  -8 375.478 192.086   1
  -4   3   8 763.367 356.058  17
  -3  -4   8 764.464 288.342   8
   3   4  -8 165.598 101.523  13
  -3  -4   8 677.660 186.481   1
   3  -4  -8 833.639 186.022  12
  -4  -3   8 829.445 316.883   6
  -3   4   8 746.590 223.295  19
  -4  -3   8 439.960 119.110   1
  -3   4   8 736.636 313.604  16
   4  -3  -8 738.654 330.250  18
  -3   4   8 135.058 64.1714   5
   3   4  -8 548.804 219.392   5
   3   4  -8 544.655 270.301   3
  -4   3   8 274.513 215.486  16
   4   3  -8 130.374 72.7141  13
  -4   3   8 352.522 161.730   2
   3  -4  -8 971.469 270.300   3
   4  -3  -8-27.1436 73.2546   1
   4   3  -8 969.016 309.506   4
   4  -3  -8 1054.96 331.780   3
   4   3  -8 510.633 218.060  19
  -4  -3   8 364.489 170.293   8
  -3   4   8 826.882 366.904   2
   3   4  -8 521.263 271.623  12
   4  -3  -8 672.800 238.688  12
   4   3  -8 713.205 282.515  12
   3  -4  -8 1362.36 558.524  11
   3   4  -8 538.647 267.630   4
   4   3  -8 894.406 236.452   5
   3   4  -8 591.900 252.136  19
  -3  -4   8 943.275 259.425  14
   4   3  -8 605.477 180.557  18
  -3  -4   8 1119.99 337.244   6
  -4  -3   8 777.559 241.042  14
   3  -4  -8 774.669 324.856  18
  -3  -4   8 655.319 323.567  16
  -3   4   8 506.865 275.851  17
   4   3  -8 558.867 249.325   3
  -4  -3   8 432.455 275.286  16
   4  -3  -9 1716.11 511.512  18
   4   3  -9 1187.71 361.723  12
   3  -4  -9 1908.36 396.165   3
  -4   3   9 1160.29 455.546  16
  -4  -3   9 1844.21 463.677   6
  -4  -3   9 1567.53 336.233  14
  -3  -4   9 1827.84 548.396  16
   4  -3  -9 1600.94 425.739  13
  -4   3   9 883.725 364.254   2
  -3   4   9 852.222 273.697  19
   3   4  -9 901.748 358.949  12
  -4   3   9 221.839 117.728   6
   4   3  -9 1725.36 424.936   4
  -4  -3   9 1020.40 432.313  16
  -3   4   9 1725.77 536.102   2
   4   3  -9 1273.30 395.456   3
  -3   4   9 669.607 249.505   5
  -3   4   9 1000.40 378.928  17
  -4  -3   9 1078.81 341.969   8
   4   3  -9 545.914 208.502  13
   4  -3  -9 1987.45 457.467   3
   4   3  -9 1128.10 321.282  19
   3   4  -9 925.995 223.742  11
   3  -4  -9 1646.13 264.438  12
  -3  -4   9 1730.29 363.173  14
  -4  -3   9 3033.38 446.097  17
   3   4  -9 979.032 377.302   3
  -3  -4   9 1915.22 460.245   6
   4   3  -9 1900.27 342.584  18
   4  -3  -9 6.94479 55.9608   1
  -3  -4   9 243.905 71.3927  17
   4   3  -9 1807.32 325.573   5
   4  -3  -9 1584.48 349.184  12
   3   4  -9 1225.29 336.986  19
   3   4  -9 401.195 176.096   4
  -3  -4   9 1583.32 423.113   8
   3  -4  -9 1310.06 438.979  18
   3  -4  -9 2003.83 623.383  11
  -3   4   9 1541.30 445.397  16
   3   4  -9 651.006 216.788  13
   3  -4  -9 1089.42 338.299   1
  -4   3   9 974.038 414.587  17
  -3  -4  10 121.949 68.2887  16
  -3  -4  10-114.139 277.083   2
  -3   4  10 202.914 209.027   2
   4  -3 -10 109.012 97.4345   3
  -4   3  10 68.3685 137.628  16
   3   4 -10 10.0312 48.5963  19
   4   3 -10 216.766 186.590   3
   4   3 -10-6.08452 83.7157  19
   4  -3 -10 229.350 249.430  13
   3  -4 -10 63.7032 111.298   1
  -4   3  10 196.097 216.766  17
  -3  -4  10 85.1138 93.7303  14
  -4  -3  10 174.417 110.039  14
  -3  -4  10 103.604 98.2774   6
   4   3 -10-62.4877 117.717   5
   3  -4 -10 11.9917 41.1303  18
  -4   3  10 44.0750 153.136   2
   4   3 -10 13.9505 102.152  12
  -4  -3  10 194.886 205.552   6
   4  -3 -10 14.5098 39.5143   1
   4   3 -10 65.8390 95.6712  13
  -4  -3  10 54.1886 4.79566  17
  -3   4  10 100.341 138.146  16
   4   3 -10 66.4685 56.5809  18
  -3   4  10 33.2370 62.2230   5
   3  -4 -10 77.1395 105.711  11
  -4  -3  10 280.638 280.934  16
  -4   3  10-0.36624 51.2069   6
   4  -3 -10 74.5670 53.9859  12
  -4  -3  10 8.59109 64.5282   8
  -3  -4  10 159.873 140.498   8
   4  -3 -10 78.9414 96.8753  18
   4   3 -10 70.3416 31.0487   4
  -3   4  10 97.8150 113.833  17
  -4   3  11-61.5473 112.016   6
  -4  -3  11 221.187 176.327  16
   4   3 -11 872.345 363.917  13
  -4   3  11-13.9969 158.520  17
   4  -3 -11 226.347 171.628   3
   4   3 -11 60.1797 58.0718  18
  -4   3  11 167.507 180.880  16
  -3   4  11 259.157 205.197  16
  -3  -4  11 121.983 99.7323  16
  -3  -4  11 74.7343 57.2819  14
  -3  -4  11 115.700 93.2878   6
   3   4 -11 51.2555 151.266  19
  -4  -3  11 124.480 54.1569  14
  -4  -3  11 108.388 101.217  17
  -3  -4  11 195.791 151.860   2
   4   3 -11 1240.17 442.851  12
   4   3 -11 337.804 199.783  19
   3  -4 -11 81.7614 101.185   1
   4  -3 -11 125.300 81.3040  12
  -3   4  11 310.690 261.473   2
   4   3 -11 157.707 132.361  11
   3  -4 -11 40.5238 128.587  11
  -4  -3  11 91.9752 91.9022   6
   4   3 -11 1006.59 428.381   3
  -4  -3  11 164.779 127.822   8
   4  -3 -11-0.72374 73.6188   1
  -3  -4  11 132.035 167.033   8
   4  -3 -11 140.615 155.673  18
  -4   3  11 157.137 216.691   2
  -3   4  11 83.5040 94.0287   5
  -3   4  11-9.74207 118.374  17
   3  -4 -11 83.2643 95.1942  18
   4  -3 -11 582.437 418.258  11
  -4  -3  12 2498.84 902.312  16
  -4  -3  12 1167.16 472.252  14
  -3  -4  12 1783.50 512.120   8
   4  -3 -12 792.604 447.392  11
   4  -3 -12 493.624 286.402  18
  -4   3  12 1421.86 699.265   2
  -3   4  12 839.787 503.769   2
  -4   3  12 1864.00 639.796  16
  -4   3  12 3116.39 879.553  17
   4  -3 -12 870.176 437.032   3
  -4  -3  12 4369.97 993.294   2
  -4  -3  12 3254.26 645.971   6
  -3   4  12 924.183 412.286  16
   3  -4 -12 264.187 186.371   1
  -3  -4  12 2902.30 849.521  16
  -3   4  12 474.497 236.412   5
  -4  -3  12 10384.6 1165.52   8
  -3  -4  12 726.927 296.414  14
   4  -3 -12 1047.08 411.758  12
   3   4 -12 1877.69 485.544  19
   4  -3 -12 117.782 210.675   1
   4   3 -12 1966.65 666.364  11
  -4  -3  12 3283.10 743.303  17
  -3  -4  12 1202.69 457.897   2
  -3   4  12 254.491 88.1192   4
   4   3 -12 4041.59 968.502   3
   4   3 -12 6387.42 1072.79  13
  -3  -4  12 599.385 352.624   6
   4   3 -12 10615.8 1018.28  19
  -3   4  12 858.656 461.668  17
   4   3 -12 8289.14 1209.03  12
   3  -4 -12 56.1502 197.829  18
   3  -4 -12 269.624 139.382  11
  -4   3  13-53.6655 194.229  17
  -3   4  13-5.14424 127.848  17
  -4  -3  13-59.2012 88.8877  17
  -4  -3  13-20.7964 75.5226   6
  -4  -3  13-23.0872 51.8359  14
  -4   3  13 41.7363 17.6101  16
  -3   4  13-38.4181 80.0761  16
  -4   3  13 106.524 92.1760   2
   4   3 -13-122.591 118.296  19
  -4  -3  13-78.1975 129.885   8
  -3  -4  13 57.7208 152.516   8
   3   4 -13 71.9258 123.876  19
   3  -4 -13 37.1724 102.225   1
   4  -3 -13 225.604 195.081  12
  -3  -4  13 4.10859 24.6609  14
   4  -3 -13-29.4998 97.3339  18
  -3   4  13 140.250 157.215   2
   4  -3 -13-159.186 235.314  11
   3  -4 -13-425.605 308.742  11
  -3   4  13-4.41850 31.8803   5
  -3   4  13 47.5384 50.5548   4
  -3  -4  13 149.497 221.538  16
   4  -3 -13-11.3477 67.7511   1
  -4  -3  13 139.878 208.780  16
  -4  -3  13-27.7110 113.633   2
  -3  -4  13 184.788 157.889   2
  -3  -4  13-153.082 145.517   6
  -3  -4  14-6.02480 148.499   6
  -4   3  14 58.5857 117.200  17
  -4  -3  14 419.473 228.861   2
  -4  -3  14 114.260 56.6225  17
   4   3 -14 107.621 110.218  19
  -4   3  14 273.236 235.525  16
  -4  -3  14 68.2461 52.1858  14
   4  -3 -14 324.460 281.390  11
  -3   4  14 289.877 244.453  16
  -3  -4  14 578.305 296.642   8
  -3   4  14 224.107 89.5656   4
  -4   3  14 539.192 362.331   2
  -3   4  14 255.385 167.356   5
  -4  -3  14 508.433 257.659   8
  -3  -4  14 759.209 308.569   2
  -3   4  14 270.719 246.111   2
  -4  -3  14 119.814 153.018   6
   4  -3 -14 52.2191 56.2755   1
  -3  -4  14 537.702 338.591  16
  -3   4  14 57.0987 100.838  17
   3   4 -14 172.253 168.160  19
  -4  -3  14 211.085 175.254  16
  -3  -4  14-84.2735 199.717  14
   3  -4 -14 104.663 88.6863   1
   4  -3 -14 79.2777 87.5792  18
  -4   3  15-183.934 209.606   5
  -3   4  15 135.317 149.638   5
  -3  -4  15 94.0315 190.830   2
  -4  -3  15 136.797 161.240  16
   3   4 -15 125.920 141.300  19
  -4   3  15 104.435 192.452  16
  -3   4  15 34.0823 136.481  16
  -3  -4  15 41.8986 151.682   8
  -3   4  15 31.4686 47.1801   4
   4   3 -15-9.98649 7.56366  19
  -4   3  15 70.7749 240.151   2
   3  -4 -15-9.88018 29.8344   1
  -3  -4  15 19.4210 144.816  16
  -3   4  15-12.9037 158.495   2
  -4  -3  15-65.6982 110.700  17
   4  -3 -15 14.1472 72.6532   1
  -4  -3  15-142.319 175.830  14
  -4  -3  15 200.006 194.548   8
  -4  -3  15-169.431 161.058   6
  -4  -3  15 304.562 250.171   2
  -4   3  15-20.2171 59.6360  17
   4  -3 -15-277.197 340.511  11
  -3   4  15-143.253 210.636  17
  -4   3  16-130.261 160.999  17
  -4   3  16 214.132 304.493   2
  -3   4  16 91.4782 136.137   5
   4  -3 -16-46.5630 88.1458   1
  -3  -4  16 205.340 293.964  16
  -4  -3  16 103.589 182.315  16
  -3   4  16-140.965 203.510  17
   4   3 -16-39.6575 74.8866  19
  -3   4  16-43.9401 77.7473   2
  -4  -3  16 210.668 211.628   8
  -4  -3  16-226.247 191.554   6
   3  -4 -16-31.1341 8.58215   1
  -4   3  16-123.350 166.283   5
  -4  -3  16 456.421 330.917   2
  -3   4  16 77.4705 52.8506   4
  -3   4  16 25.4625 105.606  16
   3   4 -16 59.9840 101.469  19
  -3  -4  16 491.957 269.982   8
  -3  -4  16 358.432 268.980   2
  -4   3  16 88.8050 200.358  16
  -3   4  17 624.913 365.277  17
   4   3 -17 188.346 149.214  19
   4  -3 -17 22.7872 117.647   1
  -3  -4  17 1632.71 596.416  16
   3  -4 -17 178.400 158.918   1
  -4   3  17 1148.45 538.887   2
  -3   4  17 1389.54 576.826   2
   3   4 -17 163.809 188.197  19
  -4  -3  17 1351.38 627.734  16
  -4   3  17 1125.75 545.901  16
  -3   4  17 1186.18 323.838   5
  -4  -3  17 1596.63 576.716   2
  -3  -4  17 1461.56 425.554   2
  -4   3  17 471.154 165.325   5
  -3  -4  17 1126.07 409.720   8
  -4  -3  17 1328.87 404.282   8
  -3   4  17 932.274 428.797  16
  -3   4  17 493.853 137.341   4
  -4   3  17 532.436 328.534  17
  -4   3  18 123.465 212.467  17
  -3  -4  18 848.630 495.858  16
   4  -3 -18 76.7874 139.743   1
  -3   4  18 249.695 252.108  16
  -4   3  18 339.745 141.634   5
  -3   4  18 236.253 269.580  17
  -3   4  18 737.126 344.582   2
  -3   4  18 505.960 228.969   5
  -4  -3  18 570.735 415.359  16
  -4  -3  18 1022.71 350.977   8
  -4   3  18 539.085 401.844  16
  -3  -4  18 875.356 401.008   2
   3  -4 -18 61.6393 86.7771   1
  -3  -4  18 673.652 340.837   8
   3   4 -18 76.1232 85.8833  19
  -4  -3  18 872.847 404.492   2
   4   3 -18 13.1216 28.3075  19
  -4   3  18 502.475 327.437   2
  -4   3  19 2463.01 733.822   2
  -4  -3  19 2633.53 557.116   8
  -4   3  19 1077.84 493.938  17
   4  -3 -19 100.476 84.0280   1
  -4  -3  19 2650.51 717.787   2
   3  -4 -19 179.062 160.833   1
  -3   4  19 1677.10 399.173   5
  -4  -3  19 2115.43 760.260  16
  -4   3  19 1977.39 706.469  16
  -3   4  19 2306.82 733.918   2
  -3   4  19 794.304 421.120  17
  -3  -4  19 1960.61 683.461  16
  -3  -4  19 3214.79 698.422   2
  -3   4  19 1432.34 591.255  16
  -3  -4  19 1965.64 548.144   8
   3   4 -19 87.4548 87.0285  19
   4  -4  -4 15.0860 180.627  13
  -4  -4   4 165.964 122.836   6
  -4  -4   4 14.5808 71.3820  14
   4   4  -4 138.856 73.8412  19
   4   4  -4 76.1035 69.4756   3
   4   4  -4 294.074 254.923  12
   4   4  -5-24.8793 96.1457   3
   4  -4  -5-4.77302 89.1432  13
   4  -4  -5-75.8172 188.590  18
  -4  -4   5 54.0582 106.059   6
   4   4  -5-19.9909 98.7237  19
  -4  -4   5-28.0908 103.253  14
   4  -4  -5-218.694 174.393   1
   4   4  -5 11.9598 90.9802  12
  -4  -4   6 2476.25 583.960   6
   4   4  -6 1830.73 493.918  19
  -4  -4   6 1870.49 428.077  14
  -4   4   6 354.966 123.397   6
   4   4  -6 2037.53 525.481   3
   4   4  -6 2530.83 550.195   4
  -4  -4   6 1058.41 414.389   8
   4  -4  -6 86.0940 120.529   1
   4   4  -6 2158.64 558.707  12
  -4   4   6 223.380 287.025  17
   4  -4  -6 2345.06 591.175  18
   4  -4  -6 1458.94 446.238   3
   4   4  -6 1553.50 357.522   5
   4  -4  -6 2953.61 582.171  13
  -4  -4   7 22.9718 37.3411   1
   4  -4  -7-28.5536 105.547   1
  -4   4   7 11.1558 39.9750   6
  -4   4   7 52.6376 235.577  17
  -4  -4   7-6.00556 37.7183   6
   4   4  -7-26.6021 93.3209  19
  -4  -4   7 42.9505 57.1778  14
   4   4  -7-28.7951 66.6648   3
  -4  -4   7-22.7589 128.718   8
  -4   4   7-310.002 408.119   2
   4   4  -7 6.31990 28.2060   5
   4  -4  -7 21.0565 112.995  18
   4   4  -7-13.1447 62.1460  12
   4  -4  -7-29.2625 126.607   3
   4  -4  -7 14.5609 63.9820  13
   4   4  -7-20.2524 13.8919   4
  -4   4   8 303.044 116.407   6
   4   4  -8 3127.94 627.099   4
  -4   4   8 1418.29 470.074   2
   4  -4  -8 2891.86 665.479  18
   4   4  -8 2218.58 502.196  12
  -4  -4   8 2979.60 489.887  14
   4  -4  -8 3604.53 613.951   3
  -4   4   8 1055.42 439.190  16
  -4  -4   8 2805.71 365.824   1
   4   4  -8 2872.51 489.296   5
   4   4  -8 2009.20 470.021  19
   4   4  -8 2166.64 541.138   3
  -4  -4   8 3354.65 660.671   6
  -4  -4   8 1734.06 492.821   8
   4  -4  -8 467.883 237.517   1
  -4   4   8 1608.20 298.276  19
   4   4  -8 1865.61 288.055  18
   4  -4  -8 3175.56 580.195  13
  -4   4   8 1436.24 543.935  17
  -4  -4   9-61.6466 77.3213   8
  -4  -4   9 34.5283 80.3853   1
   4  -4  -9-16.7894 36.8810   3
   4   4  -9 14.3586 52.4994  18
  -4  -4   9 12.5008 59.1905  16
   4   4  -9 0.93979 77.8045   3
   4  -4  -9 62.0303 188.388  13
   4   4  -9-3.14125 76.8596  19
   4  -4  -9 103.799 178.439  18
  -4  -4   9-40.1330 120.693   6
   4   4  -9 61.2895 87.5931   4
   4   4  -9 51.8829 112.586  12
  -4   4   9-18.3155 31.0068   6
   4   4  -9 6.40392 91.9314   5
   4   4  -9-54.9924 91.6899  13
   4  -4  -9-11.9969 105.941  12
  -4  -4   9 107.964 134.638  17
  -4   4   9-0.18725 75.2184  16
  -4   4   9 98.2330 179.106   2
   4  -4  -9-13.4867 27.9733   1
  -4   4   9-36.1463 46.1631  19
  -4   4   9 24.1310 151.475  17
  -4  -4   9 23.4991 83.0626  14
  -4  -4  10 1129.92 373.223   6
  -4   4  10 935.044 426.369  16
   4   4 -10 395.290 218.479  13
   4   4 -10 544.108 243.830  19
   4   4 -10 1561.40 423.245  11
  -4   4  10 551.643 288.163  17
   4   4 -10 643.930 289.081   3
  -4  -4  10 824.690 401.962  16
   4   4 -10 452.425 246.136  12
   4  -4 -10 2383.30 815.756  11
  -4  -4  10 81.9885 37.3843   1
  -4   4  10 819.902 359.882   2
  -4  -4  10 1294.60 313.751  14
   4   4 -10 863.625 308.627   4
   4  -4 -10 1236.01 406.058  13
   4  -4 -10 187.218 140.289   1
  -4  -4  10 814.303 309.468   8
   4   4 -10 532.792 198.231   5
  -4   4  10 459.897 153.725  19
   4  -4 -10 998.700 404.484  18
   4  -4 -10 1041.58 260.226  12
  -4  -4  10 1094.03 194.013  17
   4  -4 -10 1356.37 359.072   3
   4   4 -10 701.364 175.779  18
   4  -4 -11 979.877 379.408   3
  -4  -4  11 26.6146 213.733   6
   4  -4 -11 545.569 319.511   1
   4   4 -11 7476.60 1122.14  12
  -4  -4  11 68.8228 69.1243  14
  -4   4  11 648.154 303.714  16
   4   4 -11 6340.25 909.622  13
   4   4 -11 33.5927 60.9224  11
   4  -4 -11 653.339 289.231  12
   4  -4 -11 100.916 315.660  18
  -4   4  11 2140.48 932.642  17
  -4   4  11 489.867 385.916   2
   4   4 -11 1312.26 573.047   4
   4   4 -11 5292.25 907.628  19
   4  -4 -11 918.264 555.815  11
  -4  -4  11 798.289 494.472  16
  -4  -4  11 3070.12 715.227   8
   4   4 -11 4554.43 955.237   3
  -4  -4  11 1124.22 346.001  17
  -4   4  12 96.1130 118.134   2
   4   4 -12 91.5219 87.9938  13
   4  -4 -12 174.384 263.875  11
  -4  -4  12-76.9530 99.4740  17
  -4   4  12-291.705 237.932  17
  -4   4  12 120.152 166.766  16
  -4  -4  12 123.897 158.683   6
  -4  -4  12 64.3411 99.3634  14
   4   4 -12-60.1982 184.233  11
  -4  -4  12 148.389 133.732  16
   4  -4 -12 20.2166 87.6548  18
   4  -4 -12-10.8870 73.3694   1
   4   4 -12-263.556 164.415  19
   4   4 -12 219.774 283.429   3
   4  -4 -12 294.099 225.646   3
  -4  -4  12 101.137 112.612   8
   4   4 -12 319.941 252.778  12
   4  -4 -12 54.5657 28.7707  12
   4  -4 -13 75.2607 108.751  12
   4   4 -13 25.0140 48.3331  19
   4   4 -13 612.551 295.705  13
  -4   4  13-205.202 140.473  17
  -4   4  13 198.574 324.123   2
  -4  -4  13-76.4330 176.423  16
   4  -4 -13 298.292 259.912   3
  -4  -4  13-8.69372 37.0622  14
   4  -4 -13-112.234 211.696  11
   4   4 -13 592.070 342.578   3
   4  -4 -13-56.9548 173.501  18
  -4   4  13 32.7093 134.504  16
   4   4 -13 444.949 303.665  12
  -4  -4  13 50.2535 74.8758   8
   4  -4 -13 25.7685 41.7538   1
  -4  -4  13-1.85842 92.6286   6
  -4   4  14 29.3417 124.312  16
   4   4 -14 68.5434 101.269  19
  -4  -4  14 68.0343 82.4633  14
  -4  -4  14 3.23443 71.3571   6
  -4   4  14-11.8030 186.350   2
   4  -4 -14-42.7342 227.810  18
  -4   4  14-139.980 223.734   5
  -4   4  14-265.111 261.993  17
  -4  -4  14-9.48660 241.094   2
   4  -4 -14 371.926 225.019  12
   4  -4 -14 60.5258 55.7861   1
  -4  -4  14 145.221 244.581  16
  -4  -4  14 168.432 170.408   8
   4  -4 -14-60.1007 134.080  11
  -4  -4  15 177.914 156.918   8
  -4  -4  15-56.0212 130.338  14
   4  -4 -15-31.4214 58.1850   1
  -4  -4  15 53.8716 90.7191   6
  -4   4  15 9.45941 61.9720  17
  -4   4  15-80.4685 168.902   5
  -4  -4  15 70.0512 203.213   2
  -4  -4  15 142.199 208.271  16
  -4   4  15 239.641 283.525   2
  -4   4  15 122.095 217.424  16
   4  -4 -15-242.020 254.566  11
   4   4 -15-6.50525 23.9098  19
  -4  -4  16-154.358 198.518  14
   4  -4 -16 16.0525 102.848   1
  -4   4  16 152.983 215.619  17
  -4   4  16 189.658 259.819  16
  -4   4  16 87.8901 86.5066   5
  -4   4  16 369.424 350.507   2
   4   4 -16 141.537 158.115  19
  -4  -4  16 193.907 223.095  16
  -4  -4  16 598.310 287.915   8
  -4  -4  16 258.187 223.635   2
  -4  -4  16-19.5513 174.471   6
  -4  -4  17-199.702 375.349   6
   4   4 -17 44.3444 133.657  19
   4  -4 -17 77.1671 106.213   1
  -4  -4  17 33.9319 91.8200   8
  -4   4  17-4.91488 22.4622   5
  -4  -4  17 73.7280 245.421   2
  -4   4  17 76.0825 120.035   2
  -4  -4  17 266.430 352.084  16
  -4   4  17 66.1922 210.901  16
  -4   4  17-7.56515 14.5751  17
  -4   4  18 2119.65 699.104  16
  -4  -4  18 2331.93 784.738  16
   4   4 -18 83.1095 109.494  19
   4  -4 -18 244.003 138.953   1
  -4   4  18 2202.24 684.268   2
  -4  -4  18 2464.03 676.365   2
  -4  -4  18 2214.07 555.097   8
  -4   4  18 1209.62 329.098   5
  -4   4  18 676.428 357.812  17
  -4   4  19 37.2974 212.653   2
  -4  -4  19 83.2446 281.949  16
  -4   4  19-76.1424 167.953  17
   4  -4 -19 191.647 205.278   1
  -4  -4  19 81.7331 148.624   8
   4   4 -19 51.7932 103.035  19
  -4  -4  19 97.1929 50.2418   2
  -4   4  19 231.793 315.588  16
   0  -5   0-3.15684 8.20312   6
   0   5   0 1.41639 33.6250  17
   0  -5   0 4.77070 20.6087  14
   0  -5   0-3.75827 48.3231  18
   0   5   0-7.32368 55.7925  12
   0   5   0 3.11942 83.9007   5
   0  -5   0-29.6184 83.3509  11
   0   5   0-1.90026 79.1578   2
   0   5   0 2.95757 46.8939  19
   0   5   0-4.53120 52.0294   4
   0  -5   0-12.2436 74.2871   8
   0  -5   0 24.6238 81.6977   1
   0   5  -1 167.402 113.967  17
   0  -5   1 592.216 235.913   1
   0  -5  -1 543.814 145.996   6
   0  -5  -1 226.174 112.368  18
   0   5  -1 253.883 105.997   3
   0  -5   1 262.338 133.277  14
   0  -5   1 604.157 173.371  11
   0  -5  -1 301.448 139.068  14
   0   5  -1 278.631 131.372   2
   0   5  -1 272.572 190.680   5
   0   5   1 109.157 87.4421  17
   0  -5   1 349.361 131.011   6
   0   5   1 424.849 220.516   5
   0  -5   1 492.144 222.348   8
   0   5   1 173.725 80.4394  12
   0  -5  -1 134.605 39.0259  11
   0   5   1 327.541 186.479  19
   0   5  -1 258.090 165.435   4
   0   5   1 509.509 196.128   2
   0   5  -1 272.065 169.627  19
   0  -5   1 339.127 136.532  18
   0  -5  -1 491.146 197.810   1
   0  -5  -1 411.010 198.060   8
   0   5   1 363.723 192.016   4
   0  -5  -2-26.1696 104.359   8
   0  -5   2-0.01845 26.7747  14
   0   5  -2 0.19830 33.4692  19
   0  -5  -2 45.7371 64.4694  14
   0   5  -2 18.5037 88.4534   5
   0   5   2 14.6634 70.3024  17
   0   5   2 46.6108 87.0749   5
   0   5   2 2.67535 13.2541  19
   0  -5   2 29.6741 50.4918  16
   0  -5   2 56.6298 106.890   8
   0  -5   2-16.3054 28.2007   6
   0   5  -2-52.8783 135.149   4
   0  -5  -2 6.09510 47.0629   1
   0   5   2 35.1022 77.1328   4
   0  -5   2-0.75353 18.7403  18
   0  -5  -2 12.7261 32.4722   6
   0   5   2 22.9487 93.7519   2
   0  -5   2 13.1173 29.7203   1
   0   5  -2 21.6940 95.7992  17
   0   5   3 23.8064 53.4559  17
   0  -5   3 6.15823 41.5464   8
   0  -5   3 17.6681 52.1520  18
   0  -5   3 14.0733 50.8270  16
   0  -5  -3-6.77920 52.8846   8
   0   5  -3 33.5045 94.8809  17
   0   5  -3-109.345 207.426   5
   0  -5  -3 23.7004 83.4116   1
   0  -5  -3 37.2545 74.2917  14
   0   5   3 32.5478 83.5723   5
   0  -5   3 16.6714 26.1635  14
   0  -5   3-22.4095 52.9907   1
   0  -5   3 10.1964 39.4361   6
   0   5   3 44.4715 57.9461   2
   0   5  -3 1.27813 92.2286  19
   0   5   3-10.2362 54.8659  19
   0   5   3 24.4802 63.6285   4
   0  -5   4-33.0407 85.4159   6
   0  -5   4-45.7823 89.4684  18
   0   5   4 73.2216 106.821   2
   0  -5   4 31.9892 56.0558  16
   0  -5   4-14.0031 50.4845  14
   0   5  -4 15.9110 9.78034  17
   0  -5  -4 103.454 93.8371  14
   0   5   4 104.806 121.671   4
   0  -5  -4-29.9030 197.954   8
   0   5  -4-56.8759 195.470  19
   0  -5   4 21.4094 103.339   8
   0   5   4 158.383 170.309   5
   0   5   4 77.3279 29.9194  19
   0  -5  -4 40.4123 116.158   1
   0  -5   4 1.70583 34.9359   1
   0   5   4 11.9560 54.7022  17
   0   5   5 42.9805 32.5763  17
   0  -5   5-61.7393 130.475   6
   0  -5  -5 53.7567 51.8122  14
   0  -5   5 20.0810 54.5386  16
   0   5   5 72.0848 105.966   2
   0  -5   5 24.8834 42.8123  14
   0   5   5 18.6645 72.1944  19
   0   5   5 25.8200 33.9062   5
   0   5   5-31.4144 154.775   4
   0  -5  -5 41.7767 75.7247   1
   0  -5   5 48.4781 62.8004   8
   0  -5   5 16.5509 50.9513   1
   0  -5  -6-2.53263 45.7803   1
   0  -5  -6-10.7622 11.5934  14
   0  -5   6-49.4800 127.873  16
   0  -5   6-2.58931 35.3148  14
   0   5   6-29.5170 93.8488   2
  -5   0   6-107.825 210.517   6
   0   5   6-83.0108 91.4152   5
   5   0  -6-20.1647 117.659   3
   0   5   6-15.1093 211.586  19
   0  -5   6-35.8966 136.803   8
   0   5   6 21.5609 24.7981  17
   0  -5   7 1164.43 288.863  16
   0  -5  -7 1436.98 288.860  14
   0   5   7 1920.97 463.565   5
   0   5   7 601.022 264.892  17
   0  -5   7 1254.12 328.602   8
   0   5   7 1422.53 399.070   2
   5   0  -7 1305.89 381.333  13
   0  -5   7 615.884 237.820  14
  -5   0   7 928.331 326.585   6
   0  -5  -7 1127.94 348.041   1
   0   5   8-3.28915 52.4680  17
  -5   0   8-14.6486 78.1171   6
   5   0  -8-114.860 258.768  18
   0  -5  -8 4.77240 38.2329  14
   5   0  -8-57.7675 87.8878  13
   5   0  -8-18.2313 77.6639  12
   0  -5   8-150.302 357.191   8
   5   0  -8-20.3686 124.332   3
   0  -5  -8-3.57498 52.3283   1
   0   5   8-4.24047 79.7750   2
   0   5   9 95.5162 129.074   2
   5   0  -9 729.254 293.685   3
   0  -5  -9 125.518 85.4046  14
   0   5   9 55.2824 46.6868  17
   5   0  -9 438.699 188.195  13
   0  -5  -9 94.0520 78.8494   1
  -5   0   9 314.156 166.392   6
   5   0  -9 536.458 268.816  18
  -5   0   9 520.254 271.511  17
   5   0  -9 476.710 242.174  12
   5   0 -10 26.9746 52.0698   3
  -5   0  10 37.5462 77.6045  16
   5   0 -10 23.7662 59.3351  12
   0   5  10-67.6686 150.461  17
  -5   0  10 153.699 213.611  17
   5   0 -10 20.0623 85.6593  13
   0  -5 -10-26.2789 52.0378  14
   0  -5 -10-39.3855 93.9303   1
   0   5  10-52.7186 124.764   2
   5   0 -10 78.9218 123.182  18
   5   0 -10-17.4372 12.8074   4
  -5   0  10 93.6652 127.487   6
  -5   0  11 23.7337 24.1562  16
  -5   0  11 154.604 155.468  17
  -5   0  11-48.8335 52.7572  14
   5   0 -11-74.2953 109.468  13
   0  -5 -11 13.3481 41.2204  14
   5   0 -11-35.4953 128.253   3
   0   5  11-84.3319 174.247  17
   5   0 -11 132.590 174.058  18
   5   0 -11-39.2896 101.118  12
   5   0 -11-16.1875 43.2317   4
   0  -5 -11-28.9842 95.1579   1
   0   5  11-22.9437 128.388   2
  -5   0  11-48.3534 120.306   6
  -5   0  12 8.17144 292.094  17
  -5   0  12 41.9887 137.586   6
   5   0 -12-64.7385 256.820  13
   0   5  12-1.82425 130.090   2
  -5   0  12 75.6580 131.939  16
  -5   0  12-35.8388 42.3988  14
   0  -5 -12 1.42392 29.9308   1
   5   0 -12 154.083 265.050   3
   5   0 -12-81.7973 170.473  18
   5   0 -12 178.034 239.600  12
   0   5  12-350.238 222.866  17
   5   0 -13 1554.66 584.912  11
  -5   0  13 886.116 395.732  17
  -5   0  13 282.693 179.522   6
   5   0 -13 672.118 299.090   3
  -5   0  13 676.440 351.716  16
  -5   0  13 360.102 172.216   2
   5   0 -13 619.522 260.393  12
   5   0 -13 741.564 320.187  18
   5   0 -13 677.275 320.799  13
  -5   0  13 366.571 96.4867  14
   0   5  13 231.339 153.106   2
   5   0 -14-7.53702 57.1511  18
  -5   0  14 3.77771 68.3832  17
   0   5  14-38.3559 141.456   2
   5   0 -14 314.866 255.860  13
   5   0 -14 39.7191 77.8695  12
  -5   0  14 6.76610 84.5749   6
   5   0 -14 52.8567 182.045   3
   5   0 -14-61.6249 170.447  11
  -5   0  14 80.1475 191.294   2
  -5   0  14 13.5419 176.829  16
  -5   0  14-1.73503 25.3221  14
   5   0 -15 274.292 278.281   3
  -5   0  15 196.265 172.048  17
  -5   0  15-76.4669 132.035   6
  -5   0  15 92.0751 228.528   2
   5   0 -15 661.043 376.784  13
   5   0 -15 145.605 211.272  11
  -5   0  15 50.0200 103.587  16
   5   0 -15-76.2765 192.212  18
   5   0 -15 241.279 237.403  12
  -5   0  15-217.334 138.235   8
  -5   0  16-25.8816 140.442   6
   0  -5  16-378.654 457.148  16
  -5   0  16-151.431 128.347   8
   5   0 -16 179.805 251.092   3
  -5   0  16 26.5952 104.511   2
   5   0 -16 239.642 235.462  12
  -5   0  16 97.5034 205.441  16
  -5   0  16-151.764 203.414  17
   5   0 -16-212.834 293.016  11
  -5   0  17 158.318 230.172  16
  -5   0  17 109.744 112.590   2
   0  -5  17-352.687 454.793  16
   5   0 -17 373.995 368.915   3
   5   0 -17 538.063 338.472  12
   5   0 -17-175.715 318.042  11
  -5   0  17-47.3281 120.847   8
  -5   0  17 162.144 135.437  17
  -5   0  18-69.9471 169.716  17
  -5   0  18 214.834 211.202   2
   5   0 -18 618.551 378.349  12
  -5   0  18-16.8100 89.2209   8
  -5   0  18 203.166 237.622  16
  -5   0  19 464.384 271.554  17
  -5   0  19 1118.73 555.205   2
  -5   0  19 742.783 467.530  16
   1  -5   0 400.324 195.941  18
  -1   5   0 76.7123 172.070  17
   1   5   0 138.261 72.5944   2
   1   5   0 417.801 211.472   4
   1  -5   0 85.4761 64.1124  14
  -1  -5   0 325.969 154.125  14
   1   5   0-2.24681 54.6812  17
  -1   5   0 26.0316 92.5173  19
   1   5   0 283.528 162.975   5
   1  -5   0 294.010 166.975   1
   1   5   0 166.699 114.904  12
  -1  -5   0 454.382 171.929   6
   1  -5   0 256.078 145.957   8
  -1  -5   0 352.749 188.367   1
  -1  -5   0 266.953 182.053   8
   1   5   0 316.009 185.704  19
  -1   5   0-26.4373 160.476   5
  -1  -5  -1 1842.61 493.720   8
   1   5  -1 3142.29 560.720   4
  -1  -5   1 4009.95 502.449   6
   1   5  -1 281.469 129.156   3
   1  -5   1 1870.81 422.829   8
   1  -5  -1 3743.61 603.941   1
  -1  -5   1 3321.53 523.642   1
   1   5  -1 2474.78 510.993   5
   1   5   1 2707.38 527.542   5
   1  -5  -1 2849.90 349.285  13
   1   5  -1 2249.13 303.749   2
   1   5  -1 2853.67 562.345  19
  -1   5   1 1406.79 400.572   5
   1  -5  -1 3314.82 525.236   8
  -1  -5  -1 2544.44 405.471  14
   1  -5   1 2463.75 539.718   1
  -1   5   1 888.627 256.994   4
   1   5   1 777.491 205.977   2
   1   5   1 2657.45 516.294   4
  -1  -5  -1 2507.99 473.204   1
  -1  -5   1 2695.03 545.512   8
  -1   5  -1 255.555 204.533  17
   1   5   1 2893.75 595.167  19
   1  -5  -1 3148.42 521.359  18
  -1   5  -1-29.4233 206.721  19
  -1  -5  -1 2854.96 463.588   6
   1  -5   1 2668.41 471.495  18
  -1   5   1 2073.27 434.309   2
   1  -5   1 725.477 234.684  14
  -1  -5   1 2861.22 431.049  14
   1  -5  -1 954.879 256.457  14
   1   5  -1 1846.60 392.265  12
  -1   5   1 1297.06 377.401  17
  -1   5   1 1813.47 440.322  19
   1   5  -2-7.38040 36.2021  17
  -1   5   2 82.2746 85.2006  17
   1  -5  -2 3.70934 17.2952   6
   1   5  -2 47.3592 62.1532   3
   1   5   2-0.01703 47.9603  17
   1   5   2-8.86176 60.7022  19
   1  -5   2 3.69794 63.3190  14
   1   5  -2 23.7619 119.689   5
  -1  -5   2 8.60052 102.941   8
  -1  -5  -2 33.7475 73.9684  14
  -1   5   2 20.6388 71.7596   5
  -1  -5   2 43.6411 66.5038  14
   1  -5  -2 8.49894 33.3104  14
   1  -5  -2 33.6725 45.9998  18
   1   5   2 20.3960 58.1240   5
   1   5  -2 6.46892 27.1904   4
  -1   5   2-25.1037 42.0175  19
   1  -5   2-34.2457 141.577   8
   1  -5  -2 110.027 120.087  13
  -1   5   2 62.1716 154.631   2
  -1   5   2-3.01051 35.1430  12
   1   5  -2 9.05127 41.7815  12
   1  -5   2 0.44951 109.920   1
  -1  -5  -2 9.73227 12.9652   1
   1   5  -2 35.0858 131.265  19
   1   5  -2 4.27550 23.6404   2
  -1  -5   2 23.2838 78.3298   1
   1  -5  -2 266.629 281.020  11
  -1   5   2 12.8746 35.1943   4
   1   5   2-45.5613 179.837   4
   1  -5  -2 54.4438 91.4388   1
   1  -5  -2 2.35569 36.5975   8
   1  -5   2-32.4288 161.618  18
  -1  -5   2 42.5527 95.9189   6
  -1  -5  -2-204.478 174.954   8
   1  -5   3-0.64507 92.2055  14
   1   5  -3 43.7284 101.987   4
   1   5  -3-9.06200 38.3247  17
  -1  -5   3-14.4639 58.9396  16
  -1   5   3 29.0999 61.2375   5
   1  -5  -3 14.0823 41.6700  14
   1  -5  -3 14.5547 40.5747   1
  -1  -5   3-3.82660 62.3480   8
  -1  -5  -3-16.7636 40.8995  14
   1   5  -3 31.5042 100.819   5
   1  -5   3-35.1305 116.496   1
  -1  -5   3 26.7478 57.2780  14
   1   5  -3 125.146 178.987  12
   1   5   3-80.4343 145.830   5
  -1   5   3 8.16786 70.3541  19
  -1   5   3 21.4238 101.378   2
   1  -5  -3 58.3155 123.181  11
  -1   5   3 66.8122 87.8276  17
  -1   5   3-19.3378 13.5694   4
   1   5  -3 61.9194 95.1660   3
   1  -5  -3-4.46674 44.8970  18
   1   5   3-8.66995 95.7886  19
  -1  -5   3 12.9103 29.5586   6
   1   5   3-31.1258 91.3666  17
   1  -5  -3 41.9414 97.1469   8
  -1  -5   3 11.1008 75.0869   1
  -1  -5  -3-13.9763 66.9427   1
  -1   5   3 9.16066 21.1556  16
   1   5  -3 20.8305 87.4623  19
  -1  -5   4 824.574 244.094  14
   1  -5  -4 547.925 235.126  18
  -1  -5  -4 186.639 130.691   1
  -1  -5   4 972.572 333.136   8
  -1   5   4 789.687 188.929  16
   1  -5   4-20.4759 125.889  14
   1  -5   4-40.4412 169.911   1
   1   5  -4 462.695 232.658   5
  -1  -5   4 835.680 241.688   6
  -1  -5   4 1059.98 308.652   1
   1  -5  -4 703.306 264.457   1
   1   5  -4 467.628 230.790  19
   1  -5  -4 323.308 130.127  14
   1   5  -4 47.2612 30.9708  17
  -1   5   4 715.388 267.817  19
  -1   5   4 685.917 278.689   5
  -1  -5  -4 320.113 152.411  14
   1  -5  -4 571.434 216.963   8
   1   5   4 805.365 376.540  19
   1   5  -4 441.119 227.352   4
  -1   5   4 822.939 299.352   2
  -1  -5   4 871.637 280.290  16
  -1   5   4 633.341 240.630   4
  -1   5   4 497.398 213.235  17
   1  -5  -4 581.348 228.794  11
  -1   5   5 138.061 60.1414  17
  -1  -5   5 492.404 219.438  16
  -1  -5   5 322.464 186.340   1
  -1  -5  -5 69.0853 83.4156   1
   5   1  -5 82.2835 149.426   3
   1  -5  -5 154.830 117.874  18
   1  -5  -5 202.392 109.152   8
  -1   5   5 397.739 239.462   2
  -1  -5   5 407.031 225.745   8
   1  -5  -5 349.196 187.186   1
  -1  -5  -5 128.285 95.1547  14
  -1  -5   5 267.543 150.980   6
  -1  -5   5 326.503 159.564  14
  -1   5   5 302.275 218.488   5
   1   5  -5 218.058 188.789  19
   1   5  -5-32.2117 145.914   5
   1  -5  -5 161.702 102.171  11
  -1   5   5 408.371 196.166  19
   1  -5  -5 120.892 69.2545  14
  -1   5   5 253.541 127.440  16
  -1   5   5 373.284 192.632   4
   1   5  -5-53.4892 198.713   4
  -1   5   6 1014.50 328.443  17
  -1  -5   6 1619.44 370.787  14
  -5  -1   6 241.099 147.545   6
  -1  -5   6 1586.49 368.725   6
   5  -1  -6 1549.36 526.045   3
   1  -5  -6 1745.45 418.691   1
   1  -5  -6 951.190 207.897  14
  -1  -5  -6 232.794 132.398   1
  -1   5   6 2141.78 499.963   2
   1   5  -6 465.200 235.329  19
  -1   5   6 1290.24 281.572  16
   5   1  -6 1444.33 513.072  12
  -1   5   6 1899.74 441.611   5
   5   1  -6 1880.55 558.271   3
  -1   5   6 1985.04 391.906   4
  -1  -5   6 2319.73 523.406   8
   1  -5  -6 785.112 292.821  11
  -1  -5   6 2297.76 484.027  16
  -1  -5   6 888.063 277.097   1
   1  -5  -6 811.130 271.242  18
  -1  -5  -6 470.056 190.185  14
  -1   5   6 2253.79 531.363  19
   5  -1  -6 618.368 188.166  13
   1  -5  -7 146.250 117.745   1
  -1   5   7 258.932 212.696   2
  -1   5   7 144.402 100.949  16
  -1  -5   7-22.5381 104.708   1
   5  -1  -7 145.080 82.4794  13
  -5  -1   7 119.869 140.438   6
  -1  -5   7 222.766 156.933  14
   5  -1  -7 256.893 198.776   3
  -5   1   7 27.4619 36.9395   6
   5   1  -7-81.7384 195.858  13
   1  -5  -7-36.2203 201.902  18
  -1   5   7 200.753 131.615   4
  -1  -5  -7-63.8427 136.746   1
   1  -5  -7-36.7246 259.778  11
  -1   5   7 188.615 152.785   5
  -1   5   7 108.704 104.967  17
  -1  -5   7 156.171 125.942   6
   1   5  -7-29.1862 39.4768  19
   1  -5  -7 129.393 81.8579  14
  -1  -5   7 310.255 193.161  16
   5   1  -7 268.426 195.912   3
   5   1  -7 256.255 197.435  12
  -1   5   7 157.228 116.758  19
  -1  -5   7 304.739 204.288   8
  -1  -5   8 2007.30 501.804  16
  -5  -1   8 1303.01 391.896   6
  -1   5   8 898.681 253.152  16
   1  -5  -8 908.976 206.622  14
   5  -1  -8 1418.88 420.520  18
  -1   5   8 1880.12 443.723   5
   1  -5  -8 1166.70 357.396   1
  -1   5   8 1692.33 463.493   2
  -1  -5   8 1959.10 495.730   8
   5  -1  -8 1759.01 455.362  13
   5  -1  -8 2084.40 543.590  12
  -1   5   8 1578.24 323.874   4
  -1  -5   8 1078.61 337.305  14
   1   5  -8-38.5016 120.804  19
  -5   1   8 814.093 293.106   6
   5  -1  -8 2794.06 633.891   3
   5   1  -8 2624.19 620.189   3
   5   1  -8 2115.18 528.774  12
   5   1  -8 800.660 281.272  13
  -1   5   8 806.017 320.601  17
  -1  -5   8 778.638 144.926   2
  -1  -5   8 1107.78 321.029   6
  -1  -5   9 201.613 48.3554   2
  -5   1   9 147.124 192.323  17
  -1  -5   9 279.413 122.477   6
  -1  -5   9 648.687 307.228   8
  -1  -5   9 717.849 310.763  16
  -1   5   9 173.470 73.6507  17
  -5  -1   9 532.514 250.873   6
   5  -1  -9 668.284 283.346  12
  -1  -5   9 259.985 163.552  14
  -1   5   9 582.197 274.148   2
   5  -1  -9 722.299 317.786  18
   1   5  -9-116.037 267.974  19
  -1   5   9 175.789 52.9626  16
   5   1  -9 372.715 183.480  13
   5  -1  -9 512.385 226.086  13
   5   1  -9 958.945 348.843  12
  -1   5   9 547.168 247.637   5
   1  -5  -9 277.559 117.877  14
   5  -1  -9 973.391 362.511   3
   1  -5  -9 288.050 170.224   1
   5   1  -9 830.978 373.357   3
   5   1  -9 696.081 267.799  18
  -5  -1   9 252.085 136.670  17
  -5   1   9 341.464 165.469   6
   5  -1 -10 115.982 88.0689  13
  -5   1  10 113.965 125.519   6
   1  -5 -10 52.2501 92.1447   1
  -5  -1  10 118.878 188.698  16
  -1   5  10 36.4474 71.6142   5
   5  -1 -10 182.335 143.165   3
  -1  -5  10 75.5051 117.374  16
   5  -1 -10 226.454 190.878  18
  -1  -5  10-14.8850 114.603   2
   1  -5 -10 63.3775 57.4707  14
  -5  -1  10 78.8953 69.9600  14
  -5   1  10 80.8273 178.907  16
   5   1 -10 159.006 149.770  18
   5   1 -10 67.2249 66.3096  12
  -5  -1  10 492.882 314.571  17
  -1   5  10 34.1469 35.7439   2
   5  -1 -10 109.378 65.7515  12
  -1  -5  10-17.2426 158.122  14
  -1  -5  10 8.63073 34.2406   8
  -1   5  10 73.1897 67.2039  17
  -5   1  10 329.419 319.084  17
   5   1 -10 138.723 99.9248   3
   5   1 -10 151.243 114.441   4
   5   1 -10-12.3173 51.6587  13
  -5  -1  10 203.121 203.279   6
   5   1 -11 295.901 201.315   3
  -5  -1  11 332.037 216.102   6
   5  -1 -11 389.189 248.320   3
  -5  -1  11 386.795 114.799  14
  -1  -5  11 349.505 225.054  16
   5   1 -11 443.991 232.993  18
  -1   5  11-76.7566 181.371  16
   1  -5 -11 48.3954 107.618   1
   5  -1 -11 396.079 172.808  12
  -5  -1  11 111.171 68.1015  16
   5  -1 -11 263.127 241.528  13
  -5   1  11-205.421 559.694   2
  -1  -5  11 67.5254 88.9445   2
   5   1 -11 267.065 196.167  13
  -1   5  11 191.804 141.931   5
  -1   5  11 231.409 101.926   2
   5   1 -11 333.190 181.316  12
  -1  -5  11 337.644 185.844   8
   5   1 -11 387.212 160.420   4
  -5   1  11 1005.74 477.405  17
  -5   1  11 86.4636 110.166  16
  -5   1  11 122.032 128.898   6
  -1   5  11 15.2753 60.7246  17
  -5  -1  11 1017.63 427.568  17
   1  -5 -11 138.621 90.5133  14
   5  -1 -11 373.262 227.068  18
  -1   5  12 21.4768 68.6268  17
   5   1 -12 729.192 408.021  13
   5  -1 -12 187.106 250.688   3
  -1   5  12-101.853 223.618  16
   1  -5 -12 6.01254 25.2171  14
   5  -1 -12 128.854 144.336  18
  -1   5  12 13.3277 53.7446   2
  -5   1  12-64.8177 152.754  16
  -5  -1  12 209.059 139.869  14
  -5  -1  12 308.086 342.253  16
  -5   1  12-310.564 366.671   2
   5   1 -12 696.028 551.300   3
   5   1 -12 349.140 451.194  12
  -1   5  12 11.8645 103.526   5
   5  -1 -12 300.913 223.501  12
  -5  -1  12 307.573 213.902   6
  -1  -5  12 107.478 122.454  16
  -1  -5  12-61.6099 222.886   8
  -5   1  12 872.444 401.591  17
   5  -1 -12 128.452 351.436  13
   5   1 -12 60.7401 122.608  18
  -5  -1  12-164.901 202.481   8
   1  -5 -12-2.15482 64.6935   1
  -5   1  12-23.3719 98.1580   6
   5  -1 -13 591.077 284.581   3
  -1  -5  13 41.5946 119.890   2
   5  -1 -13 461.811 286.335  13
  -5   1  13 232.441 192.400   2
  -5   1  13 176.247 125.958   6
   1  -5 -13 50.9704 63.6263   1
  -5  -1  13 318.158 298.270  16
   5  -1 -13 563.899 304.477  18
  -1   5  13 43.5857 183.251  16
   5   1 -13 1536.65 566.712  11
  -1  -5  13 381.447 261.561  16
   1  -5 -13 93.1033 64.7341  14
   5   1 -13 209.861 180.278  13
   5   1 -13 536.905 268.582  18
   5   1 -13 402.949 211.280  12
  -1   5  13 129.274 122.075  17
   5  -1 -13 596.137 238.277  12
  -1   5  13 169.793 59.2712   5
   5   1 -13 240.350 234.853   3
   5  -1 -13 1372.95 594.688  11
  -5  -1  13 444.738 224.530   6
  -5  -1  13-513.856 439.284   2
  -5   1  13 815.301 401.470  17
  -1  -5  13 50.3568 210.941   8
  -5  -1  13 142.604 86.5047   8
  -5  -1  13 587.726 146.014  14
  -5   1  13 485.323 363.685  16
  -5  -1  13 648.549 283.394  17
  -1   5  13 323.659 211.726   2
  -1   5  14 82.7134 113.942   5
  -5  -1  14 569.575 249.452  17
  -1  -5  14 379.321 295.128  16
  -5   1  14 704.104 378.055  17
  -1   5  14-53.3280 105.007  17
  -5   1  14 329.755 269.751  16
  -5  -1  14 139.586 110.708   6
   5  -1 -14 390.838 319.662   3
  -1   5  14-30.8624 187.491  16
   5   1 -14 409.597 271.460  13
  -5  -1  14 114.729 50.2386   8
  -1  -5  14 62.9388 119.050   2
   1  -5 -14 96.0585 70.8512  14
  -5  -1  14 93.5660 186.259   2
   5   1 -14 258.122 160.216  18
  -5   1  14 322.770 175.301   2
   5  -1 -14 499.836 332.532  13
  -1   5  14 313.732 203.503   2
   5   1 -14 278.284 196.624  12
   5   1 -14 507.631 260.307   3
   5  -1 -14 673.745 410.547  11
   5   1 -14 858.770 412.664  11
   5  -1 -14 273.617 197.293  18
   5  -1 -14 418.676 204.146  12
   1  -5 -14 77.0277 121.602   1
  -5   1  14 65.2231 38.0550   6
  -1  -5  14-75.5775 298.538   8
  -5  -1  14 381.409 323.031  16
  -5  -1  14 129.573 59.0842  14
  -5  -1  15 586.149 284.401  17
  -5   1  15 314.647 258.912  17
  -1  -5  15 82.5686 94.6556   2
  -1   5  15 435.917 308.098   2
  -5   1  15 54.5475 41.0215   6
   5  -1 -15 267.778 187.380  18
  -1   5  15-20.7075 117.173  17
   1  -5 -15 68.4009 116.790   1
  -5  -1  15 746.254 434.674  16
  -5   1  15 528.491 347.313  16
  -1   5  15-61.0308 184.048  16
   5  -1 -15 423.517 294.322   3
  -5  -1  15-52.6754 75.3595  14
   5   1 -15 464.658 278.411  12
  -1   5  15-5.67466 195.194   5
  -5   1  15 488.127 392.149   2
   5  -1 -15 528.246 377.286  13
   5   1 -15 445.169 290.413   3
   5   1 -15 575.164 308.125  13
   5  -1 -15 543.257 253.888  12
  -5  -1  15 396.441 181.590   8
  -1  -5  15 491.097 324.826  16
  -5  -1  15 382.579 296.327   2
   5   1 -15 383.398 234.927  11
   5  -1 -15 615.255 326.182  11
  -1  -5  15-228.854 360.545   8
  -5  -1  15 131.484 159.436   6
   1  -5 -15 64.4933 65.9572  14
   5   1 -15 110.018 162.039  18
   5   1 -16 386.479 295.028  12
   5  -1 -16 212.511 293.564   3
  -5  -1  16 25.2028 257.624  16
  -1  -5  16 48.4186 108.543   2
  -5  -1  16 154.690 155.247  17
  -5  -1  16-48.1110 105.244   6
   1  -5 -16-13.7419 77.0559   1
   5   1 -16 347.820 369.225   3
  -1  -5  16 151.754 193.954  16
   5   1 -16-136.271 94.9957  19
  -5   1  16 214.499 262.086   2
  -1   5  16-439.696 283.958  17
   1  -5 -16 0.58559 23.1640  14
  -5  -1  16 20.7604 90.2136   2
   5  -1 -16 230.051 266.744  12
  -1   5  16 84.2425 150.483   2
   5   1 -16-420.543 308.167  11
  -5   1  16 95.1278 63.8696  17
  -5   1  16 154.474 241.780  16
   5  -1 -16 65.6979 133.498  11
   5   1 -16 1148.02 459.609  13
  -1  -5  16-495.969 545.277   8
   5  -1 -16-149.943 262.349  18
  -5  -1  16-9.97120 35.1343   8
  -5   1  17 580.298 422.030  16
   1  -5 -17-7.74998 55.0668   1
  -1  -5  17 182.199 106.960   2
   5  -1 -17 41.5547 276.868  11
   5   1 -17-259.854 397.454  11
   5   1 -17 640.528 345.949  12
   5   1 -17 458.750 418.874   3
   5  -1 -17-84.1162 167.829   1
   5  -1 -17 604.520 344.734  12
  -1  -5  17-155.371 485.369   8
  -5   1  17 78.6819 125.356  17
  -5   1  17 562.084 403.345   2
  -5  -1  17 696.275 417.319  16
  -1   5  17 340.518 220.331   2
  -1   5  17-79.1856 226.565  16
   5  -1 -17 503.714 417.685   3
  -5  -1  17 358.661 204.395   2
  -5  -1  17 227.504 159.913  17
  -1  -5  17 620.708 383.877  16
  -5  -1  17-276.791 210.173   6
  -5   1  17 34.7353 91.0817   8
  -5  -1  17 297.508 122.338   8
  -1  -5  18-407.684 576.934   8
  -1   5  18 654.210 417.573   2
  -5   1  18 703.944 417.308  16
  -1   5  18 152.586 123.251  16
   1  -5 -18 60.0799 118.593   1
  -1  -5  18 590.110 401.051  16
  -5  -1  18 716.054 452.549   2
  -5   1  18 756.995 415.544   2
   5   1 -18 975.433 448.653  12
  -5  -1  18 291.057 183.307  17
  -5  -1  18 433.966 362.789  16
  -5   1  18 205.289 322.200  17
  -5  -1  18 361.443 173.385   8
  -1  -5  18 285.843 111.938   2
   5  -1 -18 589.662 340.847  12
  -1  -5  19 194.091 99.1117   2
  -5  -1  19 613.693 486.975  16
  -5   1  19 172.727 298.402  16
  -5  -1  19 600.923 436.814   2
  -1  -5  19 486.961 395.405  16
  -5   1  19 186.814 169.385  17
  -5   1  19 467.623 400.456   2
  -5  -1  19 77.6983 79.7697  17
  -1   5  19-40.6261 175.691  16
  -5  -1  19 295.677 170.978   8
  -1   5  19 504.773 374.042   2
   2   5   0 3737.01 732.408  19
  -2  -5   0 2250.89 502.797   6
   2  -5   0 1655.67 466.568   1
  -2  -5   0 2867.16 481.031  14
  -2  -5   0 1814.68 561.367   8
  -2  -5   0 1963.75 422.466   1
   2  -5   0 1970.10 424.005  18
   2   5   0 2409.01 516.104   5
  -2  -5   1 255.070 168.078   1
   2   5  -1 264.686 112.360   4
   2   5  -1 374.967 228.954  19
   2   5  -1 185.278 128.684  12
  -2  -5   1 384.763 206.230   6
  -2  -5  -1 180.933 112.399  14
   2   5   1 395.514 245.602  19
  -2  -5  -1 55.7049 58.9365   1
   2  -5  -1-16.1966 101.025  14
   2  -5  -1 129.906 97.5535   8
   2   5  -1 383.814 188.377   5
  -2  -5   1 373.399 172.334  14
   2  -5  -1 325.809 177.925   1
  -2  -5   1 207.241 149.701   8
   2  -5  -1 337.264 196.152  18
  -2   5   1-44.2015 124.575  17
   2  -5   1 112.013 91.4390   1
  -2  -5  -2 229.773 90.9683   1
  -2  -5   2 2459.13 467.559   6
   2  -5   2-15.7669 148.840   1
   2  -5  -2 1371.74 403.105   1
   2   5  -2 1924.52 492.962  19
  -2  -5   2 1692.73 355.162  14
   2  -5  -2 20.3459 45.7723  14
   2  -5  -2 1331.60 323.108   8
   2  -5  -2 1874.05 466.060  18
   2   5  -2 1828.94 428.996   5
  -2   5   2 41.5453 276.057   2
  -2   5   2 586.370 252.442  17
   2  -5  -2 1292.48 283.555  13
   2   5  -2 1181.95 349.476  12
   2   5   2 1565.21 545.836  19
   2   5  -2 2051.24 479.538   4
   2   5  -2 221.899 127.653   3
  -2  -5   2 1491.25 444.831   8
  -2  -5  -2 556.857 224.144  14
  -2  -5   2 1518.83 351.586   1
  -2   5   2-0.87216 157.432  19
  -2  -5   3 2480.06 434.940  14
  -2  -5   3 3101.13 522.126   6
   2  -5  -3 81.0153 68.0156  14
   2   5  -3 2534.27 521.288   5
   2   5  -3 1764.92 422.063  12
  -2   5   3 822.008 300.242  19
   2  -5  -3 2057.59 483.345   1
  -2  -5  -3 565.745 223.305  14
   2  -5  -3 2412.47 528.126  18
  -2   5   3 1387.00 449.050   2
  -2   5   3 344.749 140.426   5
   2  -5  -3 3220.49 461.484  13
  -2  -5   3 1988.83 495.833   8
   2   5  -3 2923.87 576.872   4
  -2   5   3 1115.80 425.129  17
   2   5  -3 2284.01 511.019  19
   2   5  -3 1189.38 309.722   3
   2  -5  -3 2220.11 396.059   8
  -2  -5   3 2671.74 468.505   1
   2   5  -4 558.850 203.666   3
  -2   5   4 417.088 222.102  17
   2  -5  -4 1095.78 277.270   8
   2   5  -4 663.902 255.338  12
   2  -5  -4 846.973 301.317   1
  -2  -5   4 1101.52 304.278   1
  -2   5   4 589.929 236.260  19
  -2  -5   4 847.237 337.388   8
   2  -5  -4 41.6645 45.5060  14
   2   5  -4 1022.29 341.002   5
  -2   5   4 250.985 176.677   5
   2  -5  -4 1111.42 290.951  13
  -2   5   4 790.683 317.967   2
   2   5  -4 805.585 308.819  19
  -2  -5   4 870.837 262.835  14
   2   5  -4 891.958 341.645   4
  -2  -5   4 1135.00 321.424   6
   2  -5  -4 995.292 361.129  18
  -2   5   5 1064.82 347.617   5
  -2   5   5 926.785 322.213  17
   5   2  -5 485.629 229.845   3
   2  -5  -5 2278.07 322.762   3
  -2  -5   5 1750.76 364.271  14
   2  -5  -5 119.517 84.7018  14
   2   5  -5 1188.04 381.456  19
  -2   5   5 1885.68 523.494   2
  -2  -5   5 2183.87 446.857   6
  -2  -5   5 1248.96 399.787  16
   2   5  -5 1072.11 340.254  12
   2   5  -5 1529.19 445.383   4
  -2   5   5 415.064 89.6958   4
   2  -5  -5 2801.05 691.007  11
  -2  -5   5 1560.89 437.074   8
  -2   5   5 1332.68 382.153  19
   2  -5  -5 1606.82 415.073   1
   2   5  -5 1606.78 407.752   5
   2  -5  -5 1545.87 435.806  18
  -2  -5   5 2434.24 432.148   1
  -2   5   5 1392.60 348.989  16
   2  -5  -5 1603.06 333.675   8
   2   5  -5 930.066 284.025   3
  -2  -5   6 1612.98 440.116   8
  -2   5   6 1306.21 351.194  19
  -2   5   6 1344.14 345.661  16
   2  -5  -6 1469.65 479.813  11
  -2  -5   6 2039.94 397.842   1
   2  -5  -6 101.075 80.8551  14
   2  -5  -6 1260.89 374.008   1
  -2  -5   6 1647.43 360.266  14
  -2   5   6 1470.31 458.284   2
  -2  -5   6 1918.87 427.101   6
   2   5  -6 970.921 332.170   5
   2   5  -6 914.542 336.609  19
   5  -2  -6 547.297 190.412  13
   2   5  -6 120.119 75.8216  13
   2   5  -6 861.422 348.143  12
   5  -2  -6 631.619 298.285   3
   2   5  -6 987.719 352.396   4
  -5  -2   6 318.188 208.350   6
  -2  -5   6 1367.15 422.447  16
   5   2  -6 1074.70 420.942  12
   2  -5  -6 1022.11 294.371   8
  -2   5   6 875.572 315.794   5
   2  -5  -6 1841.83 285.584   3
  -2   5   6 640.909 199.127   4
   2   5  -6 747.544 281.557   3
   5   2  -6 1062.15 406.741   3
   2  -5  -6 1184.25 384.349  18
  -2   5   6 822.085 305.952  17
  -2   5   7 2275.73 559.555  17
   2   5  -7 735.573 186.491  13
  -2  -5   7 3768.77 670.788   8
  -2   5   7 2379.04 401.268   4
  -2   5   7 3160.27 586.027  19
  -5  -2   7 1278.24 434.506   6
   5   2  -7 3037.97 694.441   3
  -2  -5   7 3797.65 559.516  14
   5  -2  -7 1312.01 357.046  18
   2  -5  -7 283.492 115.249  14
  -5   2   7 304.973 161.163   6
  -2   5   7 2623.23 539.003   5
  -2   5   7 3898.30 744.952   2
   2   5  -7 919.742 290.326   5
   2   5  -7 2127.53 517.475  19
   5   2  -7 3180.72 726.340  12
   5  -2  -7 2036.75 508.546  13
   2   5  -7 1391.07 380.203   4
   2  -5  -7 3098.85 696.918  11
   2  -5  -7 2976.48 558.980   1
  -2   5   7 3376.58 557.873  16
  -2  -5   7 3698.68 719.620  16
  -2  -5   7 4210.57 643.096   6
   5  -2  -7 3769.81 764.553   3
  -2  -5   7 3053.05 499.307   1
   2  -5  -7 2462.05 561.457  18
  -5  -2   8 68.4444 204.811  14
  -5   2   8 138.571 184.953  17
  -2   5   8 1049.93 332.672  16
  -2  -5   8 960.748 320.945   6
  -2   5   8 552.234 252.094  17
   2  -5  -8 770.538 286.645   1
  -5  -2   8 665.296 311.651   6
  -2  -5   8 1146.12 328.620  14
  -2   5   8 910.754 321.575   5
   5   2  -8 90.0807 72.6300  13
   2  -5  -8 662.487 292.845  18
   5  -2  -8 799.455 319.311  13
  -2  -5   8 117.230 115.324   1
   5   2  -8 993.374 367.130  12
   5  -2  -8 1169.72 388.756   3
   5  -2  -8 728.598 327.762  18
   5   2  -8 1068.49 394.789   3
  -2   5   8 1134.30 432.913   2
   2  -5  -8 96.2623 61.0460  14
   2  -5  -8 796.557 365.920  11
  -2  -5   8 1168.86 410.696  16
   2   5  -8 331.054 208.479  19
  -2  -5   8 1307.79 405.145   8
  -5   2   8 321.944 169.969   6
  -2   5   8 754.625 310.844  19
  -2   5   8 745.838 227.529   4
  -2  -5   9 938.439 331.441   6
   5  -2  -9 1010.67 399.388  18
  -2  -5   9 1509.61 426.810   8
  -5  -2   9 615.824 315.741   6
   2   5  -9 279.101 208.647  19
  -5   2   9 293.085 144.193  17
  -2  -5   9 1356.37 454.900  16
  -5   2   9 468.329 194.016   6
   5   2  -9 326.831 169.616  13
  -2   5   9 939.188 321.524   5
  -5  -2   9 548.659 206.617  14
  -2   5   9 406.444 236.222  19
  -2  -5   9 966.319 305.026  14
   2  -5  -9 684.751 267.990   1
  -2   5   9 942.545 316.241  16
   5  -2  -9 894.371 324.565  13
   2  -5  -9 598.266 322.231  11
   5   2  -9 1033.95 368.429  12
   5  -2  -9 922.174 326.720  12
   5   2  -9 1139.73 411.468   3
  -2   5   9 531.578 256.837  17
   5   2  -9 1218.49 327.222   4
  -2   5   9 1164.55 431.582   2
   5  -2  -9 1242.68 418.557   3
   2  -5  -9 398.076 220.644  18
  -2   5   9 984.319 250.147   4
   5   2  -9 596.733 210.805  18
   2  -5  -9 77.1176 50.6614  14
  -2  -5   9 850.409 217.959   2
  -5  -2  10 1844.83 407.869  17
  -2   5  10 909.447 326.581  16
  -2  -5  10 872.679 303.018  14
   2  -5 -10 725.817 288.635   1
   5   2 -10 1146.96 384.975  12
  -5  -2  10 1255.47 411.098   6
   5  -2 -10 1498.31 509.930  18
   5   2 -10 654.949 234.664  13
  -2  -5  10 1556.16 486.884  16
  -5  -2  10 697.798 416.471  16
  -2   5  10 1127.48 361.445   5
  -5   2  10 969.491 423.446  17
  -2   5  10 1410.60 465.508   2
  -5   2  10-149.343 524.794   2
  -5  -2  10 1130.04 262.092  14
   2  -5 -10 185.096 57.4734  18
   2  -5 -10 93.4430 57.0014  14
   5   2 -10 792.391 179.403   5
   5  -2 -10 1638.95 456.277   3
  -2  -5  10 1809.84 481.225   8
   5   2 -10 1328.89 379.628  18
   5   2 -10 1338.32 403.587   3
   5  -2 -10 1081.40 372.359  13
   2   5 -10 194.227 217.950  19
   5   2 -10 1698.28 385.000   4
  -2   5  10 1192.28 268.533   4
  -5   2  10 384.221 162.133   6
   2  -5 -10 231.928 92.6113  11
  -2   5  10 700.295 320.331  17
  -2  -5  10 822.044 313.135   6
  -2  -5  10 1609.77 316.366   2
   5  -2 -10 1348.50 369.524  12
  -5   2  10 555.379 352.467  16
  -2   5  11 8.68944 92.4542  17
  -5  -2  11 1732.82 702.969  17
  -2  -5  11-276.380 296.873   6
  -2   5  11 69.5602 68.6907   4
  -2   5  11 55.5610 125.941  16
  -5  -2  11 383.865 191.015  14
  -5  -2  11 416.504 417.051  16
  -2   5  11 20.1586 40.5603   5
   2  -5 -11 60.0564 85.3947   1
   5  -2 -11 162.641 321.510   3
  -2  -5  11 90.9609 266.475  16
   2   5 -11-48.3815 116.270  19
   5   2 -11 514.546 298.433  12
   2  -5 -11 12.5103 25.4168  14
  -5   2  11-295.841 505.895   2
   5  -2 -11 537.052 484.975  13
  -5   2  11-1.54618 69.9981   6
   5  -2 -11 83.9839 157.868  18
  -2  -5  11 192.599 246.232   2
  -5   2  11-20.0369 38.0187  16
   5  -2 -11 138.578 173.384  12
   5   2 -11 1221.58 449.195   3
  -2  -5  11 256.942 372.418   8
   5   2 -11 166.940 167.520  18
   5   2 -11 100.660 128.470   4
  -2   5  11-51.3398 69.8687   2
  -2  -5  11 10.6439 96.0437  14
  -5   2  11 490.311 526.529  17
  -5  -2  11 928.704 461.771   6
   5   2 -11 898.988 400.559  13
  -2   5  12 1382.55 281.982   4
  -5  -2  12 552.942 274.728   8
  -2  -5  12 658.260 281.220   6
  -2   5  12 852.286 384.755  17
   5   2 -12 1859.78 425.379  18
   2   5 -12-34.8975 47.5276  19
  -5  -2  12 2183.62 329.164  14
  -2  -5  12 1927.13 578.197  16
  -2   5  12 1190.41 397.197  16
  -2   5  12 1586.21 528.205   2
  -5  -2  12 1297.62 556.018  16
  -2   5  12 1506.49 399.053   5
   5  -2 -12 2262.60 518.770   3
   5   2 -12 1327.19 394.780  12
   5   2 -12 1498.19 426.683   3
   5  -2 -12 2070.54 577.824  18
  -5  -2  12 2661.49 525.257  17
  -5   2  12 856.642 325.684   2
   2  -5 -12 113.953 57.0788  14
   5  -2 -12 1327.80 427.370  13
  -5   2  12 1959.43 589.334  17
   5  -2 -12 1844.55 410.169  12
   5   2 -12 93.2341 45.6866  19
   5   2 -12 844.271 323.098  13
   5   2 -12 621.444 162.430   4
  -5   2  12 342.547 150.278   6
  -2  -5  12 508.292 214.722  14
  -5   2  12 1252.20 512.090  16
  -5  -2  12 1363.66 482.278   6
  -2  -5  12 1832.38 467.313   8
  -2  -5  12 2641.27 432.592   2
   2  -5 -12 787.745 310.143   1
   2  -5 -13 16.7860 17.4022  14
  -5   2  13 500.819 333.303  17
   2  -5 -13 115.992 129.816   1
   5  -2 -13 838.943 562.801  11
  -5  -2  13 76.1974 16.4264   8
   2   5 -13-106.588 202.131  19
  -2   5  13 293.342 219.807  16
  -5  -2  13 328.754 112.192  14
  -2   5  13 30.8032 83.3749  17
  -2  -5  13 334.220 257.493  16
   5  -2 -13 327.554 213.516   3
   5   2 -13 145.471 187.948   3
  -2   5  13 325.765 272.976   2
  -5   2  13 165.025 145.900   2
  -2  -5  13 465.515 284.371   8
  -2   5  13 121.620 48.3671   4
  -5  -2  13 261.217 251.849   6
   5   2 -13 129.487 155.010  13
  -2   5  13 209.335 182.952   5
   5   2 -13 270.435 194.574  12
   5  -2 -13 401.452 207.384  12
   5   2 -13 287.406 135.734  18
   5   2 -13-21.0510 48.5370  19
   5  -2 -13 404.016 322.843  13
   5  -2 -13 344.720 260.029  18
   5   2 -13 725.164 357.754  11
  -5  -2  13 161.163 85.1481  16
  -5  -2  13 448.161 204.537  17
  -5   2  13 82.4427 108.365   6
  -2  -5  13 487.694 210.511   2
  -5   2  13 235.258 220.426  16
   2  -5 -14 172.142 148.858   1
  -5  -2  14 691.232 270.627  17
   2  -5 -14 44.7239 39.2809  14
  -2   5  14 345.248 243.587  17
   5  -2 -14-59.7240 126.400   1
  -5  -2  14 793.397 453.406  16
  -2   5  14 591.581 304.659  16
   5  -2 -14 819.682 385.753  13
  -5   2  14 564.930 384.542   2
   5  -2 -14 788.033 337.886   3
  -2  -5  14 815.835 382.138  16
  -5  -2  14 554.905 183.808  14
  -2  -5  14 1222.41 339.095   2
  -5  -2  14 489.143 280.052   6
  -2   5  14 551.558 260.358   5
  -5   2  14 881.723 453.999  17
   5  -2 -14 806.114 276.276  12
   5   2 -14 673.110 312.613  12
  -2  -5  14 1193.72 426.170   8
  -5   2  14 547.507 402.004  16
   5   2 -14 509.674 263.634  13
   5  -2 -14 1183.57 554.070  11
   2   5 -14-132.547 156.246  19
  -2   5  14 849.286 392.936   2
   5  -2 -14 886.602 394.733  18
  -5   2  14 140.924 99.5377   6
   5   2 -14 1086.37 431.548  11
   5   2 -14 753.907 370.883   3
   5   2 -14 79.6765 85.8167  19
   5   2 -14 421.645 175.531  18
  -5  -2  14 546.266 210.044   8
  -5   2  15-159.096 236.443  17
  -5  -2  15 35.1963 97.0490   6
  -2   5  15-30.5494 129.454   2
   5   2 -15 716.349 337.530  13
  -2   5  15 20.4977 84.4436  16
   5   2 -15 212.391 218.525   3
  -5  -2  15-50.9509 81.2286  14
  -5  -2  15 146.303 136.550  17
  -5  -2  15-220.133 345.408   2
   5  -2 -15-29.8539 105.563   1
   5  -2 -15 483.370 423.574  13
  -5   2  15-19.6771 69.7762   2
   5   2 -15-76.4527 169.777  11
  -2   5  15 83.2623 146.646   5
   5   2 -15 227.444 229.656  12
   5  -2 -15 53.2511 118.887  12
   5  -2 -15 39.4534 106.991   3
  -5  -2  15 33.8215 48.8104  16
   5   2 -15-93.0507 104.427  19
   2   5 -15-547.965 287.883  19
  -5   2  15 35.7572 108.813  16
  -2  -5  15 225.659 191.795   8
   5  -2 -15-61.9368 141.698  11
  -2   5  15 85.5351 164.264  17
   5  -2 -15-71.0279 192.613  18
   2  -5 -15 55.2258 149.290   1
  -5  -2  15-82.5544 119.758   8
  -2  -5  15-66.0582 135.480  16
   2  -5 -15 28.5489 39.3979  14
  -2  -5  15 129.781 188.234   2
   5  -2 -16 5.88385 51.0269   1
  -5   2  16 689.746 499.005  17
  -2   5  16 954.509 319.607   5
  -5  -2  16 1377.16 610.805  16
  -5   2  16 1207.53 537.394  16
  -2   5  16 507.466 335.256  17
  -2  -5  16 1272.24 568.285  16
   5  -2 -16 1138.91 491.153  11
   5   2 -16 907.401 366.559  12
   5   2 -16 602.423 430.166   3
  -2  -5  16 1381.00 398.775   2
   5  -2 -16 844.308 421.172   3
   2  -5 -16 35.2032 38.8879  14
  -5  -2  16 555.382 283.029   6
  -2   5  16 1525.12 572.091   2
  -2  -5  16 1319.50 454.377   8
  -5   2  16 1139.34 482.140   2
  -5  -2  16 958.282 325.828  17
   5  -2 -16 1051.64 354.827  12
  -5  -2  16 1117.49 410.757   2
   2  -5 -16 52.8886 46.1974   1
   2   5 -16-250.109 275.426  19
   5   2 -16 169.925 238.441  11
   5  -2 -16 503.080 247.618  18
  -2   5  16 767.070 365.736  16
  -5  -2  16 798.165 298.828   8
   5   2 -16 213.170 136.440  19
   5   2 -16 984.117 424.041  13
  -2   5  17 58.6065 108.363  17
  -2  -5  17 341.792 298.355  16
  -5  -2  17 526.179 384.693  16
  -5  -2  17 204.342 136.803  17
  -5   2  17 422.665 357.809  16
   5  -2 -17 409.345 359.072   3
   5   2 -17 460.117 456.123   3
  -5   2  17 276.645 317.335  17
  -2   5  17 614.026 448.962   2
   5   2 -17-103.072 96.6647  19
   2  -5 -17-10.5115 92.9609   1
  -2  -5  17 452.338 264.184   2
  -5  -2  17 581.626 388.825   2
   5   2 -17 1182.02 480.490  13
  -2   5  17 333.082 193.933   5
  -5  -2  17 90.0795 108.371   6
   5   2 -17 723.975 371.830  12
   5  -2 -17 545.278 313.110  12
   5  -2 -17-38.3376 86.9333   1
  -5   2  17 398.290 297.377   2
  -2   5  17 220.417 255.146  16
  -2  -5  17 579.836 328.820   8
   2   5 -17-349.097 344.612  19
   5  -2 -17-141.056 399.538  18
   5  -2 -17-115.310 291.161  11
  -5  -2  17 336.198 191.412   8
  -5   2  18 340.857 530.146  17
  -2   5  18 119.285 139.448  17
  -5  -2  18 746.090 493.531  16
  -5   2  18 1161.27 577.507  16
  -2   5  18 306.116 287.127  16
   5   2 -18 441.610 374.794   3
   5  -2 -18 857.539 388.135  12
  -2  -5  18 561.020 301.369   8
   5  -2 -18-694.565 448.655  11
  -2  -5  18 960.365 491.228  16
  -2  -5  18 950.980 325.393   2
   2  -5 -18 151.086 178.809   1
  -5  -2  18 1113.50 425.714   2
  -2   5  18 861.317 493.513   2
  -2   5  18 800.180 302.583   5
  -5   2  18 1095.42 619.621   2
   5   2 -18 830.398 411.347  12
   5  -2 -18-21.1590 88.4828   1
  -5  -2  18 275.790 169.523  17
  -5  -2  18 649.853 332.001   8
  -5  -2  19 1613.57 545.696   2
  -5   2  19 999.841 576.957  16
  -5  -2  19 435.127 224.992  17
   5  -2 -19 1094.95 420.381  12
  -2  -5  19 1491.76 629.763  16
  -2  -5  19 1441.35 522.812   8
  -2   5  19 874.401 430.519  16
  -5   2  19 1599.92 672.301   2
  -2   5  19 1116.31 374.011   5
   2  -5 -19-25.7480 79.9937   1
  -2   5  19 1445.95 600.937   2
  -2  -5  19 1702.24 473.465   2
  -5  -2  19 1437.69 715.873  16
  -5   2  19 706.294 425.069  17
  -5  -2  19 1445.44 391.660   8
  -2   5  19 8.50691 143.691  17
  -3  -5   0-0.93388 83.2051  14
   3   5   0-37.2681 210.103  19
  -3  -5   1 547.234 237.949  14
   3  -5  -1 7.61379 86.3367   1
  -3  -5   2 46.8394 101.387   1
   3   5  -2 268.274 235.813  19
  -3  -5   2 205.496 121.035   6
   3  -5  -2 28.8673 84.8377   1
   3   5  -2 122.463 58.2435  12
  -3  -5   2 252.689 160.869  14
   3  -5  -2 62.5227 174.748  18
  -3  -5   2 70.6193 87.6658   8
  -3  -5   3 2115.47 500.677   6
   3  -5  -3 982.811 356.168   1
  -3   5   3 229.610 265.299  17
  -3  -5   3 1655.77 385.592  14
   3   5  -3 434.044 223.055   3
   3  -5  -3 1639.41 460.474  18
  -3  -5   3 1003.88 401.031   8
   3   5  -3 1540.99 411.001   5
   3   5  -3 1506.53 457.823  12
   3   5  -3 1987.56 492.987   4
   3  -5  -3 1362.70 331.940  13
  -3  -5   3 1018.68 297.425   1
   3   5  -3 1775.13 497.866  19
  -3  -5   4 328.671 234.101   8
  -3   5   4 90.2812 202.947  17
  -3  -5   4 681.594 297.847   6
  -3  -5   4 421.795 203.160   1
  -3  -5   4 570.781 250.928  14
   3  -5  -4 517.991 271.822  18
   3   5  -4 252.321 150.455   3
  -3   5   4-152.608 426.527   2
   3   5  -4 575.393 296.376  19
   3  -5  -4 667.047 254.606  13
   3   5  -4 440.370 218.042   5
   3   5  -4 419.867 238.730  12
   3  -5  -4 305.441 173.382   1
   3  -5  -4 259.339 99.9687   8
   3   5  -4 734.522 319.255   4
  -3  -5   5 1390.38 395.318   6
   5   3  -5 282.873 161.414   3
   3  -5  -5 520.578 246.847   1
   3   5  -5 1123.45 384.922   4
  -3  -5   5 970.850 299.212  14
  -3  -5   5 981.656 269.117   1
  -5  -3   5-38.4513 208.979   6
  -3   5   5 268.538 124.043   2
   3  -5  -5 1063.13 387.829  18
   3  -5  -5 1249.73 329.584  13
  -3   5   5 322.008 177.330  17
   3  -5  -5 839.723 238.279   8
   3   5  -5 934.732 322.226   5
  -3   5   5 182.158 142.613  19
   3   5  -5 561.014 243.190   3
   3   5  -5 812.029 324.192  19
   5   3  -5 437.693 247.563  12
   3   5  -5 684.671 300.257  12
  -3  -5   5 568.874 278.303   8
   5   3  -6 2852.12 718.230  12
  -3   5   6 1874.97 403.548  19
   3   5  -6 3707.98 624.623   5
  -5  -3   6 834.469 390.081   6
   5   3  -6 2070.83 585.447   3
   3   5  -6 4267.70 756.700   4
   3   5  -6 2728.08 570.276  19
   3  -5  -6 3471.04 725.957  18
  -3   5   6 2336.53 602.452   2
  -3  -5   6 3494.69 542.761  14
  -3  -5   6 4475.53 710.335   6
  -3  -5   6 2554.91 584.637   8
   3  -5  -6 4216.26 616.898  13
   3  -5  -6 3875.35 470.872   8
   3   5  -6 2379.95 528.231  12
  -3  -5   6 3908.93 540.303   1
   3  -5  -6 2220.05 515.246   1
   5  -3  -6 2224.81 521.504  13
   3  -5  -6 3282.06 527.490   3
   3   5  -6 1992.96 475.546   3
  -3   5   6 1533.84 490.455  17
   3  -5  -7 1698.48 352.932   3
  -5  -3   7 153.644 67.9239  14
   3   5  -7 875.208 339.811  19
  -3  -5   7 1320.68 336.437  14
  -3   5   7 783.990 316.601  16
  -5  -3   7 584.978 314.940   6
   3   5  -7 789.422 280.528   3
   3   5  -7 1287.95 379.451   5
   3  -5  -7 1137.69 256.286   8
  -3   5   7 98.8116 169.143   5
   3  -5  -7 790.555 305.784   1
   3  -5  -7 1269.74 436.949  18
  -3  -5   7 763.927 342.161  16
   3   5  -7-96.4822 90.5480  13
  -3   5   7 1212.97 460.450   2
  -3   5   7 769.437 370.863  17
   5   3  -7 1058.82 405.039   3
   3   5  -7 768.912 288.298  12
   5  -3  -7 1056.18 369.071  13
  -3  -5   7 1922.41 364.090   1
  -3  -5   7 1727.28 436.125   6
   3   5  -7 1231.64 399.374   4
   5  -3  -7 784.871 355.209  18
   5   3  -7 950.604 376.613  12
   3  -5  -7 1693.38 422.958  13
  -3  -5   7 1136.26 399.058   8
  -3   5   7 984.544 300.038  19
   5  -3  -7 970.001 399.213   3
  -5   3   7 34.0675 49.0300   6
  -3   5   8 2466.00 574.990  16
   3   5  -8 1926.47 467.289   5
  -3  -5   8 3440.36 500.950   1
  -3  -5   8 2496.93 673.243  16
  -3  -5   8 3645.41 654.761   6
   3  -5  -8 2642.60 626.271  18
   5   3  -8 2650.15 617.332  12
   3   5  -8 1270.71 396.657   3
  -5   3   8 212.118 185.831  17
  -5   3   8 578.057 205.621   6
  -3  -5   8 3387.36 537.036  14
  -5  -3   8 1245.57 355.733  14
  -3   5   8 2623.01 479.862  19
  -3   5   8 1023.09 327.987   5
  -3   5   8 1858.04 571.270  17
  -3   5   8 2885.52 693.776   2
   3   5  -8 2211.59 580.946   4
   5  -3  -8 2876.58 601.993  13
   3  -5  -8 3988.12 540.478   3
  -5  -3   8 2009.95 548.922   6
   3   5  -8 1610.14 435.295  12
   3   5  -8 1786.87 465.167  19
   5   3  -8 2527.40 528.467   4
  -3  -5   8 2509.17 560.772   8
   3  -5  -8 3991.24 913.422  11
   3   5  -8 1297.26 225.466  11
   5   3  -8-184.286 222.737  13
   5   3  -8 2762.58 638.520   3
   5  -3  -8 2412.32 632.111  18
   3  -5  -8 1130.69 292.893   8
   3  -5  -8 1873.19 463.377   1
   5  -3  -8 3741.20 748.632   3
  -5  -3   9 1157.94 323.780  14
   5  -3  -9 1789.55 562.545  18
  -3  -5   9 1572.66 533.553  16
   5   3  -9 706.174 166.012  18
  -5   3   9 486.589 189.577   6
  -3   5   9 721.131 283.662   5
   3   5  -9 936.943 360.232   3
  -3   5   9 1515.16 534.368   2
   5   3  -9 345.935 170.039  19
   5   3  -9 855.320 216.794   5
   3   5  -9 178.137 138.177   5
   3   5  -9 148.828 93.0946  13
   3  -5  -9 810.527 313.235   1
   3   5  -9 1081.08 385.042  12
   3  -5  -9 1551.82 243.055  12
   5   3  -9 1347.56 418.766  12
  -3   5   9 1197.33 455.048  17
   3  -5  -9 1239.02 438.759  18
  -5   3   9 557.886 397.164  17
   5   3  -9 2027.80 477.637   4
   3   5  -9 903.141 324.203  19
   3   5  -9 563.944 213.038   4
   3  -5  -9 2143.18 656.805  11
   3  -5  -9 2178.88 394.023   3
  -3   5   9 1200.04 351.242  19
  -3  -5   9 1622.46 450.186   8
  -5  -3   9 209.699 96.1571   8
  -3  -5   9 1852.47 486.424   6
   5   3  -9 1298.72 451.207   3
  -3   5   9 1352.57 436.411  16
   5  -3  -9 2022.28 508.742   3
  -3  -5   9 1739.89 397.121  14
  -3  -5   9 494.146 173.313   1
   5  -3  -9 1354.70 397.506  13
   5   3  -9 214.182 140.253  13
  -5  -3   9 1470.36 431.423   6
  -3   5  10 154.187 138.005  19
  -3   5  10 243.982 154.862   5
  -3   5  10 85.3889 325.849  17
   3   5 -10 214.117 331.760  19
   3  -5 -10 207.299 156.328  18
  -3  -5  10 484.821 278.959   8
   5   3 -10 410.717 225.806   3
  -5   3  10 598.279 524.241  17
   5   3 -10 477.245 165.910   5
  -3   5  10 345.944 214.685  16
   3   5 -10 269.644 204.253  13
   3  -5 -10 299.123 108.850  12
  -3  -5  10 409.627 222.180  14
  -5  -3  10 440.474 201.092  14
  -3  -5  10 357.458 269.747  16
   5  -3 -10 403.872 262.904  13
   5   3 -10 46.3241 60.1380  13
   5   3 -10 76.5257 104.238  19
   5   3 -10 368.034 180.709  12
  -3   5  10 350.010 212.667   2
   5  -3 -10 220.905 117.929  12
   3  -5 -10 467.508 320.433  11
  -3  -5  10 324.546 214.838   6
   5  -3 -10 614.526 299.421   3
   5   3 -10 542.449 233.451  18
  -5   3  10 42.8640 88.1254   6
   5  -3 -10 493.885 332.319  18
  -5  -3  10-187.538 165.891   8
   5   3 -10 569.196 256.099   4
  -5  -3  10 778.484 312.883  17
  -5  -3  10 379.858 262.288   6
   3  -5 -10 191.131 118.030   1
  -5   3  11 1206.63 500.509  17
  -3  -5  11 1304.00 464.859   6
   3   5 -11 2520.55 662.990  19
  -3   5  11 1876.44 671.521   2
  -3  -5  11 1162.24 382.214  14
   5  -3 -11 1806.58 546.847   3
   5   3 -11 1521.05 353.233  18
  -3   5  11 1204.28 445.919  16
  -5  -3  11 774.850 394.654  16
   5   3 -11 881.853 383.957   3
   3  -5 -11 577.321 294.519  11
  -5   3  11 648.679 404.572  16
  -5  -3  11 2544.20 470.580  17
   5   3 -11 1022.77 331.152   4
  -5  -3  11 1815.94 371.414  14
   5   3 -11 411.781 213.226  19
   3  -5 -11 492.249 236.485   1
   5   3 -11 1058.68 233.265   5
  -3  -5  11 2587.26 762.568  16
  -3   5  11 795.684 300.332   5
   5  -3 -11-104.235 169.244   1
  -3   5  11 1206.75 497.635  17
   5  -3 -11 1334.18 513.088  18
   5  -3 -11 1303.26 397.372  12
   5   3 -11 898.141 314.821  12
  -5   3  11 183.980 167.261   2
   5   3 -11 210.901 128.937  13
  -5   3  11 97.4134 78.3968   6
   5  -3 -11 1387.77 474.065  13
  -5  -3  11 1020.64 479.954   6
  -5  -3  11 582.657 275.380   8
  -3  -5  11 2637.79 650.482   8
   3  -5 -11 523.231 300.785  18
  -3  -5  12 72.0590 107.671   6
   5  -3 -12 64.5985 6.59784   3
  -5  -3  12-68.1205 76.2295  16
  -3  -5  12 143.878 186.156  16
  -3   5  12 118.582 167.596  16
   5   3 -12-47.0311 138.926   3
   3  -5 -12-24.7285 202.850  18
  -3  -5  12 58.1982 35.3011  14
   3  -5 -12-0.29453 46.5763   1
  -3  -5  12-19.5074 121.329   2
  -3   5  12-48.7818 91.9042  17
   3  -5 -12-58.7677 185.539  11
  -3   5  12-11.5845 64.4477   5
   5  -3 -12-46.0536 136.799  12
   5  -3 -12-82.3441 155.944   1
   5   3 -12 95.1264 131.652  13
   5  -3 -12 139.168 181.907  13
   5   3 -12-6.49425 36.0933  12
   5   3 -12 70.2277 52.2442  18
  -3   5  12 124.611 275.762   2
  -5   3  12-28.6233 110.218   6
  -5  -3  12 413.999 205.669  17
  -3   5  12-27.3430 98.3382   4
   3   5 -12 50.6063 82.4868  19
   5   3 -12-94.4152 194.772   4
   5   3 -12 949.241 488.812  11
   5  -3 -12 1175.11 656.969  11
   5   3 -12-50.2372 103.734  19
  -5   3  12 6.66911 112.839  16
  -5  -3  12-80.8196 106.134   8
  -5   3  12 195.324 278.504   2
  -3  -5  12 219.410 214.496   8
  -5  -3  12-16.1646 36.2039  14
  -5  -3  12-2.75121 34.0785   6
  -5   3  12 18.0726 122.434  17
   5  -3 -12-82.4941 183.753  18
  -3   5  13 1074.94 225.728   4
  -5  -3  13 1424.09 585.938  16
  -3  -5  13 2569.38 584.189   8
  -3   5  13 1270.56 453.618  17
  -5   3  13 34.1241 47.1630   6
  -5   3  13 1249.66 510.718  17
  -3  -5  13 2222.08 679.868  16
  -3   5  13 1493.58 512.575  16
   5   3 -13 1165.76 395.320   3
  -5  -3  13 2167.89 381.468  14
  -3   5  13 2325.75 641.482   2
  -5  -3  13 1040.90 386.984   8
  -3  -5  13 2028.36 448.565   2
   5  -3 -13-43.6256 118.164   1
   3  -5 -13 507.109 238.328  11
  -3   5  13 1478.63 400.401   5
   3  -5 -13 666.501 272.187   1
   5  -3 -13 1775.76 530.469  13
  -5  -3  13 1839.63 522.226   6
  -5   3  13 1299.49 532.123   2
   5   3 -13 462.298 235.228  13
  -3  -5  13 1393.34 451.388   6
   5   3 -13 1279.24 336.551  18
   5   3 -13 1124.20 405.292  12
   5  -3 -13 1859.13 605.179  18
   5  -3 -13 3112.84 891.283  11
   5   3 -13 2914.50 665.244  11
  -5   3  13 1335.60 538.527  16
   5   3 -13 714.354 261.588  19
   5  -3 -13 2276.04 538.221   3
  -3  -5  13 875.336 311.199  14
   3   5 -13 172.556 176.298  19
   3  -5 -13 305.205 145.534  18
   5  -3 -13 1844.68 400.695  12
  -5  -3  13 2067.55 432.255  17
  -3  -5  14 306.645 250.137   8
  -3   5  14-76.9744 157.058  17
  -5   3  14 215.685 280.246  17
  -5  -3  14 176.540 187.410   6
  -5  -3  14 91.9703 158.600  16
  -5   3  14 130.288 37.4911   2
  -3  -5  14-8.60334 132.366  14
   5  -3 -14 285.068 306.109  11
  -5   3  14 145.780 140.462  16
   3   5 -14 174.397 194.773  19
  -3   5  14 213.272 228.448  16
  -5  -3  14 127.127 110.282  17
   5  -3 -14 158.674 177.996   3
   5  -3 -14 337.715 292.689  18
   5   3 -14 162.627 215.627   3
  -5  -3  14 97.2323 81.1262  14
   5   3 -14-15.3346 9.03530  13
  -3  -5  14 342.906 318.055  16
   3  -5 -14 137.327 116.597   1
  -3  -5  14 324.825 242.813   2
   5  -3 -14 408.361 349.974  13
   5  -3 -14-39.2027 118.854   1
  -5  -3  14 44.6076 39.2353   8
  -3  -5  14 88.1083 42.2792   6
   5   3 -14 298.547 251.960  12
   5  -3 -14 163.823 75.7495  12
  -3   5  14 269.406 168.926   2
  -3   5  14 149.700 98.6839   4
   5   3 -14 210.008 110.459  11
   5   3 -14 50.6827 72.2064  19
  -3   5  14 196.137 184.209   5
  -5   3  15 176.568 140.972   2
  -5   3  15 147.469 183.323  17
  -5  -3  15 347.959 160.177  17
  -3   5  15 25.0232 71.3494  17
  -5  -3  15 233.430 218.992  16
  -5  -3  15 280.742 220.694   6
   5  -3 -15 480.131 318.950   3
  -3  -5  15 561.577 401.615  16
  -3   5  15 311.959 239.659  16
   5   3 -15 89.5053 98.0193  19
   5   3 -15 281.331 294.864   3
  -5  -3  15 194.845 96.0690  14
   5  -3 -15 374.572 175.939  12
   5  -3 -15 183.638 150.793  18
  -3   5  15 394.339 233.679   5
  -3  -5  15 20.5667 272.039   6
   5  -3 -15 648.279 431.507  13
  -3  -5  15 730.918 388.814   2
   5  -3 -15-86.3630 134.751   1
   5   3 -15 180.935 179.236  13
  -3   5  15 770.692 432.075   2
   3  -5 -15 92.1157 118.373   1
   5  -3 -15 234.590 208.057  11
  -3   5  15 318.711 124.113   4
   5   3 -15 78.8398 180.792  11
   3   5 -15 195.161 198.502  19
  -5   3  15 333.560 352.329  16
  -3  -5  15 811.322 391.901   8
   5   3 -15 265.142 235.980  12
  -5  -3  15 248.704 158.780   8
   3  -5 -16-11.2345 22.4317   1
  -5  -3  16-59.1108 138.316  17
  -5  -3  16 68.8590 132.782   6
  -5  -3  16 71.3672 238.539  16
   5   3 -16-6.01500 77.9630  19
  -3  -5  16 244.677 335.486  16
  -5  -3  16 69.3897 85.3728   8
  -5   3  16 86.3281 145.077  16
   3   5 -16 292.684 267.793  19
  -3   5  16 147.992 174.944   5
  -5   3  16 16.8715 169.894   2
   5   3 -16 490.044 299.634  13
  -3   5  16 194.819 247.484  16
   5  -3 -16-52.8284 241.198  18
   5   3 -16 297.330 278.290   3
   5  -3 -16 211.467 300.823   3
   5   3 -16 414.713 302.627  12
   5  -3 -16 168.029 120.898  12
  -5  -3  16-708.762 483.129   2
  -3  -5  16 303.781 274.188   2
   5  -3 -16-25.3231 105.488   1
   5  -3 -16 36.1835 138.338  11
  -3   5  16-61.5368 196.917   2
  -3   5  16 99.2417 67.9932   4
  -5   3  16-206.339 274.541  17
  -3  -5  16 335.464 288.024   8
  -3   5  16-14.0111 97.2027  17
  -5  -3  16-5.08108 79.3473  14
  -5   3  17 269.495 293.423  17
  -3   5  17 344.293 291.159  17
   5   3 -17 94.6640 93.6816  19
  -3  -5  17 1444.70 502.475   2
  -5  -3  17 1253.82 587.445  16
  -3   5  17 691.293 413.842  16
  -5  -3  17 428.205 174.424  17
  -3   5  17 850.315 328.446   5
  -5   3  17 638.107 448.883  16
  -3  -5  17 1028.75 486.377  16
   5  -3 -17 681.498 371.556   3
   5   3 -17 674.653 411.814   3
  -5  -3  17 361.645 256.360   6
  -5  -3  17 570.502 146.331   2
   5  -3 -17 435.194 128.835  11
   5   3 -17 864.880 397.246  13
   3   5 -17 260.284 213.500  19
  -5   3  17 803.998 379.184   2
   5  -3 -17 788.799 290.238  12
   3  -5 -17 70.7826 128.472   1
   5   3 -17 654.675 426.483  12
  -3  -5  17 1724.56 529.655   8
  -3   5  17 1264.61 524.297   2
   5  -3 -17 1.27852 73.6096   1
   5  -3 -17-84.4458 306.726  18
  -5  -3  17 762.055 314.701   8
   5  -3 -18 63.1735 35.7687   1
  -5   3  18 1385.76 629.643  17
  -5  -3  18-11.5227 224.732   6
   5  -3 -18 512.674 375.724   3
  -5  -3  18 1156.59 559.521  16
  -5   3  18 1540.29 668.473   2
  -3   5  18 756.106 450.033  16
  -5  -3  18-110.393 224.179  17
   5   3 -18 588.601 376.128  12
   5   3 -18 464.855 452.196   3
   5  -3 -18 173.833 362.810  11
  -3  -5  18 2062.00 596.071   2
  -5  -3  18 891.667 333.285   8
  -3   5  18 1081.87 360.788   5
  -5  -3  18 999.633 445.694   2
   5   3 -18 1285.94 517.341  13
   5  -3 -18 607.004 248.703  12
   3  -5 -18 180.242 173.430   1
  -3   5  18 1323.71 542.596   2
   3   5 -18 207.652 210.920  19
  -3  -5  18 1354.26 602.761  16
  -3  -5  18 1504.86 505.615   8
  -3   5  18 430.824 301.412  17
  -5   3  18 1229.84 594.273  16
  -5   3  19 883.067 471.232   2
  -5   3  19 288.392 322.459  17
  -5  -3  19 1080.49 555.773  16
  -3  -5  19 1181.40 603.725  16
  -3   5  19 875.558 341.166   5
  -5  -3  19 704.175 278.110   8
  -5  -3  19 591.329 240.433   2
   5  -3 -19 855.464 337.639  12
  -3  -5  19 1231.40 516.004   2
   3  -5 -19 102.127 143.663   1
  -3   5  19 841.308 408.720   2
  -5   3  19 643.430 396.629  16
   3   5 -19 329.377 260.493  19
  -3  -5  19 1208.93 505.434   8
  -3   5  19 685.824 396.876  16
  -3   5  19 164.612 158.525  17
   5   3 -19 1153.87 511.704  12
  -4  -5   3 69.6237 123.230   6
  -4  -5   3 89.3605 122.177  14
   4   5  -3 190.189 156.429  19
   4   5  -3 123.722 227.841  12
  -4  -5   4 56.5920 159.538   8
   4   5  -4 52.4373 69.1564   3
   4   5  -4 176.426 152.457  12
  -4  -5   4 153.801 165.631   6
  -5  -4   4-153.183 428.727   6
   4  -5  -4 50.6437 200.353  13
   4  -5  -4-13.6052 138.493   1
   4  -5  -4 185.146 122.780  18
   4   5  -4 210.788 197.720  19
  -4  -5   4 131.489 114.712  14
  -4  -5   5 569.143 303.101   6
  -4  -5   5 250.466 117.230   1
   5   4  -5 122.175 92.5813   3
  -4  -5   5 561.456 234.212  14
  -5  -4   5 181.666 106.502   6
   4   5  -5 524.641 230.842   4
   4  -5  -5 740.864 268.136  13
   4   5  -5 267.722 187.546   3
   4   5  -5 318.737 74.8169   5
   4   5  -5 622.077 301.593  12
  -4   5   5 97.8851 248.088  17
   5   4  -5 443.791 208.197  12
   4  -5  -5 85.2011 65.5747   1
   4   5  -5 552.499 303.833  19
  -4  -5   5 355.393 251.988   8
   4  -5  -5 668.256 344.821  18
   4  -5  -6 139.426 153.940   1
   5  -4  -6 425.517 176.853  13
   4   5  -6 293.225 199.375   3
   4  -5  -6 780.013 369.420  18
  -4  -5   6 765.951 302.551   6
  -4  -5   6 669.437 266.059  14
  -4   5   6 95.9564 58.7521   6
  -4  -5   6 284.816 215.623   8
  -5  -4   6 184.957 176.558   6
   5   4  -6 345.348 228.762   3
  -5  -4   6 191.832 84.3091  14
   4   5  -6 867.368 370.975   4
   4  -5  -6 807.801 295.978  13
  -4   5   6 261.357 286.155  17
   4   5  -6 602.639 267.743   5
   4   5  -6 577.382 297.456  12
   5   4  -6 643.354 313.407  12
  -4  -5   6 383.932 172.924   1
   4   5  -6 546.517 280.040  19
   4  -5  -6 203.071 108.992   8
   5  -4  -6 139.396 67.3525  18
  -4   5   7 365.177 143.980  19
   5   4  -7 2351.50 604.454  12
  -4   5   7 675.576 371.659  17
  -4  -5   7 2459.22 416.881   1
   4   5  -7 1624.65 477.712  19
  -4  -5   7 3054.90 657.526   6
  -5  -4   7 1812.71 526.391   6
   5  -4  -7 1245.82 446.487   3
  -4   5   7 186.006 67.4565   6
  -4  -5   7 2442.02 493.949  14
  -5  -4   7 1176.53 363.327  14
   4  -5  -7 2058.29 513.709   3
   4   5  -7 2734.17 550.245   5
  -4  -5   7 1585.17 498.567   8
  -4   5   7 422.527 269.172   2
   5   4  -7 1769.43 540.306   3
   4  -5  -7 3349.12 607.758  13
  -5   4   7 95.2265 322.819  17
   4   5  -7 1835.15 479.591  12
   4  -5  -7 725.085 329.235   1
   4   5  -7 3157.54 676.292   4
   5   4  -7 1857.06 483.840   4
  -5  -4   7 170.145 223.013   8
   5   4  -7 1036.16 392.703  19
   4  -5  -7 2287.42 336.790   8
   5  -4  -7 2088.17 602.634  18
   4  -5  -7 2293.06 636.482  18
   4   5  -7 1777.40 477.598   3
   5  -4  -7 2461.22 547.231  13
   5   4  -8 69.8822 83.0342   3
   4   5  -8 130.620 96.2099   3
   5   4  -8 220.958 159.079   4
  -5  -4   8 189.336 166.803   6
   5   4  -8-77.4357 203.312   5
  -4  -5   8 151.476 103.664   8
   5  -4  -8 250.602 260.871  18
   4  -5  -8 204.273 246.191  18
   4   5  -8 239.864 169.271  19
  -4  -5   8 288.099 169.680  14
  -5  -4   8 144.453 79.1723  14
  -4   5   8 99.8284 99.7232   2
   5  -4  -8 291.065 153.707  13
   4  -5  -8 216.895 133.175   3
   4   5  -8 231.971 140.049  12
   5   4  -8 242.001 214.275  12
  -5   4   8 165.679 244.321  17
  -4  -5   8 362.148 241.144   6
   4  -5  -8 85.3318 136.684   1
   5  -4  -8 157.263 129.740   3
  -4   5   8 305.168 207.004  19
   4   5  -8 306.444 205.756   4
  -4   5   8 306.543 303.372  17
   5   4  -8 136.038 110.274  19
   4   5  -8 317.654 199.831   5
  -4  -5   8 250.152 136.311   1
   4  -5  -8 334.069 193.468  13
  -5   4   8 57.5912 58.3575   6
   4  -5  -8 233.888 116.512   8
  -4   5   8 4.13332 26.1920   6
   4  -5  -9 503.869 163.897   8
  -4   5   9 631.401 310.292  16
   4   5  -9 1218.02 369.545   5
  -4  -5   9 720.797 394.535  16
   5   4  -9 802.588 314.022   3
  -5   4   9 231.600 118.039   6
  -5  -4   9 1132.41 413.523   6
  -4  -5   9 1817.09 336.216   1
  -4   5   9 930.824 233.896  19
  -4  -5   9 1411.63 356.845  14
  -5  -4   9 1152.38 349.339  14
   5   4  -9 656.483 293.440  19
   5  -4  -9 1237.68 476.355  18
   5  -4  -9-45.6519 163.335   1
   4  -5  -9 1777.20 585.376  13
   5   4  -9-291.371 245.332  13
  -4   5   9 807.676 391.887   2
  -4  -5   9 1658.14 484.346   6
   4  -5  -9 1252.55 483.893  18
   4   5  -9 857.992 367.687  12
   5   4  -9 984.353 332.298  12
   5   4  -9 1536.57 442.798   4
  -5  -4   9 622.968 179.617   1
   5  -4  -9 1642.63 468.897   3
  -4  -5   9 836.422 322.159   8
   5  -4  -9 1487.36 417.554  13
   4   5  -9 875.092 353.841  19
   4  -5  -9 557.687 319.703   1
  -5  -4   9 496.260 241.947   8
  -4   5   9 534.736 365.497  17
   4  -5  -9 1882.04 487.346   3
  -5   4   9 248.235 235.823  17
   4   5  -9 872.889 389.672   3
   4   5  -9 1305.60 457.727   4
   5   4  -9 1189.57 331.437   5
  -4   5  10 1107.04 563.942   2
  -4  -5  10 662.431 411.741  16
   4   5 -10 1163.67 316.932  11
   4  -5 -10 2953.72 666.524   3
  -4   5  10 1382.90 636.398  16
  -5  -4  10 1518.21 330.411  17
   4  -5 -10 875.950 460.244   1
   4   5 -10 796.058 334.850   5
   5   4 -10 674.408 294.910   3
  -5   4  10 118.413 97.9386   6
  -5  -4  10 984.485 406.718   6
  -4   5  10 2177.63 716.678  17
  -4  -5  10 1136.96 339.332  14
  -5  -4  10 801.581 177.410   1
   5   4 -10 1092.85 301.958   5
   4   5 -10 2258.35 591.049  19
  -4   5  10 1208.93 473.004  19
   5  -4 -10 1674.64 529.740  13
   4  -5 -10 3436.78 792.572  13
   5   4 -10-146.574 172.125  13
   4   5 -10 548.965 295.318  13
  -5   4  10 522.777 169.986  19
   4   5 -10 1551.76 586.612  12
   4   5 -10 1384.64 523.949   3
   4  -5 -10 926.454 301.824  12
  -4  -5  10 1765.94 574.058   8
   5   4 -10 594.204 254.577  12
   5  -4 -10 1111.40 498.703  18
  -5   4  10 704.945 501.923  17
  -4  -5  10 1277.41 447.838   6
   5  -4 -10 56.9419 136.628   1
   4  -5 -10 2767.56 1026.65  11
   5   4 -10 1034.10 387.807   4
  -5  -4  10 166.104 67.3016   8
   4   5 -10 1094.36 483.500   4
   5   4 -10 320.424 186.002  19
  -5  -4  10 978.419 280.751  14
   5   4 -10 1059.68 286.857  18
  -4  -5  10 568.872 200.714   1
  -5   4  10-429.095 558.148   2
   4  -5 -10 1051.37 495.121  18
   5  -4 -10 1666.66 476.976   3
  -5  -4  11-267.070 201.176   8
   4  -5 -11 25.5931 76.2010   3
   4   5 -11 104.808 149.455   3
   5  -4 -11-8.15167 43.6662  13
  -5  -4  11 397.311 221.120  17
  -4   5  11-144.200 191.238  17
  -5   4  11 76.6735 97.0507   6
  -4  -5  11 56.8997 167.411  16
  -5   4  11-55.1217 154.674  16
   4   5 -11 128.377 121.872  13
   5  -4 -11 44.1393 97.8430   3
  -4   5  11-38.2053 79.3617  16
  -4   5  11 153.878 252.158   2
   5   4 -11-137.536 138.944   3
  -5   4  11 64.1248 276.349  17
  -4  -5  11 3.64514 59.4021  14
  -4  -5  11-16.6195 66.9295   1
  -5  -4  11 57.0655 99.2704  14
  -5   4  11-85.7236 245.972   2
   5   4 -11 21.9475 63.3169  18
   5   4 -11 13.6069 105.900   5
   5  -4 -11-24.1566 62.5189   1
  -4  -5  11-76.6149 47.9073   6
   4  -5 -11 376.400 329.430  13
  -5  -4  11 64.1509 8.42688  16
   4   5 -11 62.5599 131.404  12
  -4   5  11-54.6467 139.456  19
   5   4 -11 79.4641 109.378  12
   4  -5 -11 23.2269 31.9364  12
   5   4 -11-158.157 140.575  19
   5  -4 -11-87.7819 177.212  12
   4   5 -11-261.031 337.291   4
   4  -5 -11 75.1600 122.470  18
   4  -5 -11-17.7183 80.1430  11
   5   4 -11-48.0781 89.1318  13
   5   4 -11-13.9546 71.8638   4
  -4  -5  11-188.270 165.124   8
   4   5 -11-62.4872 191.516  11
   5  -4 -11-8.79524 96.0579  18
   4   5 -11-141.954 131.255  19
  -5   4  11 9.18411 24.0647  19
   4  -5 -11 10.5262 64.2099   1
  -5  -4  11 89.1840 199.939   6
   5  -4 -12 343.380 214.945   3
  -5  -4  12 800.785 218.246  17
  -5   4  12-33.9436 110.264   6
   5   4 -12 227.682 122.411   4
  -5  -4  12 104.675 24.0121  16
  -4  -5  12 427.053 340.289  16
  -5   4  12 353.310 310.616  17
   5   4 -12 234.143 185.827   3
   4   5 -12 219.891 241.402   3
  -4   5  12-182.846 289.558   5
  -4  -5  12 304.965 173.105   8
  -5  -4  12 476.507 192.100  14
  -4   5  12 327.453 268.339  16
  -5  -4  12 384.356 272.997   6
  -5   4  12 335.770 237.593   2
   5   4 -12 88.4502 93.3974  13
   4   5 -12 27.6309 95.6557  13
   4  -5 -12 360.935 208.941   3
   5  -4 -12 290.148 209.312  13
  -4   5  12 543.417 391.249   2
   4   5 -12 264.025 249.636  12
   4   5 -12 27.9508 38.1041  19
   5  -4 -12-50.0659 131.912   1
   5   4 -12 184.525 155.604  12
   4  -5 -12 386.002 131.129  12
   5  -4 -12 275.074 116.617  12
   5  -4 -12 1490.71 724.859  11
   5   4 -12 1115.71 442.931  11
   4  -5 -12 364.084 297.181  11
   5   4 -12 163.695 118.150  19
   4  -5 -12 216.172 165.180   1
   5  -4 -12 420.584 273.690  18
  -4   5  12 41.9102 134.150  17
  -4  -5  12 562.826 278.762   6
  -4  -5  12 456.626 212.856  14
  -5   4  12 189.267 234.126  16
   5   4 -12 235.969 123.438  18
   4  -5 -12 190.554 166.541  18
  -5  -4  12 248.630 154.641   8
  -5  -4  13 490.895 171.344  17
  -4   5  13 53.1477 120.937  17
   5  -4 -13 284.902 247.463  13
  -5  -4  13 357.318 274.908  16
  -4  -5  13 520.601 335.888  16
  -4   5  13 419.422 293.311  16
   5  -4 -13 524.662 261.200   3
   5   4 -13 516.011 249.775  11
   5   4 -13 128.547 197.459   3
   4   5 -13 448.313 312.078   3
  -4  -5  13 413.618 193.749  14
  -4   5  13-27.6464 242.901   5
  -5  -4  13 519.070 208.926  14
   4  -5 -13 187.195 164.500  18
  -5  -4  13 417.773 262.937   6
   4   5 -13 253.666 195.567  13
  -5   4  13 256.140 274.082   2
  -5   4  13 328.662 308.348  16
   5   4 -13 13.3804 13.4224  13
   4   5 -13 878.791 403.228  12
  -4   5  13 624.906 405.946   2
   5   4 -13 48.6782 67.2738  19
   4  -5 -13 324.128 121.519  12
   5   4 -13 262.236 215.052  12
   5  -4 -13-57.6780 120.147   1
   5  -4 -13 458.437 196.117  12
   5  -4 -13 821.593 489.214  11
   4  -5 -13 218.693 96.9413  11
  -4  -5  13 490.946 278.904   6
   4   5 -13 166.263 173.477  19
   5  -4 -13 305.040 238.056  18
   4  -5 -13 91.6070 87.3722   1
  -5   4  13 356.119 287.963  17
  -5  -4  13 36.8894 82.0036   8
  -4  -5  13 521.538 294.428   8
   5   4 -13 41.8696 161.008  18
   4  -5 -13 627.786 332.193   3
  -4  -5  14 282.672 200.426   6
  -5   4  14 215.758 276.343  17
   5  -4 -14 162.126 73.9819  12
  -5  -4  14 171.595 269.629  16
  -5  -4  14 237.738 253.885   6
   4   5 -14 808.122 426.627  12
   5   4 -14 277.762 228.083  12
  -4  -5  14 463.729 323.344  16
  -4   5  14 268.871 271.890  16
  -4   5  14 78.0990 138.204  17
  -4  -5  14 180.831 149.615  14
  -4  -5  14 342.138 247.564   8
  -4   5  14-58.7406 200.434   5
   4  -5 -14 83.3483 139.535   1
   4  -5 -14 545.952 304.744   3
  -5   4  14 36.0972 225.165   2
   5   4 -14 93.6384 130.803  13
   4   5 -14 668.386 413.391   3
  -5  -4  14 177.876 139.035   8
   4   5 -14 474.525 265.652  13
   5  -4 -14 495.096 357.630  13
   5  -4 -14 317.677 270.264  18
   4  -5 -14 388.530 180.158  12
   5  -4 -14 315.684 196.566   3
  -4   5  14 481.109 367.596   2
   5  -4 -14-65.3288 141.859   1
  -5   4  14 200.126 123.831  16
   5  -4 -14 304.098 209.546  11
   4  -5 -14 145.151 84.9491  11
   4   5 -14 59.8630 120.462  19
   5   4 -14 54.3541 104.824  11
   4  -5 -14 92.1225 145.148  18
  -5  -4  14 189.201 62.8146  17
   5   4 -14 213.951 242.812   3
  -5  -4  14 333.298 181.652  14
   5  -4 -15 101.444 174.489  18
  -4   5  15 0.42631 61.2913  17
  -5  -4  15 3.77382 71.8067  17
  -5   4  15-177.238 243.087  17
  -5   4  15-42.8851 3.69692  16
  -4  -5  15-2.31277 91.4211  16
   4   5 -15 13.9992 37.6300  19
   5   4 -15 133.263 227.166   3
  -4  -5  15 26.1292 16.2045  14
  -5  -4  15 31.0064 62.7889  14
  -5  -4  15-39.2129 98.3241   6
  -4   5  15 72.2924 227.195  16
  -4   5  15 183.783 292.003   2
   5   4 -15-19.1213 62.6064  13
   4   5 -15 775.843 343.333  13
   5  -4 -15 482.998 439.306  13
   4  -5 -15 473.489 248.582  12
   5   4 -15 19.5988 145.993  12
  -5   4  15 163.591 264.124   2
   4  -5 -15-142.882 310.643  11
   5  -4 -15-15.0204 62.4191   1
   5  -4 -15-114.503 120.663  11
   5  -4 -15-9.33972 79.1452  12
  -5  -4  15 144.452 173.359   8
  -4  -5  15 87.0859 179.637   8
   5   4 -15-68.1639 117.982  19
  -5  -4  15 93.2271 242.079  16
   4  -5 -15 91.4396 146.833   1
   5  -4 -15 79.1597 176.911   3
  -4  -5  15-110.687 165.069   6
  -4   5  15 53.4266 84.1094   5
  -5  -4  16 105.122 106.164   6
  -4  -5  16 34.0248 120.647   6
   5  -4 -16 171.767 133.812  12
  -5   4  16 258.913 270.678  17
  -4   5  16 6.12360 92.5008  17
  -5  -4  16-228.286 146.355  17
   4  -5 -16-24.8741 61.5008   1
  -5   4  16 124.063 237.103  16
  -4  -5  16 171.959 242.315  16
  -4   5  16 390.594 293.295  16
  -4  -5  16-18.1928 157.964  14
   5   4 -16 497.439 360.843   3
   5  -4 -16 214.077 246.217   3
  -4   5  16 29.6900 24.4043   5
  -5  -4  16 120.033 125.219  14
  -5   4  16 113.111 227.472   2
   5   4 -16 166.784 159.367  13
   5  -4 -16 30.5038 229.172  18
   5   4 -16 154.576 255.381  12
  -4   5  16 293.464 358.979   2
  -4  -5  16 51.5849 166.344   2
   5  -4 -16 182.871 115.908  11
  -4  -5  16 400.102 291.928   8
   4   5 -16 178.249 166.929  19
  -5  -4  16 246.838 341.892  16
   5  -4 -16 10.8788 37.7405   1
   5   4 -16-12.5648 76.3313  19
  -5  -4  16 87.1129 106.048   8
  -4  -5  17-204.176 312.366   6
  -5   4  17 84.1486 443.077  17
  -4   5  17 903.521 536.169  17
  -5   4  17 516.065 509.329  16
  -4  -5  17 608.668 357.583   8
   5  -4 -17-15.6899 122.923   1
   5  -4 -17 471.674 376.840   3
  -5  -4  17 174.320 95.2890  14
  -5  -4  17 447.587 305.188   8
   5   4 -17 287.637 312.590  12
  -5   4  17 485.622 478.649   2
  -4   5  17 231.037 138.687   5
   5   4 -17 259.360 203.226  13
  -4   5  17 419.518 379.017  16
  -4  -5  17 453.071 293.758   2
   5  -4 -17 375.105 302.161  12
   4   5 -17 30.6567 127.232  19
   5  -4 -17 306.286 199.375  11
  -5  -4  17 298.650 245.443   6
  -4   5  17 315.944 242.036   2
   4  -5 -17 40.6165 153.129   1
   5   4 -17 40.9098 94.3737  19
  -5  -4  17 401.247 327.652  16
  -4  -5  17 496.364 360.393  16
   5   4 -17 367.146 330.181   3
   5  -4 -17-144.740 413.297  18
  -5  -4  18-75.8846 280.104   6
  -5   4  18-22.1089 205.377  17
  -4   5  18-161.659 274.224  17
  -4   5  18 96.6922 115.908   5
   4  -5 -18 91.2663 138.215   1
  -5  -4  18 149.528 210.342  16
  -4   5  18 283.788 305.614  16
   5  -4 -18 279.160 298.284   3
   5   4 -18-43.8589 67.5749  19
  -4  -5  18 127.843 194.782  16
   4   5 -18 77.8789 79.9751  19
  -5  -4  18-255.780 483.733   2
  -5  -4  18 189.685 110.534   8
  -4  -5  18 377.118 306.370   8
  -4  -5  18 249.972 277.632   2
   5   4 -18 830.144 408.407  13
   5   4 -18 475.202 384.751  12
   5  -4 -18 128.783 120.910  12
  -4   5  18 335.225 330.749   2
   5  -4 -18-528.550 614.241  11
  -5   4  18 145.301 220.957   2
   5  -4 -18 0.07055 45.2089   1
   5   4 -18 397.137 373.045   3
  -5   4  18 121.315 142.132  16
  -5  -5   4-27.2689 217.917   6
  -5  -5   5 27.5128 21.4886   6
   5  -5  -5-169.210 301.417  18
  -5  -5   5-27.3783 94.8042  14
   5   5  -5-117.463 272.867  12
  -5   5   6 280.082 401.666  17
  -5  -5   6 378.471 275.725   6
   5  -5  -6 582.929 219.409  13
  -5  -5   6-20.9599 263.909   8
   5   5  -6 352.300 218.873  19
  -5  -5   6 255.670 195.228  14
   5   5  -6 443.684 277.198  12
   5   5  -6 238.530 180.166   3
   5  -5  -6 447.926 280.447  18
  -5   5   7-132.977 237.786  17
  -5  -5   7-66.9373 187.065   1
   5   5  -7-39.1547 118.690   3
  -5  -5   7-14.7181 40.8707   6
   5  -5  -7-38.0254 182.996  18
  -5  -5   7-69.4393 157.158  14
   5  -5  -7-45.1111 183.093   1
   5  -5  -7-16.4921 11.2814  13
   5   5  -7-124.719 270.815   5
   5   5  -7-22.2048 109.620  12
   5   5  -7-32.9959 148.399   4
   5   5  -7-15.8981 107.669  19
  -5   5   7-28.3527 55.2864   6
  -5  -5   8 636.499 281.577   8
   5  -5  -8 2850.67 616.248  13
   5   5  -8 1170.30 416.553  19
   5  -5  -8 1759.95 608.448  18
  -5   5   8 390.960 147.773   6
  -5  -5   8 1543.05 421.277  14
  -5  -5   8 989.101 266.780   1
   5  -5  -8-58.7817 160.057   1
   5   5  -8 1800.23 542.959  12
  -5  -5   8 1383.21 486.571   6
   5   5  -8 2333.23 605.209   4
   5   5  -8 1174.29 451.581   3
   5   5  -8 1666.13 454.050   5
   5  -5  -8 1201.22 419.641   3
  -5   5   8 527.145 444.407  17
   5   5  -9-7.97039 97.7860  19
  -5  -5   9-70.3251 189.586   8
   5   5  -9-7.84872 43.9672   3
  -5   5   9-61.6502 70.5065   6
  -5  -5   9-74.1378 83.0101   6
   5  -5  -9-82.8118 145.601   1
  -5  -5   9 16.7413 106.308  14
   5  -5  -9-27.8519 37.5524   8
   5  -5  -9-125.194 130.081  18
   5  -5  -9-193.280 159.846  13
  -5   5   9 137.029 415.346  17
   5   5  -9 48.3883 97.9949   5
  -5  -5   9-32.0721 68.3696   1
   5   5  -9-49.2735 94.5311  12
  -5   5   9-151.189 91.1814  19
   5   5  -9 16.9195 157.577   4
   5  -5  -9-62.4515 148.699   3
   5  -5 -10 2.04126 116.646   3
  -5   5  10 208.096 271.741  17
  -5   5  10 22.9435 46.2982   6
   5   5 -10-28.6360 34.9117  19
  -5  -5  10 175.298 199.434   6
  -5   5  10-237.586 461.056   2
   5   5 -10 179.636 196.504   3
   5   5 -10-122.388 149.069  12
  -5  -5  10 117.532 133.166  17
   5   5 -10 86.6472 155.683   5
  -5   5  10 119.833 162.545  19
   5  -5 -10-53.3803 163.304   1
  -5  -5  10 27.3252 80.7116   1
   5   5 -10-27.1863 57.3057   4
  -5  -5  10 113.388 138.936  14
  -5  -5  10-12.7312 155.534   8
   5  -5 -10 196.157 180.389  13
   5   5 -10 55.3818 82.3749  18
   5  -5 -10 72.9414 83.5930  18
  -5  -5  11-145.158 156.987   8
   5   5 -11-56.2286 109.291  19
   5   5 -11 43.9675 95.5628   3
  -5  -5  11-12.4251 90.4606   6
  -5  -5  11 24.2349 71.3358   1
  -5  -5  11 0.13423 56.3432  14
   5   5 -11-107.499 117.004  13
   5  -5 -11 58.8954 77.1586  13
   5  -5 -11-56.6509 132.229   1
   5   5 -11 51.4681 127.836  12
  -5  -5  11 89.4380 72.1281  17
  -5   5  11 61.0970 167.375  17
   5   5 -11 18.9205 76.4295   4
  -5   5  11-28.1537 103.538   6
  -5   5  11-32.3363 84.7980  19
  -5   5  11-41.7234 86.1983   2
   5  -5 -11 19.6536 46.4635   3
   5  -5 -11 66.6330 60.2749  18
   5   5 -11 99.6754 165.665   5
   5   5 -11 29.4847 64.0085  18
  -5  -5  12 425.595 301.993   6
  -5  -5  12 143.868 37.3820  17
  -5  -5  12 52.7752 62.4319  16
   5   5 -12 161.717 137.295  19
   5   5 -12-125.682 227.108   5
  -5   5  12-4.04897 171.906  16
  -5   5  12 8.65866 205.940   2
   5   5 -12-48.1623 97.9635  13
   5  -5 -12 407.829 247.392  13
  -5  -5  12-15.6607 52.7640   1
   5   5 -12 103.376 79.5457   3
   5  -5 -12 362.342 223.305   3
   5  -5 -12 31.8111 13.4020   1
   5   5 -12 58.0443 105.539  12
   5  -5 -12-26.6879 205.130  12
   5   5 -12 94.2662 110.305   4
  -5  -5  12 301.481 176.102  14
   5   5 -12 328.666 238.028  11
  -5   5  12 97.2878 212.221  17
  -5   5  12-10.7681 96.4457  19
   5   5 -12-12.3821 129.214  18
   5  -5 -12 264.376 241.156  18
  -5  -5  12-20.2343 179.644   8
  -5   5  13 29.9316 98.4928  16
   5   5 -13 44.8119 218.039   3
  -5  -5  13 81.5151 153.956   6
  -5  -5  13-44.5305 132.626  14
  -5   5  13-8.32286 177.098   2
   5   5 -13-87.9697 140.463  13
   5  -5 -13 210.867 208.021  13
   5   5 -13-53.6516 97.4504  19
   5   5 -13 59.8562 154.291  12
   5  -5 -13-41.9992 109.988  12
   5  -5 -13 26.8062 72.9717   1
   5  -5 -13 179.139 297.995  11
   5  -5 -13-50.4616 98.2944   3
   5   5 -13-82.2694 121.004  11
  -5   5  13 111.934 214.554  17
  -5  -5  13-41.8248 90.8881  17
   5  -5 -13-24.8959 88.4507  18
  -5  -5  13-129.774 272.754  16
  -5  -5  13-181.520 169.923   8
  -5  -5  14 938.853 416.985  14
  -5   5  14 348.143 286.237  17
  -5  -5  14-14.3487 99.2180  17
  -5   5  14 281.148 239.791  16
   5  -5 -14 542.437 269.963   3
   5   5 -14 1087.99 464.778  13
  -5   5  14 525.873 365.605   2
   5  -5 -14 809.136 414.318  13
   5  -5 -14 10.4000 91.2251   1
   5   5 -14 222.469 163.976  12
   5  -5 -14 351.995 165.112  12
  -5  -5  14 431.719 298.064  16
   5  -5 -14 513.335 371.657  11
   5   5 -14 1281.80 563.701   3
  -5  -5  14 288.660 224.541   8
   5   5 -14 161.844 147.890  19
   5  -5 -14 427.970 322.283  18
  -5   5  15 83.3772 223.897  16
  -5   5  15-353.618 334.769  17
  -5  -5  15-117.034 237.843  16
   5  -5 -15 163.786 181.040   3
   5   5 -15 462.926 321.490   3
  -5  -5  15-75.7496 121.579  14
   5   5 -15 79.6052 109.918  19
   5   5 -15 47.7115 111.210  13
   5  -5 -15 554.830 403.070  13
   5   5 -15 137.913 125.635  12
   5  -5 -15-87.9133 142.966  12
  -5   5  15 92.8644 279.316   2
   5  -5 -15-142.754 306.039  11
   5  -5 -15-15.2569 20.4558   1
  -5  -5  15 4.03314 95.5927   8
   5  -5 -15-34.2073 188.647  18
  -5  -5  15 7.67321 83.5298   6
  -5   5  16 353.565 520.157  17
   5   5 -16 86.5135 159.373  13
  -5   5  16 23.5982 78.7068  16
   5   5 -16 252.641 234.555   3
  -5   5  16-180.902 394.648   2
  -5  -5  16 13.1131 100.282  14
   5   5 -16 214.917 186.746  12
   5  -5 -16-8.50837 229.175  12
  -5  -5  16 14.8195 50.2569   6
   5  -5 -16-147.157 108.163   1
   5  -5 -16-109.686 191.451  11
   5   5 -16-57.6386 135.463  19
   5  -5 -16 405.601 356.662   3
  -5  -5  16 18.7045 63.0616   8
   5  -5 -16-140.808 293.786  18
  -5  -5  16 143.865 265.400  16
   5  -5 -17-101.779 314.492  11
  -5  -5  17-41.0041 45.7894   6
  -5  -5  17 313.358 333.621  16
   5  -5 -17 759.468 352.273   3
   5   5 -17 391.101 348.447   3
   5   5 -17 185.366 137.410  19
  -5  -5  17 26.0890 83.6598  14
   5   5 -17 224.276 230.085  13
  -5   5  17 281.233 439.693   2
   5  -5 -17 1067.32 447.651  12
   5   5 -17 219.391 344.911  12
  -5   5  17 122.000 253.952  16
   5  -5 -17 34.7365 168.482   1
   5  -5 -17-311.372 454.187  18
  -5  -5  17 162.596 243.545   8
  -5   5  17 2.79756 246.144  17
   0   6   0-11.6560 48.0343   3
   0   6   0 82.9744 80.4677  17
   0  -6   0 316.225 127.285   6
   0  -6   0 196.094 99.0588  11
   0  -6   0 166.240 101.175  18
   0  -6   0 206.160 126.003  14
   0  -6   0 487.824 252.755   1
   0   6   0 244.392 172.168   5
   0   6   0 382.905 206.039   2
   0   6   0 118.657 70.2764  12
   0   6   0 282.357 214.235  19
   0   6   0 206.451 137.254   4
   0  -6   0 310.768 192.302   8
   0   6  -1 1.64938 32.2738  17
   0  -6  -1-1.36141 31.1502   8
   0  -6   1-17.2057 13.6304   6
   0  -6  -1 17.0242 50.3939   6
   0  -6   1-1.96782 58.6426   1
   0   6  -1 51.0521 108.159   5
   0  -6   1 18.1945 59.1090  14
   0  -6  -1 3.56265 58.4272  14
   0   6  -1 1.61425 61.9772   2
   0  -6  -1-8.94446 56.2448  18
   0   6   1 40.3557 151.641   5
   0   6   1 0.06800 26.6750  17
   0   6   1 19.2990 72.6833   4
   0   6  -1 117.734 158.024  12
   0   6  -1 25.1131 20.7700   3
   0  -6  -1 18.6144 7.82668   1
   0   6   1-17.6997 57.8905  12
   0   6   1 55.8031 106.882   2
   0  -6   1 80.6488 135.527   8
   0   6  -1 29.7117 28.9630   4
   0  -6   1-4.35133 7.32959  11
   0   6  -1 106.996 202.183  19
   0   6   1-42.7879 69.0428  19
   0  -6   1 10.4310 34.4514  18
   0  -6   2 260.935 121.333  16
   0   6  -2 87.2247 87.9290  17
   0  -6   2 336.497 190.734   1
   0   6   2 102.276 84.2481  17
   0   6  -2 186.109 176.411  19
   0  -6   2 379.470 238.069   8
   0  -6   2 218.266 109.702   6
   0   6   2 270.342 173.062   4
   0  -6   2 229.884 139.413  14
   0  -6  -2 176.780 111.717  14
   0   6  -2 132.914 170.841   5
   0  -6  -2 19.1653 98.2777  18
   0   6   2 227.406 143.687   2
   0   6   2 406.796 239.565   5
   0  -6  -2 337.967 193.050   1
   0   6  -2 30.4728 166.662   4
   0  -6   2 507.031 186.769  11
   0   6   2 268.637 195.261  19
   0  -6  -2 172.742 124.654   8
   0  -6  -2 386.791 133.862   6
   0  -6   2 271.384 127.266  18
   0  -6  -3 85.6597 70.0570   6
   0  -6   3-18.2463 56.1378   6
   0   6   3 195.528 171.827   2
   0  -6   3 32.7539 87.2578  16
   0  -6   3-17.8117 93.1947  14
   0   6  -3 20.2742 38.4163  17
   0   6  -3-81.6901 223.649   5
   0  -6  -3 70.7253 83.9438  14
   0   6  -3-49.2088 45.1137  19
   0  -6  -3 48.8190 88.6165   8
   0   6   3 130.287 166.911   5
   0   6   3 102.500 154.908  19
   0  -6  -3 147.847 132.072   1
   0  -6   3-42.6661 101.109   1
   0  -6   3 26.2758 99.4568   8
   0   6   3 81.1796 95.5558  17
   0  -6   3 59.1281 89.0059  18
   0   6   3 151.096 164.434   4
   0   6  -4 39.5469 121.332  17
   0  -6   4 9.03586 25.6998  16
   0  -6  -4 40.5254 81.3359   1
   0  -6   4-6.69603 73.9689  14
   0   6   4 31.0708 46.8433  19
   0   6   4 21.8570 85.7958   5
   0   6  -4-12.7225 79.2113  19
   0  -6   4 15.1603 20.8594   1
   0  -6   4-2.01742 44.4803   6
   0   6   4-7.47103 34.4636   4
   0  -6  -4 16.2086 99.7601   8
   0   6   4-10.8914 52.2551  17
   0  -6   4 41.0227 59.1355  18
   0   6   4 13.9753 79.4522   2
   0  -6  -4 22.3014 47.1699  14
   0  -6   4 2.83784 125.239   8
   0  -6   5-56.7245 154.501   6
   0   6   5 48.9564 74.1071  17
   0  -6   5 20.6502 79.6557  16
   0   6  -5-16.0843 46.8529  17
   0  -6   5-29.9261 90.0547  14
   0  -6  -5 33.0598 62.2829  14
   0  -6   5 40.4784 128.495   8
   0   6   5 54.0147 132.834   5
   0  -6   5 17.1786 54.8898   1
   0  -6  -5-2.97459 1.75266   1
   0   6  -5-120.497 232.465  19
   0   6   5-29.3326 120.843  19
   0   6   5 32.8771 66.7500   4
   0  -6   5 8.15402 47.4645  18
   0   6   5-20.0574 102.473   2
   0   6   6 702.679 341.016  19
   0  -6   6 615.875 221.310  16
   0  -6   6 268.287 156.174  14
   0  -6   6 110.094 94.5503   1
   0   6   6 154.685 142.516  17
   0   6   6 682.781 293.891   5
   0   6   6 584.951 257.521   2
   0   6  -6-180.453 331.426  19
   0  -6   6 596.851 328.365   8
   0  -6  -6 508.332 186.081  14
   0  -6  -6 388.313 228.711   1
   0   6   6 352.138 150.832   4
   0  -6   7-27.2157 118.301  14
   0   6   7-55.1997 81.2729  17
   0  -6  -7 12.6169 55.2204   1
   0  -6   7-23.1915 87.9224  16
   6   0  -7-212.041 203.570   3
   0  -6  -7-5.66235 39.2501  14
   0   6   7 13.3860 58.3927   5
   0   6   7-376.274 294.780  19
   0   6   7 11.7438 43.7791   2
   0  -6   7 17.0433 54.5117   8
   0  -6   8 36.0096 113.044  14
   6   0  -8 513.457 296.928   3
   0   6   8 31.8988 71.6264  17
   0  -6   8 140.236 54.8639   8
   0  -6   8 167.972 86.1159  16
   0  -6  -8 159.511 148.351   1
   6   0  -8-25.9232 265.248  13
   0  -6  -8 125.489 84.7126  14
   0   6   8 181.656 159.803   5
  -6   0   8 36.2598 38.9369   6
   0   6   8 184.614 172.553   2
   0   6   9-12.8930 158.143   2
   0   6   9-50.1907 81.7589  17
   0  -6   9-116.032 202.872  16
  -6   0   9 9.36456 72.3494   6
   0  -6  -9 12.4511 52.1268  14
   0  -6   9-180.687 355.819   8
   0   6   9-122.961 173.161   5
   0  -6  -9 3.91525 59.1014   1
   6   0  -9-136.804 227.878  12
   6   0  -9-97.3296 177.936   3
   6   0  -9-59.2836 116.211  13
   6   0 -10-38.3910 153.028   3
   0   6  10-27.8933 132.786   2
   0  -6  10-318.020 454.567   8
   0   6  10-63.6199 146.918  17
   0   6  10-82.5053 189.809   5
   0  -6  10-161.814 275.115  16
   0  -6 -10 33.6209 50.0116  14
   6   0 -10-25.2929 142.217  13
   6   0 -10 16.4556 92.6700  12
  -6   0  10 7.00208 49.0322   6
   0  -6 -10-1.68820 58.8119   1
   6   0 -10 92.0381 80.4990  18
  -6   0  10-65.6212 212.109  17
  -6   0  11 59.4474 98.2313   6
   0  -6  11-149.207 290.016  16
   6   0 -11 91.7421 118.805   3
   6   0 -11-111.059 142.690   4
   0  -6 -11-25.0816 59.7510   1
   0  -6 -11-15.4134 43.8475  14
   6   0 -11-0.98351 122.277  13
   0   6  11-99.9868 165.303  17
   6   0 -11 23.7477 64.2434  18
   6   0 -11-54.4432 153.656  12
   0   6  11-65.6365 125.421   2
  -6   0  11 263.164 172.836  17
   0   6  12 75.6902 52.2663  17
   0  -6  12 581.895 159.029  16
   0   6  12 511.971 176.048   5
  -6   0  12 858.868 358.660   6
   0  -6 -12 173.755 107.594  14
  -6   0  12 430.018 121.497  14
   6   0 -12 1899.53 516.606  12
   6   0 -12 2286.22 347.951   4
   6   0 -12 1503.11 449.360  13
   0  -6  12-179.188 474.768   8
   0   6  12 1011.50 382.012   2
   6   0 -12 2495.05 630.155   3
   6   0 -12 2471.26 628.838  18
   0  -6 -12 122.184 105.541   1
  -6   0  12 1859.93 593.270  17
  -6   0  13 195.637 221.431  17
   0   6  13 19.9636 128.986   2
   6   0 -13-114.274 154.518  13
   6   0 -13-108.735 244.801   3
   0  -6  13-183.004 338.075  16
  -6   0  13-0.66079 88.8935  16
  -6   0  13 26.2076 54.5073  14
   0  -6 -13-20.9000 82.7789   1
   6   0 -13-48.3839 132.140  12
  -6   0  13 195.520 169.105   6
   6   0 -13 68.9893 144.228  18
   0   6  14 131.139 74.4247   2
   6   0 -14 365.628 231.584   3
  -6   0  14 328.571 110.831  14
   0  -6  14-89.9453 353.903  16
  -6   0  14 208.498 198.532  16
   6   0 -14 531.319 266.899  13
   6   0 -14 231.470 149.038  12
  -6   0  14 831.734 372.376  17
   6   0 -14 544.519 315.801  18
  -6   0  14 382.463 243.474   6
  -6   0  15 11.3454 103.704  17
   6   0 -15 38.4905 204.119   3
   0  -6  15-184.630 301.504  16
  -6   0  15-1.23581 20.4370  14
   6   0 -15 13.6390 118.420  13
   6   0 -15 64.3509 48.4828  12
   6   0 -15 429.418 376.693  11
  -6   0  15-170.071 218.518  16
   6   0 -15 14.7636 126.894  18
  -6   0  15-33.5608 92.7921   6
   6   0 -16 85.8326 142.674   3
  -6   0  16-18.6434 63.9637   6
  -6   0  16 37.7836 64.2647  16
  -6   0  16-386.041 519.489   2
   0  -6  16-254.658 348.620  16
   6   0 -16-71.2908 31.8909  13
   6   0 -16 96.1542 121.155  12
  -6   0  16-15.1459 100.619  17
   6   0 -16 173.458 177.077  11
   6   0 -16 17.3078 117.674  18
  -6   0  17-217.143 289.351  17
   6   0 -17-16.9851 94.4050   3
  -6   0  17-156.127 374.055   2
   6   0 -17 192.934 211.265  13
   6   0 -17-106.935 102.602  12
  -6   0  17-35.3771 124.082   6
   6   0 -17 83.4934 182.805  11
   6   0 -17-132.525 290.415  18
  -6   0  17 130.248 251.492  16
  -6   0  18 115.629 186.743  16
  -6   0  18-66.2128 204.537   2
  -6   0  18 17.1039 149.334  17
   6   0 -18 255.666 312.781   3
  -6   0  18-121.777 212.239   6
   6   0 -18 273.358 334.631  13
   6   0 -18 377.355 195.624  12
   6   0 -18 121.044 160.240  11
   6   0 -18-204.575 358.926  18
   6   0 -19 56.0446 71.4373  12
  -1   6   0 765.645 315.045  17
  -1  -6   0 3910.98 523.423   6
   1  -6   0 3767.54 684.458   1
   1   6   0 2641.02 602.965  19
   1  -6   0 937.088 287.464  14
  -1  -6   0 2930.32 553.927   1
  -1  -6   0 2571.30 446.151  14
   1   6   0 2629.91 574.510   5
  -1  -6   0 2294.75 555.487   8
   1   6   0 2241.16 374.514   2
   1   6   0 930.605 296.453  12
   1   6   0 2966.08 593.466   4
  -1   6   0 640.441 289.219   5
   1  -6   0 2960.64 570.404   8
  -1   6   0 780.252 336.991  19
   1  -6   0 2896.90 526.934  18
  -1  -6  -1 326.365 204.921   8
   1  -6   1 632.560 283.127   1
  -1   6   1 119.513 100.432  17
  -1  -6  -1 682.400 221.279   6
  -1  -6   1 657.966 213.801   6
   1   6  -1 5.74790 45.6240  17
   1   6   1 20.6221 19.9893  17
   1   6   1 572.968 279.990   5
  -1   6  -1 74.8652 143.740  17
   1  -6  -1 605.891 244.121  18
  -1  -6   1 808.281 296.988   1
   1  -6   1 175.907 106.778  14
   1  -6  -1 642.584 264.601   8
   1  -6  -1 237.769 128.900  14
  -1  -6   1 538.676 207.458  14
   1  -6   1 555.348 295.434   8
   1   6  -1 379.785 165.912  19
  -1   6   1 202.368 167.688   5
   1   6  -1 662.705 287.765   4
  -1  -6  -1 443.077 188.039  14
   1  -6  -1 653.597 168.059  13
  -1   6  -1-83.1503 241.092   5
  -1   6   1 276.997 189.988   2
   1   6   1 295.140 141.726   2
   1   6  -1 630.184 296.411   5
   1   6   1 609.551 267.250   4
  -1  -6  -1 537.840 242.842   1
  -1   6   1 350.286 165.022  12
   1   6  -1 292.065 142.940  12
  -1  -6   1 411.758 220.918   8
  -1   6   1 56.9507 128.765   4
   1  -6  -1 824.345 328.518   1
  -1   6   1 282.057 187.659  19
  -1   6  -1 70.3587 61.5571  19
   1   6  -1 592.461 179.855   2
   1   6   1 476.172 252.576  19
   1   6   1-20.8584 178.114  12
   1  -6   1 515.117 228.333  18
   1  -6  -1 53.1613 27.5470   6
   1   6  -1 12.0418 46.7879   3
   1  -6  -2 551.388 275.384   1
   1   6   2 198.040 120.400   2
   1   6  -2 409.902 223.003   4
   1   6  -2 1.86192 67.2400  17
   1   6  -2 134.267 80.1878   3
   1  -6  -2 343.046 182.809  18
   1  -6   2 148.408 105.119  14
  -1  -6  -2 318.137 134.384   6
   1   6  -2 661.483 191.363   2
   1  -6  -2 194.687 116.150  14
   1  -6  -2 97.4510 49.5733   6
  -1  -6   2 454.820 190.199  14
   1   6  -2 392.516 246.799  19
   1   6   2 363.609 197.959  19
  -1  -6   2 446.686 263.120   8
  -1   6   2 343.623 209.629   5
   1  -6  -2 762.959 203.432  13
   1   6  -2 524.939 275.192   5
  -1   6   2 308.486 159.280  17
  -1   6   2 594.080 263.460   2
  -1  -6   2 558.130 262.804   1
   1   6   2 350.743 196.793   5
   1   6  -2 193.308 127.001  12
  -1   6   2 165.844 64.6548  12
   1   6   2 472.604 239.797   4
   1  -6   2 265.059 159.220   1
  -1   6   2 286.514 142.686   4
   1  -6  -2 801.384 321.503  11
  -1  -6   2 612.009 212.450   6
   1  -6  -2 582.263 249.636   8
  -1   6  -2 96.3521 123.568  17
  -1  -6  -2 291.573 215.903   8
  -1  -6  -2 455.568 194.793  14
  -1   6  -2-64.6514 217.908  19
   1  -6   2 372.314 208.495   8
   1  -6   2 462.755 213.644  18
  -1  -6  -2 448.578 217.563   1
  -1   6   2 357.281 213.577  19
  -1  -6   3 21.1814 82.9859   8
  -1   6   3 117.650 135.599  17
   1   6  -3-15.9842 56.9484  17
   1   6  -3 14.2768 86.2748   5
   1   6  -3-5.46127 27.6958  19
   1   6   3-94.1024 87.3963  17
   1  -6  -3 12.1796 17.0245   6
  -1  -6   3 11.4486 25.3527   6
   1   6   3-52.0767 194.410   4
   1   6  -3 48.3324 78.8047   3
   1  -6   3-14.5327 50.6624  14
   1   6   3-11.7545 46.5578   2
  -1  -6   3 13.2964 46.0377   1
  -1  -6  -3-3.97821 48.9125   1
   1  -6  -3 11.1410 47.5854  14
  -1  -6   3-20.8885 58.4322  14
   1  -6  -3 15.2216 85.6407   1
  -1   6   3-24.1406 25.3331   5
   1  -6   3 23.9028 108.921   1
   1   6  -3 75.3478 147.045  12
   1   6   3 31.5008 63.3499   5
  -1   6   3 86.1729 96.7002   2
  -1  -6  -3-8.06868 32.2969  14
   1   6   3-3.72143 66.8426  19
   1  -6   3 46.2684 43.7963   8
   1  -6   3-68.4151 175.331  18
   1  -6  -3 8.71962 49.5091  11
   1   6  -3-22.9346 57.7436   4
  -1   6   3 75.8581 115.396  19
   1  -6  -3 27.6192 69.8076   8
  -1   6   3 69.3340 106.839   4
   1  -6  -3-0.16314 13.6072  18
   1   6   4 41.9590 70.9424   2
  -1   6   4 150.879 141.897  17
  -1  -6   4 486.283 231.517   1
   1  -6  -4 209.557 92.8820   8
   1  -6  -4 196.960 114.995  14
  -1  -6   4 369.792 258.707   8
  -1   6   4 320.516 122.543  16
   1  -6  -4 217.691 70.3464   6
   1   6  -4 313.419 189.659   3
  -1  -6   4 308.967 158.386  14
   1   6  -4 206.625 174.231   5
   1  -6   4 38.1508 97.2602   1
  -1  -6  -4 198.558 138.581  14
  -1  -6   4 354.399 178.026   6
  -1   6   4 258.951 213.917   5
   1   6  -4 200.277 184.484  19
   1  -6  -4 275.962 171.400   1
  -1  -6   4 253.322 155.178  16
  -1   6   4 287.004 181.535  19
   1   6   4 158.993 130.558   5
  -1   6   4 455.032 262.100   2
   1   6  -4 109.961 53.8805   4
  -1   6   4 194.094 138.302   4
   1  -6  -4 237.397 157.608  11
   1   6   4 361.664 227.760  19
  -1  -6  -4 160.634 154.133   1
   1  -6   4 1.37487 205.664   8
   1   6   4-52.1980 67.7695  17
   1  -6  -4 201.044 142.014  18
   1  -6   4-13.0189 117.725  14
   1   6  -4 6.28289 27.8223  17
   1  -6   5-14.3451 130.324  14
   1   6   5-107.395 100.954  17
  -1   6   5 284.129 194.488  17
   1   6   5 57.3910 100.019   2
  -1  -6   5 759.066 271.003  16
  -1  -6  -5 199.518 146.887   1
  -1  -6   5 712.268 260.001  14
   1  -6   5-76.2640 215.887   1
   1  -6  -5 297.313 137.575  14
   1   6  -5 127.558 93.7084   5
  -1  -6   5 947.115 321.939   1
  -1  -6  -5 303.750 150.481  14
   1   6  -5 430.361 257.109  19
  -1   6   5 681.160 307.319   5
   1   6  -5-12.8177 37.7544  13
   1   6  -5 37.6528 12.0596  17
   1  -6  -5 375.528 207.370   8
   1   6   5 249.958 118.161   5
  -1   6   5 592.262 255.678   4
   1   6   5 674.263 354.038  19
   1  -6  -5 298.118 188.313  11
   1   6  -5 64.4428 185.567   4
  -1   6   5 661.121 183.711  16
  -1  -6   5 778.300 266.416   6
   1  -6  -5 750.840 293.113   1
  -1   6   5 760.943 318.307   2
  -1   6   5 808.838 331.228  19
   1  -6   5 28.4076 265.658   8
  -1  -6   5 908.273 358.578   8
  -1  -6   5 296.632 76.8413  18
   1  -6  -5 330.068 181.981  18
   1  -6  -6 161.220 94.5734  14
  -1  -6  -6 49.9387 61.8823   1
  -1   6   6 424.026 246.794   5
  -1   6   6 135.422 150.243  17
   1   6   6-39.3307 156.653   2
  -1   6   6 303.471 137.458  16
  -1  -6   6 336.675 198.155  14
  -1  -6   6 249.444 142.283   6
   1  -6  -6-15.5603 175.097  11
  -1  -6   6 225.697 72.3206  18
  -1  -6   6 502.348 234.042  16
   1  -6  -6-15.0610 251.382   8
  -1   6   6 337.501 187.104   4
   1   6   6-27.8965 206.742   5
  -1   6   6 286.475 203.553  19
  -1  -6   6 254.377 151.358   1
  -1  -6  -6 111.559 96.5422  14
  -1   6   6 408.878 243.795   2
   1   6  -6 124.928 113.417  19
  -1  -6   6 418.209 264.854   8
   1  -6  -6 326.630 206.488   1
   1   6   6-154.008 125.279  17
   1  -6  -6 1.66075 136.392  18
   6  -1  -7 391.398 246.288   3
   1  -6  -7 610.598 267.752   1
  -1   6   7 317.092 234.146  17
  -1  -6   7 585.733 245.665   6
   1   6   7 18.4055 135.333   2
   1   6  -7 158.041 202.902  19
  -6  -1   7-197.354 184.570   6
  -1  -6   7 600.183 265.051  14
   1  -6  -7-19.4715 226.411  11
   1  -6  -7 450.085 159.778  14
  -1  -6   7 897.158 339.265   8
  -1   6   7 580.186 266.632   5
  -1  -6  -7 82.3553 101.598   1
  -1  -6   7 231.167 152.922   1
  -1   6   7 472.701 185.097  16
  -1   6   7 708.531 262.543   4
  -1   6   7 855.342 322.081   2
  -1   6   7 816.523 354.462  19
   6   1  -7 609.938 360.605   3
  -1  -6   7 1025.75 346.793  16
  -1  -6  -7 266.549 143.528  14
   1  -6  -7 71.4962 137.756  18
   1  -6  -8 289.382 129.622  14
  -1   6   8 227.807 180.028  17
  -6  -1   8 123.552 149.416   6
   6   1  -8 550.208 356.495   3
   1   6   8-15.7245 207.559   2
   1   6  -8 39.9540 32.2733  19
  -1  -6   8 555.368 274.439  16
   6  -1  -8 194.344 152.548  13
  -1   6   8 311.824 164.030  16
   1  -6  -8 366.821 223.877   1
  -1  -6   8 339.080 200.132  14
  -6   1   8-34.3392 134.690   6
  -1   6   8 508.095 260.739   5
  -1  -6  -8 24.9353 91.4126   1
   6   1  -8 415.660 201.568  12
  -1  -6   8 511.374 309.668   8
  -1   6   8 576.213 307.755   2
  -1   6   8 544.153 230.176   4
  -1  -6   8 245.949 142.180   6
  -1   6   8 412.302 266.545  19
  -1  -6  -8 73.9991 92.8796  14
   6  -1  -8 616.719 334.832   3
  -1   6   9 139.943 87.4041  16
   6  -1  -9 632.089 327.578   3
  -1  -6   9 107.241 114.910   6
   6   1  -9 400.302 299.481   3
   1   6   9-18.7520 217.563   2
  -1  -6  -9-16.1600 80.4370   1
  -6  -1   9 231.142 199.517   6
  -6   1   9 74.8346 120.395   6
  -1  -6   9 251.012 181.637  14
  -1   6   9 514.548 265.126   5
   1  -6  -9 271.414 204.805   1
  -1   6   9 498.014 251.828   2
   1  -6  -9 231.120 124.245  14
   6  -1  -9 177.991 114.900  18
   6   1  -9 67.1117 54.4849  13
   6  -1  -9 325.751 184.389  13
  -1  -6   9 642.084 329.166  16
   6   1  -9 465.152 265.979  12
   1   6  -9-68.3355 161.546  19
  -1   6   9 215.142 170.002  17
  -1  -6   9 579.488 333.620   8
  -1   6   9 352.642 186.972   4
  -1  -6  10 1120.46 421.437   8
  -1   6  10 291.886 162.425  17
   6  -1 -10 993.196 401.708  18
  -6   1  10 404.688 202.801   6
  -6  -1  10 620.439 287.343   6
  -1   6  10 399.232 153.756  16
  -1   6  10 832.549 335.211   5
  -1  -6  10 312.391 158.508  14
  -1  -6  10 427.003 114.156   2
   1  -6 -10 331.034 142.652  14
   1   6 -10-324.643 355.064  19
   6   1 -10 366.307 182.333  13
   6  -1 -10 859.243 320.524  13
   1  -6 -10 498.170 263.587   1
   6   1 -10 1066.14 382.607  12
   6  -1 -10 906.807 347.615  12
   6  -1 -10 1198.40 433.961   3
  -6   1  10-76.7706 155.312  17
  -1   6  10 678.175 257.316   2
   6   1 -10 658.595 258.347  18
   6   1 -10 1356.25 453.530   3
  -1   6  10 597.398 183.553   4
  -1  -6  10 849.294 364.249  16
   6  -1 -11 466.120 283.142  18
  -1  -6  11 106.939 51.1950   2
   6  -1 -11 360.106 233.659   3
  -1  -6  11 465.594 287.136   8
  -6   1  11 296.010 202.349  17
  -6   1  11 173.068 139.114   6
  -6  -1  11 308.073 260.338   6
  -1  -6  11 405.613 265.163  16
  -1  -6  11 13.5856 201.854  14
   6   1 -11 550.508 265.860  18
   1  -6 -11 73.8928 91.9272   1
   1  -6 -11 101.007 96.7885  14
   6   1 -11 590.392 211.393   4
  -6  -1  11-95.3430 201.773  14
  -1   6  11 192.239 164.513   2
   6   1 -11 280.599 275.214   3
  -1   6  11 25.3741 85.9456  16
   6   1 -11 96.8315 83.9480  13
   6  -1 -11 163.532 94.7829  13
  -1   6  11 386.869 236.414   5
  -1   6  11 58.9046 62.6735  17
  -6  -1  11 253.661 221.063  17
   6   1 -11 128.037 52.0189  12
   6  -1 -11 333.591 174.920  12
   1   6 -11-300.031 350.979  19
  -6   1  12 526.277 316.384  17
   6  -1 -12 502.371 252.432  12
  -6  -1  12 652.988 332.840  17
   6   1 -12 231.901 170.560  13
  -1  -6  12 128.154 70.9705   2
   6   1 -12 790.755 353.715  18
   6   1 -12 399.240 283.485   3
  -6   1  12 246.256 168.147   6
  -1  -6  12 460.725 335.241  16
  -1   6  12 113.736 53.3640  16
   1  -6 -12 145.450 101.946  14
  -1  -6  12 525.778 341.334   8
  -6  -1  12 344.625 140.614  14
   6  -1 -12 346.863 229.392  13
  -1   6  12 362.361 203.884   5
  -1   6  12 165.201 193.869  17
   6   1 -12 590.727 279.606  12
   6   1 -12 755.892 238.499   4
   6  -1 -12 691.973 340.444   3
   1  -6 -12 65.0840 90.2931   1
  -6  -1  12 289.997 208.739   6
  -1   6  12 409.978 230.693   2
   6  -1 -12 794.737 379.146  18
  -6   1  13 543.317 368.850  16
  -1  -6  13 348.379 94.7566   2
   6  -1 -13 1435.80 493.970   3
  -6  -1  13 1604.14 533.981  17
  -6   1  13 1497.23 556.398  17
  -6   1  13 364.111 192.597   6
  -6  -1  13 479.961 320.738   6
  -1   6  13 183.959 163.168  17
  -1  -6  13 916.496 422.312  16
  -1   6  13 210.712 25.6946  16
  -6  -1  13 1245.48 257.655  14
  -1   6  13 795.075 328.809   5
   6   1 -13 1031.19 376.021  12
   1  -6 -13 172.354 103.708  14
  -6   1  13 317.589 114.711  14
   6   1 -13 501.746 241.239  13
   1  -6 -13 210.766 170.219   1
   6  -1 -13 1018.14 401.641  13
   6  -1 -13 1132.88 386.074  12
  -1  -6  13 841.645 354.953   8
   6   1 -13 690.560 195.753   4
   6   1 -13 1292.64 427.419   3
   6   1 -13 1375.73 442.151  18
   6  -1 -13 1491.39 514.320  18
  -1   6  13 777.326 360.609   2
  -6  -1  13 489.958 325.220  16
  -6  -1  14 618.879 355.880  17
  -1  -6  14 203.442 37.7022   2
  -1   6  14-67.5401 110.781  17
   6   1 -14 282.008 196.154  13
  -6   1  14 177.150 156.017   6
   6  -1 -14 432.644 266.022   3
  -6  -1  14 284.613 294.609  16
   6   1 -14 165.150 212.361   3
  -1  -6  14 543.083 302.951  16
  -1   6  14 78.1502 140.819  16
  -6  -1  14 508.429 163.246  14
   1  -6 -14 131.089 111.176  14
   6  -1 -14 378.286 245.768  13
  -1   6  14 322.710 227.572   5
  -6  -1  14 158.315 149.018   6
   6   1 -14 487.820 245.688  12
   6  -1 -14 356.121 193.369  12
  -6   1  14 222.240 242.626  16
   6   1 -14 2426.31 801.647  11
   6  -1 -14 1929.25 770.943  11
   6  -1 -14 552.342 306.703  18
  -6   1  14 502.371 413.324  17
  -6   1  14-482.842 709.918   2
  -1   6  14 398.958 237.874   2
   6   1 -14 606.844 288.894  18
   1  -6 -14 75.9644 95.6574   1
  -1  -6  14 562.322 340.846   8
  -1  -6  15 26.6936 120.189   2
  -6   1  15 270.633 245.841  17
  -1  -6  15 170.064 191.055   8
   1  -6 -15-1.28912 45.0120   1
  -6  -1  15 134.672 86.3484  14
  -6   1  15 79.2058 125.409   6
  -1   6  15-330.997 250.413  17
  -6   1  15 268.913 314.819  16
  -1   6  15 94.5834 48.5649   5
   6  -1 -15 151.618 107.308   3
   6   1 -15 192.903 225.651   3
  -1  -6  15 320.755 333.102  16
  -1   6  15-62.5178 188.776  16
  -6  -1  15 190.366 157.759   6
  -6   1  15-140.683 489.517   2
  -1   6  15 129.399 157.397   2
   6   1 -15 260.042 236.018  13
   6   1 -15 75.1526 88.5277  12
   6  -1 -15 180.616 115.577  12
   6  -1 -15 986.298 601.793  11
   6   1 -15 670.293 403.077  11
  -6  -1  15 452.787 285.862  17
   6  -1 -15 200.803 153.635  18
   6  -1 -15 185.843 236.217  13
   1  -6 -15 36.9834 58.7735  14
  -6  -1  15 23.7602 149.320  16
   6   1 -15 137.777 173.724  18
   6  -1 -16 496.814 289.095  18
  -6   1  16 388.550 254.770  17
  -6  -1  16 62.5938 118.401  17
  -6  -1  16 41.8831 96.1205   6
   1  -6 -16-13.4900 43.9331   1
  -6   1  16 386.741 363.051  16
  -1  -6  16 259.748 101.463   2
  -6   1  16 6.58252 249.349   2
   6   1 -16 371.110 256.147   3
  -1   6  16-2.14296 113.169  16
  -6  -1  16 34.6776 12.1990  14
   1  -6 -16 38.0385 21.4992  14
  -6  -1  16 380.954 333.510  16
   6   1 -16 243.739 192.397  13
   6  -1 -16 313.978 259.845  13
  -6   1  16 4.68972 92.8594   6
  -1   6  16 351.931 228.483   5
  -1  -6  16 185.329 111.785   8
   6  -1 -16 399.541 223.560  12
  -1  -6  16 357.016 289.659  16
   6   1 -16 300.575 185.936  18
   6  -1 -16 721.113 405.738  11
   6   1 -16 1042.48 484.578  11
  -1   6  16 617.730 398.134   2
   6   1 -16 223.328 149.605  12
   6  -1 -16 468.699 306.555   3
  -6  -1  17-168.281 253.852   8
  -1  -6  17-19.2604 125.035   2
   6  -1 -17 51.4153 153.036  18
  -6   1  17-32.9272 156.572  17
  -6  -1  17-224.197 256.982  17
  -6   1  17-159.580 199.981   6
  -6   1  17-176.356 225.785  16
  -1  -6  17 118.825 264.885  16
   6  -1 -17 9.49787 141.381   3
  -1   6  17-237.464 194.358  16
   6   1 -17 109.263 62.3944   3
  -6  -1  17 12.8371 75.2424  16
   1  -6 -17 31.1277 57.8669  14
  -6   1  17 28.0620 210.106   2
  -1   6  17 238.615 332.134   2
   6   1 -17-90.7632 112.516  13
   6  -1 -17-36.5838 116.887  13
  -1   6  17-19.0728 76.7064   5
   6   1 -17-28.6002 93.8783  12
   6  -1 -17-0.07185 116.217  12
   6  -1 -17 112.709 129.996  11
   6   1 -17 10.1460 8.43483  11
  -6  -1  17-39.1912 136.682   6
   1  -6 -17-48.9380 146.268   1
  -1  -6  17-17.0032 217.386   8
   6   1 -17-130.545 260.860  18
  -1  -6  18 315.331 159.545   2
  -6  -1  18 445.704 260.248  17
  -6   1  18 269.236 165.102  17
  -6  -1  18 458.705 380.430  16
  -6   1  18 373.377 327.456  16
   1  -6 -18-27.8668 61.4138   1
  -1  -6  18 700.863 431.149  16
   6   1 -18 223.867 236.135   3
  -1   6  18 110.554 66.8932  16
   6  -1 -18 298.218 298.528   3
  -1  -6  18-21.2825 279.134   8
  -1   6  18 515.884 320.408   2
  -6  -1  18-103.037 391.489   2
  -6   1  18 453.051 336.649   2
   6   1 -18 143.342 223.192  13
   6  -1 -18 135.118 235.503  13
   6   1 -18 235.624 228.888  12
   6  -1 -18 477.849 218.783  12
   6   1 -18 281.503 143.217  11
   6  -1 -18 296.127 164.728  11
  -6  -1  18 0.52349 114.219   6
  -6  -1  18 107.311 127.438   8
   6  -1 -18-97.8143 304.565  18
  -2   6   0 127.859 160.872  17
   2  -6   0 506.464 242.404  18
  -2  -6   0 249.866 168.611   8
   2  -6   0 1.00898 108.712  14
  -2  -6   0 487.642 235.790   6
   2   6   0 505.505 244.920   4
  -2  -6   0 447.410 196.818  14
   2   6   0 628.235 287.549  19
  -2  -6   0 414.743 229.499   1
   2   6   0 494.038 244.427   5
   2  -6   0 388.363 229.528   1
   2   6   0 39.8405 214.445  12
   2  -6   0 296.094 153.096   8
  -2  -6  -1 1659.31 421.680   1
   2  -6  -1 3546.90 708.038   1
  -2  -6   1 3696.35 563.751  14
  -2  -6   1 3460.73 599.004   1
   2  -6  -1 228.571 129.478  14
   2   6  -1 3644.76 686.024   5
   2   6   1 2619.21 583.238   5
   2  -6  -1 2800.06 534.197   8
  -2  -6  -1 2655.31 496.694  14
  -2  -6   1 4932.34 707.304   6
  -2   6   1 175.295 181.919  17
   2   6  -1 1466.86 437.790  12
   2  -6   1 1801.67 523.183   1
   2   6  -1 3967.51 732.722   4
  -2  -6  -1 1064.01 442.721   8
   2   6   1 3446.03 793.971  19
  -2   6   1-114.215 247.994  19
   2  -6   1 883.499 271.945   8
   2  -6   1 1731.62 436.557  18
   2  -6  -1 4240.06 720.717  18
   2   6  -1 3571.69 732.294  19
  -2  -6   1 2641.53 669.777   8
  -2   6   2 114.205 129.400  17
  -2  -6   2 290.823 168.671   6
   2   6  -2 180.874 161.662  19
   2   6   2 125.008 111.177  19
  -2   6   2 31.2369 85.4185  19
  -2  -6   2 222.788 137.630  14
  -2  -6  -2 111.230 64.1984  14
   2   6  -2 27.3642 9.68343   3
  -2  -6   2 204.231 95.2091   1
   2  -6  -2 165.354 62.6502  13
   2  -6   2 41.2961 103.829   1
   2   6  -2 219.045 174.385   5
  -2  -6  -2 40.9905 70.7106   1
   2   6   2-1.81582 173.912   5
   2   6  -2 90.0574 95.8197  12
   2  -6  -2 8.61211 56.7017  14
   2   6  -2 245.258 205.943   4
   2  -6  -2 238.544 150.450   8
   2  -6  -2 234.866 193.733   1
   2  -6  -2 298.028 192.232  18
  -2  -6   2 65.5884 50.1049   8
   2  -6  -3 861.318 336.261   1
  -2  -6   3 1281.48 342.449   6
  -2  -6   3 993.966 309.330   1
  -2  -6   3 950.273 286.062  14
   2  -6  -3 60.8525 45.1568  14
   2  -6   3-40.9778 225.301   1
   2   6  -3 296.760 156.467   3
   2   6  -3 386.456 101.694   2
  -2   6   3 2.49249 177.856   5
   2   6  -3 685.930 316.941  19
  -2  -6  -3 331.798 173.077  14
  -2   6   3 605.985 292.979   2
   2  -6  -3 1226.64 280.386  13
  -2   6   3 412.131 218.682  19
   2   6  -3 574.418 234.467  12
   2   6  -3 1003.54 391.238   4
   2   6  -3 994.022 346.928   5
   2  -6  -3 1202.47 328.638   8
  -2  -6  -3 191.897 145.497   1
   2   6   3 701.178 394.422  19
  -2  -6   3 841.237 343.317   8
   2  -6  -3 886.611 341.360  18
  -2   6   3 388.446 251.974  17
  -2   6   4 394.015 235.293  17
  -2  -6  -4 58.0994 76.6067   1
   2   6  -4 537.569 219.917   3
   2  -6  -4 973.068 358.711   1
  -2  -6   4 1179.19 336.375   1
  -2  -6   4 1043.70 302.575  14
   2  -6  -4 102.499 88.5359  14
   2   6  -4 934.399 363.345   5
  -2   6   4 773.450 343.325   2
  -2   6   4 269.495 153.154   5
   2  -6  -4 1253.40 314.162  13
  -2  -6  -4 239.538 167.804  14
   2  -6  -4 1097.55 317.618   8
   2   6  -4 493.134 238.322  12
   2   6  -4 1003.95 387.642   4
  -2  -6   4 1269.33 348.434   6
  -2   6   4 707.650 287.392  19
  -2  -6   4 762.773 326.266   8
   2   6  -4 637.755 286.053  19
   2  -6  -4 835.450 328.586  18
  -2   6   5 798.587 305.660  19
  -2   6   5 552.057 263.131  17
  -2  -6   5 1116.37 329.098   6
  -2  -6   5 440.732 237.789  16
  -2  -6   5 1037.07 299.615  14
   2  -6  -5 882.631 329.814   1
   2   6  -5 374.423 188.471   3
  -2  -6   5 1371.71 368.928   1
  -2   6   5 528.873 223.035  16
   2  -6  -5 124.975 86.6246  14
  -2   6   5 431.700 253.274   5
   2   6  -5 748.579 311.547   5
  -2   6   5 807.659 367.283   2
   2   6  -5 492.731 234.399  12
   2  -6  -5 817.307 261.805   8
  -2   6   5 197.772 125.411   4
   2  -6  -5 1552.37 513.963  11
   2   6  -5 488.273 268.652  19
  -2  -6   5 851.784 347.222   8
   2  -6  -5 671.300 292.648  18
   2  -6  -5 347.774 136.545   3
   2   6  -5 785.274 356.865   4
  -2   6   6 1715.01 400.374  16
  -2   6   6 1954.64 531.648   2
  -2  -6   6 2809.67 534.850   1
   2  -6  -6 1744.39 471.976   1
  -2  -6   6 2090.95 434.967  14
   2   6  -6 1354.01 433.385   5
  -2   6   6 1183.16 408.126   5
  -2   6   6 753.206 316.922  17
   2   6  -6-93.5566 84.0363  13
   2   6  -6 939.283 335.979  12
  -2  -6   6 1620.03 489.379  16
  -2   6   6 782.236 263.098   4
   2   6  -6 1272.91 445.625   4
   2  -6  -6 1893.19 560.860  11
  -2  -6   6 1860.92 507.102   8
   2  -6  -6 1473.17 386.639   8
  -2  -6   6 2457.14 503.291   6
  -2   6   6 1723.73 423.211  19
   2  -6  -6 1261.20 415.365  18
   2  -6  -6 221.670 109.413  14
   2   6  -6 1102.99 395.339  19
   2  -6  -6 2574.98 340.444   3
   2   6  -6 829.949 296.872   3
   2   6  -7 862.179 339.801   3
  -2  -6   7 2357.60 501.464   6
   6   2  -7 1213.47 471.171   3
  -2   6   7 1802.78 421.322  16
   2  -6  -7 1269.05 419.126  18
   2  -6  -7 1930.41 484.103   1
  -2  -6   7 2085.80 468.196   1
  -2  -6   7 2143.61 448.208  14
  -6  -2   7 96.1197 84.2714   6
  -2   6   7 1328.57 447.102   5
   2  -6  -7 273.142 134.033  14
  -2   6   7 2313.72 617.032   2
   2   6  -7 567.308 253.099   5
   6  -2  -7 625.125 163.416  13
  -2  -6   7 2173.96 547.385   8
  -2  -6   7 1979.70 545.894  16
  -2   6   7 1026.53 408.321  17
   2   6  -7 709.369 190.639   4
   6   2  -7 1234.44 474.477  12
   2  -6  -7 1824.46 557.126  11
  -2   6   7 2071.11 495.493  19
   2   6  -7 923.174 357.456  19
   2  -6  -7 866.461 320.283   8
  -2   6   7 1240.39 344.354   4
   2  -6  -8 1116.38 376.510   1
  -6   2   8 96.4925 128.938   6
   6   2  -8 1135.36 420.685   3
  -2  -6   8 1253.56 452.690  16
  -2   6   8 1089.24 336.371  16
  -2  -6   8 1235.22 353.708  14
   2  -6  -8 536.012 283.964  18
  -6  -2   8 190.197 195.786   6
   2  -6  -8 117.165 66.3371  14
   2  -6  -8 642.659 306.207  11
   6  -2  -8 543.848 227.397  13
   2   6  -8 460.630 177.183  13
  -2  -6   8 1471.58 472.667   8
  -2   6   8 819.760 279.332   4
  -2  -6   8 632.914 253.686   1
   6   2  -8 1020.99 427.686  12
  -2   6   8 1153.85 454.272   2
  -2   6   8 1099.87 372.649  19
   2   6  -8 495.621 285.371  19
  -2   6   8 964.223 355.478   5
  -2   6   8 735.045 326.425  17
   6  -2  -8 1091.72 462.529   3
  -2  -6   8 1143.52 354.781   6
  -2   6   9 802.776 366.898  17
   2  -6  -9 706.542 285.609  11
  -2  -6   9 1553.53 427.552   6
   2   6  -9 485.305 296.684  19
  -2   6   9 1336.31 377.212  16
   2  -6  -9 1097.69 364.168   1
   2  -6  -9 538.033 268.613  18
  -6  -2   9 759.513 302.795   6
  -2  -6   9 1516.35 410.565  14
   2  -6  -9 141.358 93.6519  14
  -6   2   9 258.661 153.934   6
  -2   6   9 855.614 344.091  19
  -2  -6   9 26.2419 120.617   1
  -2  -6   9 2267.80 587.968   8
   6   2  -9-101.098 242.300  13
   6  -2  -9 1177.72 417.542  13
   6   2  -9 1461.42 493.540  12
  -2   6   9 1161.42 308.950   4
   6  -2  -9 1897.16 571.227   3
  -2   6   9 1565.16 512.161   2
  -2   6   9 1333.70 414.306   5
   6   2  -9 1334.89 488.001   3
  -2  -6   9 1911.43 557.135  16
   6  -2  -9 995.200 353.441  18
  -6   2  10 156.315 60.1700  17
  -2   6  10 146.457 85.4535  17
   6  -2 -10 26.8742 132.628   3
   6   2 -10-171.332 260.661   4
  -2  -6  10 259.689 281.437   6
   6   2 -10 35.0185 25.7972   3
  -2   6  10 233.527 220.469  16
  -6   2  10 19.0393 81.6294   6
  -6  -2  10 32.8358 113.601   6
   6   2 -10-65.1229 140.984  13
  -2  -6  10 164.179 217.892  14
   2  -6 -10 65.5607 92.1697  14
  -2   6  10 204.108 157.956   4
   2  -6 -10-141.029 280.687  11
  -2  -6  10 22.8112 117.914   2
  -2  -6  10 581.267 392.214  16
  -6  -2  10-144.546 198.105  14
   6  -2 -10-27.8607 156.462  13
  -2   6  10 173.433 169.577   5
  -2  -6  10 634.788 526.076   8
   6   2 -10-116.230 139.387  12
   2  -6 -10 222.435 250.900   1
  -2   6  10 472.276 338.757   2
   2   6 -10 412.297 314.272  19
   6   2 -10-53.4247 245.506  18
   6  -2 -10 305.142 248.728  18
  -2  -6  11 2259.77 544.143   6
  -2   6  11 2743.96 706.970   2
   6  -2 -11 3807.90 786.077   3
  -2   6  11 1363.63 488.751  17
  -2  -6  11 3348.07 775.214  16
  -2   6  11 2162.33 516.486  16
  -6  -2  11 1746.66 522.592   6
   2  -6 -11 1673.01 452.149   1
  -2  -6  11 1942.07 509.641  14
  -2   6  11 2663.19 435.715   4
  -6  -2  11 1776.60 391.825  14
  -2  -6  11 3283.17 440.090   2
  -2   6  11 2320.49 563.340   5
   2  -6 -11 266.992 122.695  14
  -6  -2  11 1703.74 521.523  17
   6   2 -11 3163.24 636.971  18
   6  -2 -11 2999.21 663.727  13
   6   2 -11 734.571 293.820  13
   6   2 -11 2537.40 702.552   3
   6   2 -11 2581.84 648.642  12
   6  -2 -11 2422.67 600.247  12
  -6   2  11 917.579 316.772   6
   2   6 -11 114.294 180.363  19
   6   2 -11 3798.14 608.985   4
   2  -6 -11 343.489 235.478  11
  -2  -6  11 3770.69 753.812   8
  -6   2  11 1259.34 494.396  17
   6  -2 -11 3613.52 809.885  18
  -6  -2  12 1139.59 430.083  17
  -6   2  12 547.100 384.175  17
   6  -2 -12 678.534 308.968   3
  -2   6  12 484.654 268.878  16
  -2  -6  12 224.598 58.2303   6
   6   2 -12 271.233 281.574   3
  -6   2  12 106.204 119.052   6
  -6  -2  12 534.517 263.540   6
  -2  -6  12 595.074 390.758  16
   2  -6 -12 43.0707 57.6116  14
  -6  -2  12 564.034 195.172  14
  -2  -6  12 671.249 339.568   8
   6   2 -12 266.173 192.203  13
  -2   6  12 450.003 242.177   5
   6  -2 -12 334.787 241.361  13
  -2  -6  12 215.195 162.018  14
  -2  -6  12 823.263 241.480   2
   6   2 -12 568.131 281.750  12
  -2   6  12 751.133 354.057   2
   6  -2 -12 515.368 237.143  12
   2   6 -12 43.3186 89.5506  19
   6   2 -12 674.202 259.163   4
  -2   6  12 539.818 204.159   4
  -2   6  12 56.2112 72.0107  17
   2  -6 -12 269.531 196.112   1
   6  -2 -12 757.251 389.289  18
   6   2 -12 803.057 334.881  18
  -6  -2  13 637.841 408.044  16
  -6  -2  13 1206.63 263.876  14
  -6  -2  13 1584.41 503.741  17
  -6   2  13 393.844 337.582  16
  -6   2  13 194.010 153.136   6
   6  -2 -13 1158.97 437.652   3
   6   2 -13 963.896 343.593   3
  -6  -2  13 768.041 339.946   6
  -2  -6  13 935.126 422.260  16
  -2  -6  13 174.535 115.497  14
  -2  -6  13 1562.37 344.683   2
   2  -6 -13 60.7968 50.4599  14
   2   6 -13-48.8565 132.668  19
   6   2 -13 332.659 239.787  13
  -2   6  13 714.997 312.480   5
   6  -2 -13 1124.10 381.389  12
   6   2 -13 887.949 364.903  12
  -6   2  13 905.605 489.126  17
  -2   6  13 866.175 246.788   4
   2  -6 -13 335.507 227.385   1
   6   2 -13 933.366 285.963   4
   6  -2 -13 770.237 323.086  13
  -2   6  13 1142.87 477.102   2
  -2  -6  13 1196.97 436.522   8
   6   2 -13 1359.16 428.195  18
  -2   6  13 810.521 334.190  16
   6  -2 -13 1314.99 506.983  18
  -2   6  13 316.358 230.287  17
  -6  -2  14 840.483 348.120  17
  -6  -2  14 89.2337 24.8363  16
  -6   2  14 82.1460 87.5477   6
  -6  -2  14 463.701 289.473   6
   6   2 -14 340.516 233.381   3
  -2  -6  14 529.841 329.459  16
  -2   6  14 354.517 241.381  16
   6  -2 -14 543.698 290.445   3
  -2   6  14 372.733 160.860   4
  -6  -2  14 573.887 202.260  14
  -2   6  14 71.3638 135.583  17
   2  -6 -14 136.064 149.043   1
  -2   6  14 679.373 388.148   2
   6   2 -14 136.294 126.724  13
  -2   6  14 420.079 207.077   5
   6  -2 -14 520.094 279.001  13
  -6   2  14-256.064 570.817   2
  -6   2  14 216.974 333.484  17
   6   2 -14 609.606 296.590  12
   6  -2 -14 526.374 248.322  12
  -6   2  14 115.535 77.9463  16
   6   2 -14 2335.47 786.190  11
   6  -2 -14 2415.76 923.111  11
  -2  -6  14 790.328 266.186   2
   2   6 -14 60.7933 84.6025  19
  -2  -6  14 829.846 367.175   8
   6   2 -14 610.516 272.503  18
   6  -2 -14 392.791 252.766  18
   2   6 -15 63.2994 127.825  19
  -6   2  15 1100.98 579.149  17
  -6   2  15 137.301 140.734   6
  -6  -2  15 571.088 378.532   6
  -6  -2  15 1016.78 510.447  16
  -6   2  15 850.073 485.929  16
   6   2 -15 917.947 421.595   3
  -2   6  15 928.823 383.518  16
  -2   6  15 1318.17 511.826   2
  -6  -2  15 1225.14 273.283  14
  -2   6  15 1106.56 375.923   5
  -2  -6  15 1389.01 537.268   8
  -2  -6  15 1618.49 417.313   2
  -6  -2  15 220.759 63.3476   8
  -6   2  15 35.0748 423.048   2
   6  -2 -15 827.838 344.928  13
  -2  -6  15 1403.67 561.142  16
   2  -6 -15 305.314 230.116   1
   6   2 -15 864.559 358.710  12
   6  -2 -15 1143.74 357.069  12
  -2   6  15 933.737 248.432   4
   6   2 -15 2508.23 740.766  11
   6  -2 -15 2408.85 848.777  11
  -6  -2  15 1653.61 478.851  17
   6   2 -15 1068.82 391.521  18
  -2   6  15 557.505 363.709  17
   6   2 -15 591.982 313.990  13
   6  -2 -15 1502.30 524.847  18
   6  -2 -15 1556.91 498.760   3
  -2   6  16-76.2748 126.834  17
  -6  -2  16-53.4354 136.176   8
  -2  -6  16 89.2433 283.736   8
  -6   2  16 63.6783 245.728  17
  -6   2  16-51.9681 136.478   6
  -6  -2  16 132.289 178.233   6
   6  -2 -16-13.9799 70.9423  18
  -6  -2  16-55.8317 197.081  16
   2  -6 -16-2.67814 30.4463   1
   2   6 -16 26.7830 162.911  19
  -2  -6  16 4.74836 50.8285  16
  -2   6  16 77.7397 136.016  16
   6   2 -16-128.706 173.990   3
  -6  -2  16-29.8115 42.2798  14
  -2   6  16-175.073 180.198   4
   2  -6 -16-11.8808 27.0545  14
   6  -2 -16 18.0271 79.8735   3
   6   2 -16-137.492 225.085  11
  -6   2  16-349.378 380.448   2
  -2   6  16 7.21126 110.254   5
   6   2 -16 148.465 180.061  13
   6  -2 -16 67.3321 165.631  13
   6   2 -16-1.01109 58.9712  12
   6  -2 -16-27.5619 70.7492  12
   6  -2 -16 235.344 323.381  11
  -2   6  16 140.083 217.135   2
  -6   2  16-9.35100 114.689  16
  -2  -6  16 76.3230 85.8452   2
  -6  -2  16-25.5829 169.258  17
   6   2 -16-34.3533 192.176  18
  -6  -2  17 268.980 185.359   8
  -6  -2  17 1071.96 396.551  17
  -6  -2  17 477.372 312.751   6
  -6  -2  17 957.220 510.111  16
  -6   2  17 835.825 444.444  16
   2  -6 -17 178.157 157.204   1
  -2  -6  17 1587.98 676.307  16
  -2   6  17 852.053 411.566  16
  -6   2  17 320.264 397.914  17
  -6   2  17-144.456 299.519   6
   6  -2 -17 1060.62 465.900   3
   6   2 -17 631.488 437.002   3
  -6  -2  17 48.7457 37.0201  14
  -2  -6  17 1493.55 576.088   8
  -2  -6  17 1762.46 469.526   2
  -2   6  17 1525.90 602.797   2
  -6   2  17 507.643 109.783   2
   6   2 -17 105.810 95.8840  13
  -2   6  17 1041.27 351.084   5
   6  -2 -17 475.354 319.131  13
   6   2 -17 1018.49 394.933  12
   6  -2 -17 1093.86 345.494  12
   6  -2 -17 1551.15 616.290  11
   6   2 -17 613.300 291.380  11
  -2   6  17 555.739 363.408  17
   2   6 -17 31.1326 73.0162  19
   6  -2 -17 753.143 373.700  18
   6   2 -17 126.488 254.152  18
   2   6 -18-89.9545 169.768  19
   6   2 -18 141.815 150.457   3
  -6  -2  18 21.9183 92.9020   6
  -2   6  18-229.856 228.407  17
  -2   6  18 192.188 314.182   2
  -2   6  18 232.543 243.529  16
   2  -6 -18 101.819 159.781   1
   6  -2 -18 217.770 229.092   3
   6  -2 -18 88.1768 261.395  18
  -2  -6  18 267.887 171.667  16
  -6   2  18 450.868 310.172  17
  -6   2  18 153.970 216.262  16
  -6  -2  18-1035.37 726.555   2
  -6  -2  18 270.057 252.994  16
  -6   2  18 302.155 327.675   2
   6   2 -18 172.539 194.699  13
  -2   6  18 312.608 238.877   5
   6  -2 -18 197.578 301.726  13
   6   2 -18 318.928 192.130  12
   6  -2 -18 156.394 147.395  12
   6   2 -18-211.954 372.431  11
  -2  -6  18 609.625 241.555   2
  -6  -2  18 5.76455 155.657   8
   6  -2 -18 277.921 239.568  11
  -6  -2  18 150.131 14.9817  17
  -2  -6  18 602.096 357.425   8
   3  -6   0 89.3668 55.2393   1
  -3  -6   0 395.584 195.708  14
  -3  -6   0 149.604 89.6086   1
   3   6  -1 97.0230 67.1636  19
  -3  -6   1 54.0216 152.256   6
  -3  -6   1-28.0049 224.495   8
  -3  -6   1 128.328 140.931   1
  -3  -6   1 172.894 153.454  14
  -3  -6  -1 68.2060 80.7819  14
   3  -6  -1 119.130 121.426   1
  -3  -6  -1-71.4175 188.071   1
   3   6  -1-52.3358 221.334   5
   3   6   1 136.979 119.329  19
   3  -6  -1 48.9266 217.319  18
  -3  -6   2 2381.03 578.137   6
   3  -6  -2 1350.04 456.007   1
  -3  -6   2 1305.92 377.227   1
   3   6  -2 2234.80 559.115   5
   3  -6  -2 2326.89 590.527  18
  -3  -6   2 2051.45 468.104  14
   3  -6  -2 578.631 80.8564   8
   3   6  -2 1240.06 457.046  12
  -3  -6   2 1380.35 520.106   8
   3   6  -2 2430.38 590.829   4
   3   6  -2 2417.06 636.446  19
  -3   6   2 443.606 358.611  17
  -3  -6   3-37.7671 188.904   8
   3   6  -3-37.8523 135.015   3
   3   6  -3 33.5816 39.0293  19
  -3   6   3 43.7097 125.178  17
  -3  -6   3 40.5900 105.825   6
   3  -6  -3-30.3959 103.331   8
  -3  -6   3 68.4154 144.940  14
  -3  -6   3 47.0464 85.6312   1
   3  -6  -3-61.8427 164.805  13
   3   6  -3 47.6543 67.4191   5
   3   6  -3-127.132 137.886  12
   3  -6  -3 2.73222 38.1481   1
   3   6  -3 91.2476 116.408   4
   3  -6  -3 29.8568 96.5124  18
   3   6  -4 247.034 130.570   3
  -3   6   4 182.337 235.659  17
   3   6  -4 1001.20 357.549   5
   3   6  -4 809.408 346.426  19
   3  -6  -4 671.871 299.430   1
   3  -6  -4 1165.48 335.404  13
   3  -6  -4 868.863 276.375   8
  -3  -6   4 982.457 306.139   1
   3   6  -4 638.477 303.335  12
   3   6  -4 1289.66 452.403   4
  -3  -6   4 1356.15 414.275   6
  -3  -6   4 987.978 314.629  14
   3  -6  -4 1145.08 446.178  18
  -3  -6   4 618.544 333.363   8
  -3   6   5 551.996 319.845  17
  -3  -6   5 2692.46 573.746   6
   3   6  -5 589.536 233.562   3
   3  -6  -5 1464.14 451.742   1
  -3  -6   5 2294.01 462.050   1
  -3  -6   5 1960.03 444.626  14
   3   6  -5 1949.21 500.767   5
  -3   6   5 557.732 244.560   2
   3  -6  -5 2413.18 478.168  13
   3  -6  -5 2032.97 407.896   8
   3   6  -5 1169.20 389.362  12
   3   6  -5 2154.37 564.169   4
  -3   6   5 623.784 268.596  19
   3  -6  -5 1970.45 559.168  18
   3   6  -5 1492.43 463.097  19
  -3  -6   5 1134.53 408.668   8
   6   3  -6 226.607 92.2711   3
   3  -6  -6 928.580 353.146   1
  -3   6   6 797.287 386.258  17
   3  -6  -6 336.659 142.251   3
   3   6  -6 669.468 263.454   3
  -3  -6   6 1530.21 381.391   1
  -3  -6   6 1223.56 341.567  14
  -3   6   6 623.183 349.251   2
   3   6  -6 1344.95 426.195   5
  -3   6   6-18.7205 218.707   5
   3   6  -6 936.156 359.265  19
   3   6  -6 681.886 290.608  12
  -6  -3   6-105.332 298.893   6
  -3   6   6 800.574 270.069  19
   3  -6  -6 1486.31 346.989   8
   3   6  -6 1232.03 423.527   4
   3  -6  -6 1218.42 441.742  18
  -3  -6   6 1794.96 464.716   6
   3  -6  -6 1591.64 387.659  13
  -3  -6   6 975.255 378.015   8
   6   3  -7 854.577 370.924   3
  -3  -6   7 795.680 356.470  16
  -3  -6   7 1929.90 486.485   6
   3  -6  -7 1851.39 378.060   3
   3  -6  -7 1428.02 339.645   8
  -3   6   7 743.661 320.487  16
   3   6  -7 915.674 333.427  19
   3  -6  -7 1192.06 407.703   1
   3   6  -7 704.903 278.024   3
  -3  -6   7 2315.55 473.417   1
  -3  -6   7 1730.64 410.446  14
  -6  -3   7 140.031 120.949   6
  -3   6   7 771.436 404.858  17
   3   6  -7 1390.31 427.560   5
  -3   6   7 113.899 87.9828   5
   3  -6  -7 2124.56 479.498  13
   6  -3  -7 645.205 182.003  13
  -3   6   7 1180.95 470.044   2
   3   6  -7 838.702 295.694  12
   3   6  -7 1354.95 483.020   4
   6   3  -7 893.615 432.446  12
   3  -6  -7 2036.38 694.842  11
  -3   6   7 1299.25 340.595  19
  -3  -6   7 1188.27 407.613   8
   3  -6  -7 1608.67 503.849  18
  -3   6   8 1890.38 521.893  16
  -3   6   8 1348.37 411.104  17
  -3  -6   8 3387.31 568.079   1
   3  -6  -8 1725.47 477.938   1
   3   6  -8 1139.07 382.430   3
  -3  -6   8 2794.00 538.691  14
  -6  -3   8 807.514 366.407   6
   3   6  -8 1657.51 463.545   5
  -3   6   8 2321.23 621.635   2
  -3   6   8 768.645 287.834   5
   3  -6  -8 3302.66 487.239   3
   6  -3  -8 1947.26 511.719  13
   3   6  -8-140.952 116.000  13
   6   3  -8 2383.14 677.416  12
   3   6  -8 1365.55 411.344  12
   3   6  -8 1684.43 531.874   4
  -3  -6   8 2362.93 578.145   8
   3  -6  -8 2896.45 772.467  11
   3  -6  -8 2109.85 590.505  18
   3   6  -8 1534.89 455.067  19
  -3   6   8 1839.93 418.863  19
   3  -6  -8 1539.22 381.895   8
  -3  -6   8 3093.13 635.326   6
  -3  -6   8 1792.93 574.689  16
   6  -3  -8 913.155 361.778  18
   6   3  -8 2299.59 625.335   3
   6  -3  -8 2020.47 632.982   3
   3   6  -9 2284.81 619.466   3
   6  -3  -9 907.875 395.431   3
  -3  -6   9 1212.08 370.939   6
   3   6  -9 498.876 217.399  19
  -3   6   9 1023.66 447.987  16
  -3  -6   9 1475.33 543.896   8
   3   6  -9 431.768 197.116  13
   3  -6  -9 1058.10 408.218   1
  -6   3   9 60.9422 82.4890   6
  -6  -3   9 406.118 227.034   6
  -3   6   9 1868.67 670.823   2
  -3  -6   9 1167.55 327.347  14
   6   3  -9 709.685 366.654   3
   6  -3  -9 822.380 337.791  13
   3   6  -9 2529.39 807.069  12
   6   3  -9 830.163 343.129  12
   3   6  -9 388.844 253.204   4
  -3  -6   9 892.514 350.299  16
   3  -6  -9 1593.18 598.385  11
  -3   6   9 3706.24 838.734  19
   3   6  -9 41.2920 198.014   5
  -6   3   9 256.107 308.461  17
   6  -3  -9 815.810 423.186  18
   3  -6  -9 58.9318 65.4362  14
  -3   6   9 538.498 305.073   5
  -3  -6   9 1010.40 354.718   1
   3  -6  -9 771.716 378.553  18
   3  -6  -9 1498.61 360.870   3
  -3   6   9 3937.72 999.326  17
  -6   3  10 319.617 261.616  17
  -3  -6  10 2959.25 781.553  16
  -3   6  10 2385.58 588.513  16
   3  -6 -10 1836.60 491.042   1
  -6   3  10 439.749 196.656   6
  -6  -3  10 1478.15 484.231   6
  -3  -6  10 3324.18 604.320  14
  -6  -3  10 1044.35 341.854  14
   3   6 -10 935.149 356.914   3
   6  -3 -10 2956.48 742.189  18
  -3   6  10 1613.78 462.645   5
   3   6 -10 1073.69 361.019  19
  -3   6  10 2996.59 750.848   2
  -3  -6  10 3322.18 665.338   6
   6  -3 -10 3040.06 657.708  13
   6   3 -10 53.1729 168.972  13
  -3  -6  10 170.303 108.348   1
   3   6 -10-58.9352 86.7236  13
   3   6 -10 1147.87 457.979  12
   3  -6 -10 2020.53 273.574  12
   6   3 -10 2399.19 614.846  12
   3  -6 -10-53.8513 92.5519  14
   6   3 -10 2835.33 604.967   4
   3  -6 -10 2172.95 675.274  11
  -3   6  10 1437.17 454.447  19
  -3  -6  10 3110.68 691.126   8
   3  -6 -10 1576.00 499.236  18
  -3   6  10 1112.86 424.886  17
   6  -3 -10 2964.14 722.373   3
   6   3 -10 2571.04 654.593   3
   3  -6 -10 3500.29 507.490   3
   6  -3 -11 200.419 196.638   3
   6   3 -11-6.55311 109.713   3
  -3  -6  11 314.635 247.668   8
  -3  -6  11 35.9739 90.9353  16
  -3   6  11 50.1397 98.4061  16
  -6   3  11 126.009 232.252  17
   6   3 -11 222.330 196.990   4
  -6  -3  11 82.8131 163.486   6
  -3   6  11-328.861 256.231  19
   3  -6 -11-27.7519 83.1007  14
   3  -6 -11 136.817 206.554   1
  -3  -6  11 71.9172 85.1365   6
  -3  -6  11 157.038 121.968  14
  -6   3  11 32.5260 87.2840   6
  -3   6  11 66.4756 128.942   5
  -6  -3  11 93.5512 102.652  14
   6   3 -11 126.527 172.930  18
   6   3 -11-41.5904 107.281  13
   6  -3 -11 64.3816 183.110  13
   3   6 -11 328.280 191.499  13
   6   3 -11 88.8501 65.9651   5
   3  -6 -11 145.753 68.6312  12
  -3   6  11 386.138 286.974   2
   6   3 -11 111.005 182.509  12
  -3   6  11-148.419 191.198   4
   3  -6 -11-3.54963 106.762  11
   3   6 -11 68.4485 163.329  19
  -6  -3  11-161.299 164.827  17
   6  -3 -11 383.428 350.386  18
  -3   6  11-89.8158 202.871  17
   3  -6 -11-47.6912 164.213  18
  -6   3  12 661.369 467.528  17
  -3  -6  12 1694.20 512.185   6
  -6  -3  12 1644.76 522.373   6
  -6  -3  12-320.278 234.951   8
  -3  -6  12 2278.25 689.554  16
  -3   6  12 1874.02 549.328  16
  -6   3  12 195.861 146.248   6
   3  -6 -12 805.199 388.339  11
   3  -6 -12 1089.28 388.096   1
  -3  -6  12 1744.13 464.043  14
  -6  -3  12 2085.02 409.932  14
   3  -6 -12-31.7055 83.0950  14
  -3   6  12 1433.60 439.304   5
   6   3 -12 2156.35 339.005   5
   6  -3 -12 2129.77 559.461  13
  -6  -3  12 2704.47 571.252  17
   3   6 -12 1034.00 341.453  13
   6   3 -12 240.099 133.122  13
   6   3 -12 1749.63 503.167  12
   6   3 -12 1849.64 557.108   3
   6  -3 -12 1704.69 496.868  12
   6   3 -12 2366.79 540.922   4
  -3   6  12 1948.41 611.596   2
  -3   6  12 873.086 214.654   4
   3  -6 -12 708.477 306.117  18
  -3  -6  12 2633.75 606.840   8
   3   6 -12 301.070 264.752  19
   6   3 -12 2535.46 525.799  18
   6  -3 -12 2521.56 708.338  18
  -3   6  12 859.684 446.442  17
   6  -3 -12 2364.42 616.295   3
   3  -6 -13 198.228 190.943   1
  -6  -3  13 1288.85 399.399  17
  -3   6  13 296.911 242.224  17
  -3  -6  13 531.266 291.684   6
  -6   3  13 59.8864 96.2106   6
  -6   3  13 156.707 182.702  16
   6  -3 -13 613.624 317.500   3
   6   3 -13 506.066 325.252   3
  -3  -6  13 634.382 356.439  16
  -3   6  13 612.304 338.223  16
   3  -6 -13 35.2974 330.780  11
  -6   3  13-564.393 674.047   2
   3  -6 -13-21.2511 67.6957  14
  -3  -6  13 399.977 250.046  14
  -6  -3  13 427.537 271.067   6
  -3  -6  13-121.942 382.533   2
  -6  -3  13 736.315 242.059  14
  -3   6  13 451.590 253.748   5
   6   3 -13 107.298 96.4613  13
   6  -3 -13 524.280 287.400  13
   6   3 -13 361.872 254.154  12
   6  -3 -13 424.750 236.160  12
  -3   6  13 630.898 394.421   2
   6   3 -13 559.409 232.518  18
  -3   6  13 354.999 138.878   4
   6   3 -13 406.148 244.307   4
   3   6 -13 253.487 219.851  19
   6  -3 -13 685.971 395.771  18
  -3  -6  13 820.778 380.040   8
  -6   3  13 299.855 285.282  17
   3  -6 -13-70.4071 345.565  18
  -6   3  14 660.071 411.027  17
  -6  -3  14 1809.94 452.354  17
   3  -6 -14-23.1887 76.9573  14
  -3  -6  14 951.540 387.811   6
  -6   3  14-7.73581 87.7786   6
  -6  -3  14 533.046 407.173  16
  -6  -3  14 1130.84 494.037   6
  -3  -6  14 1592.85 593.346  16
  -3   6  14 1217.40 482.328  16
   6   3 -14 790.032 416.945   3
  -6  -3  14 1313.99 321.881  14
  -3  -6  14 613.938 268.187  14
  -6   3  14-137.615 486.871   2
  -3  -6  14 915.656 285.904   2
  -3   6  14 985.495 354.161   5
   3  -6 -14 479.507 248.496   1
   6   3 -14 295.027 212.008  13
   6  -3 -14 1000.91 389.564  13
  -6  -3  14 338.148 188.920   8
   6  -3 -14 1211.13 369.882  12
   6   3 -14 871.725 359.252  12
  -3   6  14 742.165 212.861   4
  -3   6  14 1394.50 541.212   2
   6  -3 -14 3051.18 994.061  11
   6   3 -14 3097.89 826.333  11
  -6   3  14 702.144 407.396  16
   3   6 -14 77.3116 191.682  19
  -3   6  14 506.392 322.738  17
  -3  -6  14 1618.32 515.888   8
   6   3 -14 1232.37 388.231  18
   3  -6 -14-171.104 521.553  11
   6  -3 -14 1202.83 475.705  18
   6  -3 -14 1367.60 470.391   3
  -6  -3  15-72.4589 198.784   8
  -3  -6  15-120.985 290.333   6
  -6   3  15-35.9534 117.929   6
  -6  -3  15 172.738 180.238   6
  -6  -3  15 17.4322 99.4502  16
  -6   3  15-20.0796 125.241  16
  -3  -6  15 465.556 380.468  16
   6  -3 -15 168.353 189.532   3
  -3   6  15 217.667 227.571  16
   6   3 -15 115.626 136.510   3
  -3   6  15-30.4422 138.689  17
  -6   3  15 186.744 297.472  17
  -3  -6  15-57.0595 192.940  14
   3  -6 -15-19.0601 69.1388  14
  -6  -3  15 218.801 135.823  14
  -6   3  15 3.14357 153.116   2
  -3   6  15 122.109 179.530   5
  -3  -6  15 382.560 305.143   2
   3  -6 -15 41.4274 33.6060   1
   6   3 -15-0.04356 76.8946  13
   6  -3 -15 91.7890 128.128  13
   6   3 -15 163.664 199.898  12
   6  -3 -15 181.767 94.6362  12
  -3   6  15 189.222 149.380   2
   6  -3 -15 629.340 470.306  11
   6   3 -15 362.527 281.901  11
  -3   6  15 210.050 133.092   4
  -6  -3  15 199.953 16.1475  17
   3   6 -15 55.1179 198.931  19
  -3  -6  15 39.0379 31.4679   8
   6  -3 -15 68.0939 64.1485  18
   6   3 -15 76.6965 97.6251  18
  -6   3  16 408.243 370.070  17
  -6  -3  16 1023.80 352.562  17
  -6  -3  16 615.570 365.065   6
  -6  -3  16 503.256 349.961  16
  -3  -6  16 1008.86 561.207  16
   6  -3 -16 1000.94 424.209   3
   6   3 -16 597.208 281.887   3
  -3  -6  16 1349.85 472.913   2
  -6  -3  16 716.393 238.847  14
  -6   3  16 664.953 422.532  16
  -6  -3  16 246.432 125.480   8
  -6   3  16 413.536 378.981   2
  -3   6  16 718.018 317.225   5
   6   3 -16 252.226 206.232  13
   6  -3 -16 605.987 296.273  13
  -3   6  16 475.223 381.933  17
   3  -6 -16 261.084 195.662   1
   6   3 -16 414.412 309.693  12
   6  -3 -16 796.490 278.107  12
  -3   6  16 1073.22 450.646  16
  -3   6  16 1037.79 492.277   2
   6  -3 -16 1619.13 623.037  11
   6   3 -16 1039.60 426.152  11
   3   6 -16 70.9120 157.401  19
  -3   6  16 685.606 195.228   4
   6   3 -16 5.19114 84.4249  19
  -3  -6  16 1417.59 540.134   8
   6  -3 -16 742.171 438.226  18
   6   3 -16 244.514 201.445  18
  -3   6  17 84.0522 140.877  17
   6   3 -17-99.5173 137.791  19
  -6  -3  17-8.80651 73.2685   6
  -6  -3  17-8.46130 126.837   8
  -6  -3  17-25.8674 154.204  16
  -6   3  17 198.954 426.104  16
  -3   6  17 26.5534 48.3627  16
   6  -3 -17 508.676 387.837   3
   6   3 -17 545.800 475.621   3
  -6  -3  17-5.67360 108.147  14
   6  -3 -17-81.0988 226.210   1
  -6   3  17 1486.18 833.507  17
  -6   3  17 56.7495 105.893   2
  -3   6  17 56.0683 107.053   5
   6   3 -17 543.897 338.285  13
   6  -3 -17 660.567 450.226  13
  -3  -6  17 408.122 377.901   2
   6   3 -17 473.420 381.605  12
   3  -6 -17 138.555 139.166   1
  -3  -6  17 671.108 558.249  16
   6  -3 -17 369.317 310.784  12
  -3   6  17 145.972 227.198   2
   6  -3 -17 184.973 305.811  11
   6   3 -17-320.407 343.456  11
  -3  -6  17 561.237 418.665   8
   3   6 -17 257.907 228.055  19
  -6  -3  17 108.781 35.5847  17
   6  -3 -17 207.318 242.428  18
  -6  -3  18 685.279 317.274   8
  -6  -3  18 774.836 301.155  17
  -6  -3  18 1009.59 572.954  16
  -6   3  18 766.531 459.845  16
  -3  -6  18 1808.10 726.620  16
  -3   6  18 1025.35 473.432  16
   6   3 -18 456.452 323.911   3
  -3   6  18 1268.86 425.066   5
  -3  -6  18 2157.53 568.974   2
   3  -6 -18 77.9161 129.524   1
  -6   3  18 960.386 485.503   2
  -6  -3  18 819.644 368.343   6
   6   3 -18 165.897 142.120  13
   6  -3 -18 1003.33 448.275  13
   6   3 -18 458.471 351.533  12
   6  -3 -18 1086.97 368.452  12
  -3   6  18 1456.97 559.470   2
  -3  -6  18 1800.79 643.805   8
  -3   6  18 597.863 412.673  17
   6  -3 -18 1149.08 568.866  11
   6   3 -18-46.0656 386.616  11
   3   6 -18 164.609 254.391  19
  -6   3  18 551.874 480.411  17
   6  -3 -18 1004.07 431.904   3
   6  -3 -18 458.714 239.803  18
   4   6  -1 171.995 101.023  19
  -4  -6   2-140.105 314.976   6
   4  -6  -2-280.486 226.863   1
   4   6  -2 27.3554 131.097  19
  -4  -6   2-0.96000 57.9002  14
   4  -6  -3 689.211 294.081  18
  -4  -6   3 376.559 247.569   6
   4   6  -3 275.540 114.849  12
  -4  -6   3 363.571 218.408  14
   4   6  -3 647.410 332.586  19
  -4  -6   3-11.8367 273.276   8
   4  -6  -3 73.5589 67.9386   1
  -4  -6   3 106.239 9.77280   1
  -4  -6   4 36.6005 79.2047   1
  -4   6   4 180.954 247.749  17
  -4  -6   4 43.0066 78.2343   6
  -4  -6   4 57.0078 93.7716  14
   4  -6  -4-78.0871 273.090  13
   4  -6  -4 7.28859 71.3991   1
  -4  -6   4-35.2287 210.178   8
   4  -6  -4-3.67679 89.4731  18
   4   6  -4 41.7049 162.472   5
   4   6  -4 84.6461 83.0973  12
   4   6  -4 66.5177 51.5967  19
   4   6  -4-45.4167 141.460   3
   4   6  -4-99.9742 229.219   4
  -4   6   5 82.1875 223.954  17
   4   6  -5 121.020 127.946   3
   4  -6  -5 186.100 80.5809   8
  -4  -6   5 493.227 238.366   1
  -4  -6   5 319.601 217.764   8
  -4  -6   5 671.785 345.388   6
  -4  -6   5 614.577 275.094  14
   4   6  -5 801.701 372.334   4
   4  -6  -5 185.889 169.765   1
   4   6  -5 691.288 304.134   5
   4   6  -5 358.573 230.114  12
   4   6  -5 387.535 245.626  19
   4  -6  -5 770.245 388.130  18
   4  -6  -5 800.961 310.764  13
  -4   6   6 182.058 317.932  17
   4  -6  -6 1207.39 293.467   8
   4   6  -6 428.153 241.758   3
  -4   6   6-51.3616 154.040  19
   4   6  -6 1554.11 467.859   5
  -4  -6   6 1055.75 359.318  14
  -4  -6   6 1350.23 366.495   1
  -6  -4   6 81.8744 164.498   6
   6   4  -6 230.734 144.970   3
  -4  -6   6 641.987 345.184   8
   4   6  -6 900.181 380.570  12
   4  -6  -6 1896.59 479.547  13
  -4  -6   6 1442.98 462.021   6
   4  -6  -6 608.033 279.828   1
   4   6  -6 1423.21 476.151   4
   6   4  -6 292.803 41.0151  12
   4   6  -6 976.713 398.485  19
   4  -6  -6 1355.70 499.273  18
   4  -6  -7 84.8027 256.265   3
  -4   6   7 306.628 334.089  17
  -4  -6   7 1303.87 447.397   6
   4   6  -7 306.451 182.183   3
   4  -6  -7 1091.27 277.144   8
  -4   6   7 200.630 128.804  19
  -4  -6   7 1080.12 310.622   1
  -4  -6   7 1083.06 349.338  14
  -6  -4   7 84.6683 87.9627   6
   4   6  -7 1192.93 456.309   4
   4   6  -7 650.330 310.009  19
  -4   6   7-52.5752 457.692   2
   4  -6  -7 974.912 440.021  18
   4  -6  -7 1271.52 391.752  13
   6  -4  -7 314.928 142.327  13
   4   6  -7 953.816 342.387   5
   4   6  -7 633.476 274.757  12
   6   4  -7 568.319 353.882  12
   4  -6  -7 430.157 227.680   1
   6   4  -7 400.873 197.910   3
   6  -4  -7 69.3455 192.220  18
  -4  -6   7 643.862 330.366   8
  -6   4   8 130.138 108.942  17
  -4   6   8 1845.80 678.724  17
  -4   6   8 1606.25 365.085  19
   4   6  -8 441.561 233.134   3
   4   6  -8 887.989 299.337  19
  -4  -6   8 1564.63 372.057   1
  -6  -4   8 445.165 318.129   6
  -6   4   8-9.37619 68.6041   6
   4   6  -8 1131.28 407.933   5
   4   6  -8 1006.31 440.841   4
  -4   6   8 955.998 527.655   2
  -6  -4   8 149.143 123.531  14
   4  -6  -8 1943.89 540.497  13
   6  -4  -8 763.769 295.747  13
   4   6  -8 667.654 266.609  12
   6   4  -8 1171.40 452.737  12
   6  -4  -8 868.716 412.405  18
  -4  -6   8 1332.90 396.520  14
   4  -6  -8 536.705 277.101   1
   4  -6  -8 1474.36 362.698   8
   4  -6  -8 1367.81 475.316   3
   6   4  -8 677.238 333.515   3
   4  -6  -8 1243.56 505.627  18
  -4  -6   8 1695.06 503.264   6
  -4  -6   8 572.489 267.603   8
  -4   6   9 444.008 200.104  17
  -4  -6   9 2208.78 554.515   6
   4  -6  -9 895.691 254.188   8
   6   4  -9 1000.26 425.139   3
  -4  -6   9 2097.65 432.702   1
  -6  -4   9 905.993 386.570   6
  -6   4   9 108.602 105.333   6
  -4  -6   9 1557.72 407.403  14
  -6   4   9-31.3910 71.7778  17
   4   6  -9 1347.99 430.708   5
   4   6  -9 743.236 297.761   3
   6  -4  -9 1229.71 472.696   3
  -6  -4   9 577.228 276.527  14
   6  -4  -9 1596.00 474.139  13
   4  -6  -9 1890.04 472.653  13
  -4   6   9 758.918 346.475   2
   4   6  -9 825.361 320.126  12
   6   4  -9 1223.31 475.520  12
   4  -6  -9 2716.29 906.253  11
   4   6  -9 1787.59 319.491  11
   4   6  -9 1334.37 480.515   4
   4   6  -9 679.901 294.861  19
  -4  -6   9 898.661 356.191   8
   4  -6  -9 1897.39 444.584   3
   6   4  -9 1131.45 380.374   4
   4  -6  -9 762.840 314.571   1
   4  -6  -9 1412.84 533.317  18
   6  -4  -9 1425.40 542.129  18
  -4   6   9 1069.53 338.495  19
  -6   4  10 294.620 259.409  17
  -4   6  10-94.6327 179.350  17
   4  -6 -10-32.9652 100.517   1
   6   4 -10 65.5402 31.0355   3
  -4   6  10 42.3031 76.3161  19
  -4  -6  10-60.3285 185.845  16
  -4   6  10 28.8267 44.6578  16
   4  -6 -10 147.260 124.050   3
  -6   4  10 12.8488 85.4506   6
   4   6 -10 62.1244 134.407   3
  -6  -4  10 52.6339 67.9102   6
   6  -4 -10 58.1937 96.4656   3
  -4  -6  10 88.3468 129.834  14
   4   6 -10 30.5181 89.8213   5
   4  -6 -10-46.5054 64.1302  18
  -6  -4  10 5.93393 95.8618  14
   4   6 -10-45.1409 80.5629  19
  -4   6  10 17.9660 115.858   2
   4   6 -10-113.730 124.407  13
   6  -4 -10 131.970 95.6302  13
  -4  -6  10 8.92343 33.8584   1
   4  -6 -10 111.440 208.312  13
   6   4 -10-58.7952 158.575   5
   4   6 -10 82.7220 130.761  12
   6   4 -10 0.35244 20.4974  12
   6   4 -10-64.4396 93.5265   4
  -4  -6  10-58.6385 66.3029   8
   6  -4 -10 69.3249 139.613  18
   4   6 -10 57.8470 105.352   4
   4  -6 -10 77.7592 273.397  11
  -4  -6  10 40.9163 138.677   6
  -6  -4  11 31.1093 237.120   8
  -4  -6  11 2211.67 591.478   6
  -4   6  11 493.788 385.650  17
   6   4 -11 1642.37 513.070   3
  -4  -6  11 1234.60 568.560  16
  -6   4  11 127.235 102.886   6
  -6  -4  11 1341.44 477.829   6
   4   6 -11 761.498 350.828   3
  -4  -6  11 1835.14 453.490  14
  -6  -4  11 1531.59 413.175  14
  -4   6  11 1146.24 468.563  16
   6   4 -11 1653.23 383.316  18
  -6  -4  11 774.650 192.572   1
   6   4 -11 1895.49 411.205   5
  -6  -4  11 1860.04 442.134  17
   6  -4 -11 1790.85 472.240  13
   4  -6 -11 2335.81 555.234  13
   6   4 -11-265.720 250.784  13
  -4   6  11 1472.99 564.178   2
   4   6 -11 859.872 335.047  19
  -4  -6  11 197.311 131.754   1
   4   6 -11 856.401 387.854  12
   4   6 -11-198.403 166.727  13
   6   4 -11 1263.87 479.605  12
   6   4 -11 1971.34 542.713   4
   4   6 -11 245.088 122.242   4
   4  -6 -11 2068.91 751.845  11
  -6   4  11 275.358 117.091  19
  -6   4  11 299.229 297.345  17
   6  -4 -11 1863.30 629.084  18
   4  -6 -11 1321.06 516.517  18
  -4   6  11 681.184 245.603  19
   6  -4 -11 2056.52 585.381   3
  -4  -6  11 1397.59 471.483   8
   4  -6 -11 881.359 344.300   1
   4  -6 -11 2202.56 454.416   3
  -6  -4  12 732.402 269.650  14
  -6   4  12 295.051 329.679  17
   6  -4 -12 755.604 388.877  18
  -4   6  12 212.124 274.466  17
   6  -4 -12 760.709 327.135   3
  -4  -6  12 792.685 365.235   6
  -6   4  12-4.22774 21.1344   6
   6   4 -12 495.202 308.164   3
  -4  -6  12 546.367 354.892  16
  -4   6  12 725.419 379.379  16
  -6  -4  12 422.973 320.501   6
   4  -6 -12 887.064 301.034   3
  -6  -4  12-95.9601 216.629   8
   4   6 -12 291.023 273.019   3
  -6  -4  12 1463.26 410.154  17
  -6   4  12 270.311 106.637  19
   4  -6 -12 300.848 255.247  18
  -4  -6  12 732.309 284.483  14
  -4   6  12-198.836 280.177   5
   4  -6 -12 264.542 209.347   1
   6   4 -12 727.518 247.167   5
   6   4 -12-88.4796 148.279  13
   4   6 -12-90.5962 117.246  13
   6  -4 -12 700.565 289.087  13
  -4   6  12 639.586 402.383   2
   4   6 -12 388.644 280.928  12
   4   6 -12 348.558 206.930  19
   6   4 -12 422.180 244.300  12
   6   4 -12 724.065 324.297   4
   4  -6 -12 434.190 164.584  12
   4  -6 -12 657.877 431.646  11
   6   4 -12 840.037 309.447  18
  -4  -6  12 646.772 328.751   8
  -4   6  12 56.5144 145.488  19
   6   4 -12-105.222 155.827  19
  -6  -4  13-3.70701 138.180   8
  -6  -4  13 688.008 266.081  17
  -6   4  13 42.7545 51.2655  17
   4  -6 -13 203.205 195.211   1
  -4   6  13 58.0742 176.604  17
   6   4 -13-111.941 171.213  13
  -6   4  13 56.8508 26.2933   6
  -4  -6  13 216.561 130.216  14
   4   6 -13 68.3500 152.322  19
   6  -4 -13 328.623 205.450   3
  -4  -6  13 301.178 245.231  16
  -4   6  13 288.621 232.839  16
  -6  -4  13 337.442 265.706   6
   6   4 -13 205.196 246.103   3
   4  -6 -13 457.926 236.804   3
  -4   6  13-80.0409 205.432   5
   4   6 -13 345.293 312.721   3
   6   4 -13-143.652 143.928  19
  -6  -4  13 415.928 200.180  14
  -6   4  13-343.212 612.699   2
   6   4 -13 118.814 25.8330   5
   6  -4 -13 298.391 236.762  13
   4   6 -13 110.804 140.534  13
  -4   6  13 336.333 316.642   2
   4   6 -13 430.055 315.975  12
   4  -6 -13 230.480 213.094  18
   4  -6 -13 275.475 109.567  12
   6   4 -13 90.3912 105.444  12
   6  -4 -13 23.5944 174.371  12
   6   4 -13 270.270 195.175   4
   4  -6 -13 218.122 219.475  11
  -4  -6  13 516.665 295.582   6
   6   4 -13 327.647 181.741  18
   6  -4 -13 343.367 310.921  18
  -4  -6  13 321.870 248.910   8
   6  -4 -14 573.193 308.377   3
  -6  -4  14 501.188 230.875  14
  -4   6  14-268.120 250.781  17
  -6   4  14-42.7841 104.475   6
  -4  -6  14 452.167 273.432   6
  -6   4  14 17.4054 88.2758  17
  -6   4  14 143.638 207.079  16
  -6  -4  14 556.662 350.909   6
  -4   6  14 229.681 207.444  16
   6   4 -14 333.872 300.323   3
   4  -6 -14 826.372 331.855   3
   4   6 -14 353.937 288.840  19
   4   6 -14 679.898 427.709   3
  -4  -6  14 403.265 203.904  14
  -4   6  14 124.502 39.8301   5
  -6   4  14-149.049 386.716   2
   6   4 -14-49.2588 114.352  13
   6  -4 -14 562.822 288.228  13
   4   6 -14 45.5653 116.752  13
   4   6 -14 936.802 457.500  12
  -4  -6  14 570.190 421.109  16
  -4   6  14 603.748 325.672   2
   4  -6 -14 525.875 166.335  12
   6   4 -14 315.685 235.788  12
   6  -4 -14 258.877 165.806  12
   6   4 -14-188.480 344.376   4
   6  -4 -14 1898.40 852.823  11
   6   4 -14 1502.23 537.395  11
   4  -6 -14 227.144 229.630  11
  -6  -4  14 118.262 102.259   8
  -6  -4  14 268.909 280.344  16
   6   4 -14 73.4908 113.022  19
   6   4 -14 443.465 177.813  18
  -6  -4  14 845.032 273.937  17
  -4  -6  14 668.045 350.818   8
   6  -4 -14 545.685 309.993  18
   4  -6 -14 220.275 164.904   1
   4  -6 -14 136.754 65.8762  18
   6   4 -15 39.8917 54.5480  19
  -6   4  15 515.431 411.902  17
  -6  -4  15 690.534 227.159  17
  -4   6  15 162.361 228.263  17
  -4  -6  15 596.635 327.053   8
  -4  -6  15 532.944 314.536   6
   4  -6 -15 142.871 160.408   1
  -6  -4  15 594.946 357.275   6
  -6  -4  15 439.839 380.865  16
  -4  -6  15 733.128 437.449  16
   6  -4 -15 745.377 321.978   3
   6   4 -15 441.513 254.042   3
   4  -6 -15 978.499 349.707   3
   4   6 -15 673.407 377.756   3
  -4  -6  15 532.056 262.360  14
  -6  -4  15 810.046 262.471  14
  -4   6  15 136.965 61.1867   5
   6  -4 -15-93.3095 211.164   1
  -6   4  15 368.942 271.611  16
  -6   4  15 377.674 221.496   2
   4  -6 -15 281.745 191.820  11
   6   4 -15-22.0970 106.654  13
   6  -4 -15 781.899 300.151  13
   4   6 -15 609.037 303.136  13
   4   6 -15 914.539 471.199  12
   4  -6 -15 749.502 207.449  12
  -4   6  15 771.836 458.764   2
   6   4 -15 108.543 155.721  12
   6  -4 -15 489.849 247.280  12
   4   6 -15 100.282 74.3465  19
   6  -4 -15 1288.32 612.129  11
   6   4 -15 911.488 371.393  11
  -6  -4  15 274.655 105.302   8
  -4   6  15 589.521 342.062  16
   6  -4 -15 673.231 392.337  18
   6   4 -15 221.908 150.281  18
   4  -6 -15-214.694 370.261  18
  -4   6  16 1628.13 840.231  17
  -6   4  16-136.851 165.200  17
  -6  -4  16-113.768 165.407  17
  -4  -6  16-246.696 269.484   6
  -6  -4  16-10.8150 118.111   6
   4  -6 -16 392.369 392.298   1
  -6  -4  16-378.073 352.162  16
  -6   4  16-130.053 286.820  16
  -4  -6  16 7.08855 180.254  16
   6  -4 -16-11.8167 245.042   3
   6   4 -16 232.472 255.485   3
  -4  -6  16-104.434 205.770  14
  -4   6  16 1717.21 841.874   2
  -4  -6  16 94.9541 235.894   8
   4  -6 -16-559.981 678.754  11
  -4   6  16 829.134 588.455  16
  -4   6  16 505.332 395.557   5
   6  -4 -16-31.5381 104.108   1
  -6   4  16-200.536 190.003   2
   6   4 -16 169.682 197.458  13
  -6  -4  16-99.1964 128.641   8
   6  -4 -16 130.651 298.446  13
   4   6 -16 971.442 409.409  13
   6   4 -16-6.65449 164.788  12
   6  -4 -16-108.887 132.204  12
   6  -4 -16 43.5390 179.536  11
   6   4 -16-238.028 295.324  11
   4   6 -16-54.1595 162.335  19
   6   4 -16-103.873 126.376  19
  -6  -4  16-70.8740 128.503  14
   6  -4 -16-26.2961 100.106  18
  -4  -6  17-40.9149 289.314   6
  -4   6  17 408.537 288.457  16
  -6   4  17 247.459 316.682  17
  -4   6  17 156.463 139.687  17
  -6  -4  17-129.471 211.812  17
   6   4 -17 248.666 233.991  13
  -6  -4  17 231.833 147.599  16
  -4  -6  17 508.576 283.982  16
   4  -6 -17-81.8358 165.867   1
   6   4 -17 40.1068 157.284   3
  -4  -6  17-69.6787 272.440  14
  -6  -4  17 136.729 58.0522  14
  -4  -6  17-450.010 654.612   2
  -4   6  17 143.637 55.0938   5
   6  -4 -17-36.2631 120.805   1
  -6   4  17 207.448 314.086   2
   6  -4 -17 444.907 273.182  13
   6   4 -17 39.5440 19.5052  19
   6   4 -17 64.3972 91.7006  12
   6  -4 -17 426.644 221.294  12
  -4   6  17 269.837 72.2183   2
  -6   4  17 266.428 263.296  16
   6  -4 -17 324.616 354.620  11
   6  -4 -17 459.307 317.626   3
  -4  -6  17 510.523 287.154   8
  -6  -4  17 386.042 306.717   6
   4   6 -17 31.7909 35.1132  19
   6   4 -17-347.586 426.898  11
   6  -4 -17 167.832 141.063  18
  -6  -4  17 114.214 77.0773   8
   5   6  -4 46.1289 139.734  19
  -5  -6   4 43.9552 78.5295   6
  -5  -6   4 42.0876 117.998  14
   5  -6  -4-234.296 320.409  18
   5   6  -5-56.3962 245.521   3
   5   6  -5 143.377 98.3077  19
  -5  -6   5 60.7739 102.247   6
  -5  -6   5 111.216 136.318  14
   5  -6  -5 77.9120 52.5056  18
  -5  -6   5-100.527 226.231   1
   5   6  -5 117.525 63.7516  12
  -5   6   5-74.2842 103.427  17
   5   6  -5-42.1357 313.964   4
   5   6  -6 43.8415 58.5067  19
   6  -5  -6-200.641 427.719  18
   5   6  -6-60.8464 214.023   4
  -6  -5   6 65.9172 21.1724   6
   5  -6  -6-9.11150 143.937   1
  -5  -6   6-14.8295 103.154  14
   5  -6  -6-28.3033 271.813  13
  -5  -6   6 7.90478 123.733   1
  -5   6   6 238.794 365.631  17
   5   6  -6 9.52447 42.7264   3
   5   6  -6-77.2033 236.001   5
   5   6  -6-1.49755 190.474  12
  -5  -6   6 138.461 189.954   6
   5  -6  -6 668.780 444.512  18
   5  -6  -7 77.5590 71.2770   1
   6   5  -7 291.384 188.622   3
   5   6  -7 336.044 222.549   3
  -5  -6   7 683.515 347.239   6
  -5   6   7 1.60810 30.7104   6
  -6  -5   7 154.995 118.260   6
  -5  -6   7 469.884 257.900  14
  -6  -5   7 41.7774 49.7578  14
   6  -5  -7 182.400 252.759  13
   5  -6  -7 794.816 274.800  13
  -5   6   7-128.821 286.975  17
  -5  -6   7 380.684 201.142   1
   5   6  -7 695.359 318.941   5
   5   6  -7 384.831 269.510  12
   6   5  -7 533.077 288.714  12
   5  -6  -7 108.145 188.441   8
  -5  -6   7 153.578 83.9495   8
   5   6  -7 432.435 259.523  19
   5   6  -7 985.690 444.383   4
   6  -5  -7 255.624 173.149  18
   5  -6  -7 724.331 359.207  18
  -6   5   8 418.744 428.824  17
   6   5  -8 59.9596 70.8574   3
   5   6  -8 269.751 161.913   3
  -5   6   8 28.6181 46.8899   6
  -5  -6   8 119.654 117.391   8
  -5  -6   8 349.951 274.683   6
  -6  -5   8 318.712 286.696   6
  -6   5   8-30.5656 46.9470   6
   6   5  -8 6.29463 289.322   4
  -6  -5   8 45.7106 66.3080  14
   5  -6  -8 305.936 130.688   8
   5  -6  -8-19.0219 86.0713   1
  -5  -6   8 231.177 146.160   1
   5   6  -8 431.715 261.337   5
   5   6  -8 243.949 207.658  12
   6   5  -8 199.605 198.690  12
   6  -5  -8 220.738 81.5446  13
  -5   6   8 20.6752 125.311  19
  -5   6   8 859.785 532.370  17
   5   6  -8 336.249 244.604   4
   5   6  -8 186.131 92.3649  19
   5  -6  -8 488.033 233.805  13
   6  -5  -8 236.162 231.140  18
  -5  -6   8 319.811 221.589  14
   5  -6  -8 431.104 318.296  18
  -5  -6   9 51.5599 158.660   8
   6   5  -9 103.892 11.0409   3
  -5   6   9-10.3822 14.9386   6
  -5  -6   9 357.672 200.009   1
   5   6  -9 66.5554 123.516   3
  -5  -6   9 262.981 298.330   6
  -6   5   9 58.2390 97.3925   6
  -6  -5   9 41.2254 58.6313   6
  -6   5   9-63.6281 177.501  17
   6   5  -9 283.690 236.495   4
   5  -6  -9 257.293 235.201  18
  -5  -6   9 325.076 205.440  14
  -6  -5   9 193.587 157.262  14
   6  -5  -9 329.045 168.392  13
   5   6  -9 180.771 160.337   5
   5  -6  -9 377.482 183.391  13
   5  -6  -9 54.5468 110.645   1
   6   5  -9 77.9837 143.174   5
   5   6  -9 263.369 202.028  12
   6   5  -9 110.695 135.636  12
  -5   6   9 174.323 155.379  19
   6  -5  -9 286.863 294.881  18
   5   6  -9 87.3066 95.0605  19
   5  -6  -9 381.331 167.697   8
   5   6  -9 490.137 346.305   4
  -5   6   9 92.5906 251.221  17
   5  -6  -9 222.932 165.687   3
   6   5 -10 334.863 220.483   4
   6  -5 -10 194.979 162.105   3
   5  -6 -10 291.672 161.413   3
   6  -5 -10 513.226 357.103  18
   6   5 -10 222.986 199.428   3
   5   6 -10 39.5978 85.4528   3
  -5  -6  10 379.222 277.622   6
  -6  -5  10 124.706 201.397   6
  -5   6  10 172.219 129.430  19
  -5  -6  10 290.505 223.473  14
  -5   6  10-162.079 362.524   2
  -5  -6  10-32.4044 149.705   8
  -6  -5  10 147.306 171.592  14
   6   5 -10 12.3564 100.624  19
   5   6 -10 333.349 283.862   5
  -5  -6  10 295.750 191.640   1
   5  -6 -10 326.782 284.344  18
   6  -5 -10 246.935 170.062  13
   5  -6 -10 298.018 185.366  13
   6   5 -10 207.565 157.687   5
   5  -6 -10 7.03408 64.1773   1
   5   6 -10 84.9395 72.3695  12
  -6   5  10 15.6630 45.4682   6
   6   5 -10 196.615 140.753  12
  -6  -5  10 116.816 89.8917   1
   6  -5 -10 77.7339 25.5013   8
   5   6 -10 239.746 207.200   4
  -5   6  10 263.648 267.410  17
  -6   5  10 489.257 481.556  17
   5   6 -10 172.681 172.754  19
  -5  -6  10 545.576 148.140  17
   5  -6 -10 162.880 97.9518   8
  -6  -5  11 690.698 253.108  17
  -5  -6  11 341.138 179.986   1
  -5   6  11 199.032 220.661  17
   6  -5 -11 353.880 236.509   3
   6   5 -11 479.877 312.789   4
   5  -6 -11 423.600 206.616   3
  -6   5  11 18.8110 84.8274  17
   6   5 -11 166.747 195.373   3
  -6   5  11 47.8894 79.4162   6
   6  -5 -11 486.556 219.104  13
  -5  -6  11 322.200 269.835   6
   5   6 -11 190.514 170.942   3
  -6  -5  11 409.991 300.248   6
   5   6 -11 109.569 112.966  19
  -6  -5  11 323.794 151.253   1
   6   5 -11 34.1477 23.0624  19
  -5  -6  11 375.483 250.104  14
  -6  -5  11 491.485 267.115  14
   5   6 -11 316.835 215.291   5
  -5   6  11 116.472 52.0849   2
   6   5 -11 223.522 155.603   5
   5  -6 -11 356.166 219.827  13
   6   5 -11 453.984 211.957  18
   5   6 -11 26.4586 122.788  12
   6   5 -11 271.876 220.515  12
   5  -6 -11 145.110 168.135   1
   5   6 -11 764.027 335.829  11
   5   6 -11 299.676 273.046   4
  -6   5  11 108.034 93.3663  19
  -5   6  11 142.484 70.8327  19
   6  -5 -11 495.690 389.734  18
   5  -6 -11 335.551 321.836  18
  -5  -6  11 276.494 221.546   8
  -5   6  12-15.5780 143.398  16
  -6  -5  12 797.225 291.741  17
  -6  -5  12-218.211 209.362   8
  -6   5  12 185.651 326.563  17
   5  -6 -12 57.4100 156.917  18
  -5   6  12-79.0721 96.1566  17
   6  -5 -12 54.6891 76.8086   3
  -6   5  12 32.2820 40.5877   6
   5  -6 -12 114.461 77.7632   3
  -5  -6  12 172.457 208.943  16
   6   5 -12-102.413 198.860   3
   5   6 -12 72.8613 89.3550  19
  -5  -6  12 190.282 192.667   6
   6   5 -12 352.533 256.638   4
  -6  -5  12 60.6993 210.607   6
   5   6 -12-98.7540 149.483   3
  -6  -5  12 91.7268 79.4155   1
  -5  -6  12 95.5434 152.909  14
  -6  -5  12 167.318 130.906  14
   6   5 -12 140.134 169.368   5
  -5   6  12-45.2445 107.492   2
   6   5 -12-350.583 275.205  13
   5   6 -12-117.968 143.179  13
   6  -5 -12 140.539 201.823  13
   5  -6 -12 245.859 196.805  13
   6  -5 -12 242.266 286.378  18
   5   6 -12-4.92644 64.4476  12
   6   5 -12 25.8008 77.6094  12
  -5  -6  12 13.6645 46.9673   1
   5   6 -12-267.500 325.567   4
   5  -6 -12 22.7716 51.5948   1
   5  -6 -12 340.801 504.054  11
   5   6 -12 56.7389 77.3193  11
  -6   5  12 50.1920 51.3252  19
   6   5 -12 177.212 112.383  18
  -5   6  12-59.6337 139.945  19
   5   6 -12 7.34101 165.426   5
   6   5 -12-53.9848 107.225  19
  -5  -6  12-37.9237 206.536   8
   6   5 -13 199.462 200.460  19
  -6  -5  13 53.9202 143.799   8
  -5   6  13 402.164 439.120  17
   5  -6 -13 129.857 172.358   1
  -6   5  13-11.6226 103.103   6
  -6   5  13 360.430 348.580  17
   6  -5 -13 534.177 313.586   3
  -5  -6  13 827.100 404.451   6
  -5  -6  13 173.412 253.170  16
  -5   6  13 360.391 271.024  16
  -6  -5  13 435.839 298.777   6
   5   6 -13 212.030 154.393   3
  -6  -5  13 676.532 266.769  14
   6   5 -13 472.500 195.394   5
  -6   5  13-420.472 645.235   2
   6  -5 -13-53.0425 189.021   1
   6  -5 -13 449.484 334.779  18
   6   5 -13-161.430 192.119  13
  -5   6  13 546.874 335.727   2
  -5   6  13 0.62475 105.680  19
   5   6 -13-213.643 196.899  13
   6  -5 -13 665.526 290.313  13
   6   5 -13 356.479 245.639   3
   5  -6 -13 767.068 355.695  13
   5   6 -13 182.246 164.731  12
  -5  -6  13 792.590 300.262  14
   6   5 -13 271.277 216.636  12
   6   5 -13 594.616 214.108  18
   6   5 -13 571.082 359.086   4
   5  -6 -13 833.696 525.975  11
  -6   5  13 15.1112 46.7980  19
   5  -6 -13 704.655 299.565   3
   5   6 -13 193.939 180.089  19
  -6  -5  13 831.668 245.569  17
   5  -6 -13 571.515 370.734  18
  -5  -6  13 374.656 240.246   8
  -6   5  14 375.052 392.852  17
  -5   6  14-312.301 283.864  17
  -6  -5  14 46.5891 89.8604  17
  -5  -6  14 37.7158 140.763   6
   6  -5 -14 67.4965 142.806   3
  -5  -6  14-59.0939 63.8223  16
  -5   6  14-66.7286 196.216  16
  -6  -5  14 8.61000 68.9469   6
   5  -6 -14 70.0276 53.3635   3
   5   6 -14 205.241 200.326   3
  -5  -6  14 40.8130 113.831  14
  -6  -5  14 70.0133 114.158  14
  -6   5  14-390.224 443.451   2
   6  -5 -14-32.0636 99.1109   1
   6   5 -14 31.1600 94.1158   3
   6   5 -14-95.3419 134.954  13
  -5   6  14 68.1415 212.294   2
   5   6 -14-161.262 152.658  13
   5  -6 -14-85.1961 192.879  18
   6  -5 -14 66.0204 169.317  13
   5  -6 -14 275.474 281.257  13
  -6  -5  14-121.919 228.313   8
   5   6 -14-53.4177 163.370  12
   5  -6 -14-11.2881 58.5353   1
   6   5 -14 27.1296 156.958  12
   5  -6 -14-108.621 183.948  12
  -5  -6  14-67.1825 179.644   8
   6   5 -14-248.357 391.749   4
   6  -5 -14 849.904 635.100  11
   6   5 -14 131.652 144.180  11
   5  -6 -14-154.342 262.499  11
   5   6 -14-39.1278 114.561  19
   6   5 -14-21.9225 65.5285  19
   6  -5 -14 43.6671 139.881  18
  -6  -5  15 23.6912 120.421   8
  -5   6  15 248.493 724.462  17
   5  -6 -15 62.2760 280.714   1
  -5  -6  15 159.943 130.964   6
  -6  -5  15 213.319 204.309   6
  -6  -5  15 178.319 351.163  16
  -6   5  15 91.2870 224.023  16
  -5  -6  15 55.9604 191.011  16
  -5   6  15-79.3312 186.889  16
   6  -5 -15 444.726 313.313   3
   6   5 -15-55.0009 65.1207  13
   6   5 -15-6.59555 115.892   3
   5  -6 -15 673.246 434.166   3
   5   6 -15 51.4121 146.775   3
  -5  -6  15 197.138 71.9137  14
  -6  -5  15 155.798 47.6589  14
  -6   5  15-35.1895 116.248   2
   5  -6 -15 1681.89 600.964  13
   6  -5 -15 9.34099 12.6761   1
   5   6 -15-200.337 195.179  13
  -5   6  15-21.4062 308.067   2
   6  -5 -15 473.253 297.589  13
   5   6 -15-10.9090 103.475  19
   5   6 -15-54.2744 205.492  12
   6   5 -15 155.337 137.101  12
   6  -5 -15 138.725 64.3858  12
   5  -6 -15-39.9117 219.504  18
   6  -5 -15 324.395 370.634  11
   6   5 -15 129.984 163.353  11
   5  -6 -15-188.688 394.326  11
   6   5 -15-30.6634 104.701  19
  -6   5  15 293.469 422.115  17
  -5  -6  15 234.753 212.377   8
   6  -5 -15 152.830 130.149  18
  -5   6  16 3113.47 1186.12  17
  -6  -5  16-163.190 294.247   8
   5   6 -16-222.016 181.698  19
  -6   5  16 32.0799 160.824  17
  -5  -6  16 131.121 152.528   6
  -6  -5  16 244.534 244.747   6
  -6  -5  16 46.8201 61.3637  16
  -6   5  16 500.794 459.530  16
  -5  -6  16 237.820 300.798  16
  -5   6  16 1265.80 615.359  16
   5  -6 -16 988.693 610.551   1
   6  -5 -16 707.420 364.795   3
   6   5 -16 151.892 187.581   3
   5   6 -16 40.5137 103.892   3
  -5  -6  16 131.234 116.752  14
  -6  -5  16 95.9849 122.535  14
  -5  -6  16 159.008 133.136   8
  -6   5  16 1064.97 632.223   2
   5  -6 -16 975.867 855.010  13
   6   5 -16 263.561 242.551  13
   5   6 -16-39.8974 120.967  13
   6  -5 -16 104.519 161.238   1
  -5   6  16 801.733 641.367   2
   6  -5 -16 6.30453 356.155  13
   5   6 -16 36.5806 80.3992  12
   6   5 -16 121.133 130.106  12
   6  -5 -16 554.745 275.777  12
   6  -5 -16-86.9598 275.967  11
   5  -6 -16 92.3359 263.527  11
   6   5 -16-380.766 236.648  19
   6  -5 -16 204.437 224.873  18
   5  -6 -16 2433.75 753.382   3
   5  -6 -16-120.241 270.413  18
  -6   5  17 265.222 392.150  17
  -5   6  17-138.067 308.118  17
  -5  -6  17-11.0386 118.116   6
  -6  -5  17 53.2777 178.287   6
  -6  -5  17 61.2591 156.655   8
   6  -5 -17-107.858 166.445   3
   6   5 -17 44.0915 132.051   3
   5  -6 -17 251.105 247.948   3
   5   6 -17 392.721 301.173   3
  -6  -5  17-37.8570 103.616  14
   6   5 -17-15.9279 82.2672  13
   5   6 -17 127.074 166.528  13
   6  -5 -17-61.2698 141.878  13
   6  -5 -17-50.3052 162.871   1
   5   6 -17 170.654 226.685  12
   6   5 -17-60.5621 115.482  19
   6   5 -17-155.094 160.898  12
   5   6 -17 42.9895 57.4081  19
   5  -6 -17-41.2862 166.629   1
  -5  -6  17 82.2407 80.6587  14
   6  -5 -17 3.37524 60.5137  18
  -6   5  17 162.165 136.483   2
  -6  -6   5-31.6076 23.6101   6
   6  -6  -5-542.419 493.016  18
  -6  -6   6 148.787 78.2644   6
   6   6  -6 159.079 247.226  12
   6  -6  -6 263.627 179.593  18
  -6  -6   7-138.914 187.070   6
  -6   6   7 79.6786 271.142  17
  -6  -6   7-55.7948 54.8923  14
   6   6  -7-47.1402 158.038  12
   6   6  -7-256.022 398.203   4
   6   6  -7-160.750 233.288   3
   6  -6  -7 19.4053 185.543  18
  -6   6   8-260.934 320.043  17
  -6  -6   8 220.118 242.842   6
   6   6  -8 44.9094 72.8933   3
  -6   6   8-5.67252 53.7072   6
  -6  -6   8 148.524 142.062  14
   6  -6  -8 158.258 110.026  13
  -6  -6   8 52.7828 95.0569   1
   6   6  -8 61.3720 94.9564   5
   6   6  -8 274.819 244.080  12
   6   6  -8-250.009 228.737  19
   6  -6  -8 137.051 242.569  18
   6   6  -8 278.691 265.039   4
   6   6  -9-98.2225 144.447   3
  -6   6   9-16.2516 10.8150   6
  -6  -6   9-33.8645 96.6424   6
  -6  -6   9-16.7969 79.2783  14
   6  -6  -9-122.935 178.457  13
   6   6  -9 6.58750 71.7368   5
   6   6  -9-29.2622 166.573  19
   6   6  -9-103.220 149.531  12
   6  -6  -9-85.5991 156.212   8
  -6   6   9 243.413 373.399  17
   6  -6  -9 226.386 245.711  18
  -6  -6   9-18.5459 91.6932   1
   6   6  -9 53.7292 66.2092   4
   6   6 -10 179.219 264.936   4
  -6   6  10-1.50927 71.5382  17
  -6  -6  10-123.396 245.799   8
   6   6 -10-96.6765 223.143   3
  -6   6  10 36.9161 60.5160   6
  -6  -6  10-14.0590 108.497   6
  -6  -6  10 11.4258 79.6435  14
   6  -6 -10 216.946 260.217  18
   6  -6 -10-21.0109 100.204  13
   6   6 -10-81.0152 131.956   5
  -6  -6  10 27.1446 89.2492   1
   6  -6 -10 22.4688 64.9011   8
   6   6 -10-68.5466 141.116  12
  -6   6  10 118.958 142.691  19
   6   6 -10 13.9915 30.9899  19
  -6  -6  11-119.360 279.389   8
   6  -6 -11-92.8482 177.369   3
  -6   6  11 362.424 456.206  17
  -6   6  11 22.9343 121.747  19
  -6   6  11 27.4463 55.7357   6
   6   6 -11-101.111 128.281   3
  -6  -6  11 145.856 208.022   6
   6   6 -11 18.5745 88.5279  18
   6   6 -11-48.2701 148.262  19
  -6  -6  11-0.03526 108.738  14
   6  -6 -11-130.669 254.525   1
   6  -6 -11 20.5076 181.262  18
   6   6 -11 130.991 175.679   5
   6  -6 -11-41.3025 129.178  13
   6   6 -11 45.2541 140.778  12
  -6  -6  11 5.35729 80.6021   1
  -6  -6  11 125.853 141.814  17
   6   6 -11-69.3592 29.8293   4
   6  -6 -11 1.64622 15.2754   8
  -6  -6  12 147.460 105.779   8
  -6  -6  12 1145.31 269.416  17
   6  -6 -12 640.549 320.554   3
   6   6 -12 59.1426 69.0045  19
  -6   6  12-77.6002 141.905   6
  -6   6  12 218.846 311.250  17
   6   6 -12 146.551 177.962   3
  -6  -6  12 587.021 379.579   6
  -6  -6  12 482.329 194.610   1
  -6  -6  12 565.668 261.618  14
   6   6 -12 481.693 202.124   5
   6  -6 -12-21.3387 162.448   1
   6  -6 -12 661.231 322.815  13
   6   6 -12 249.675 125.442  12
   6   6 -12 460.832 313.246   4
  -6   6  12 279.618 159.447  19
   6  -6 -12 641.181 392.829  18
  -6   6  13 41.7424 172.367  17
   6  -6 -13-133.369 217.014   3
   6   6 -13-161.182 179.912   3
  -6  -6  13 134.014 247.856   6
  -6  -6  13-22.1210 125.771  14
   6   6 -13 29.3102 34.0629   5
  -6   6  13-698.277 726.878   2
  -6  -6  13-8.77069 70.4611   8
   6  -6 -13-49.3356 138.667   1
   6  -6 -13-70.8000 176.561  13
   6   6 -13 37.5556 84.0812  12
   6   6 -13 329.865 355.234  11
   6   6 -13 154.971 169.393   4
  -6   6  13-20.6749 121.450  19
   6   6 -13-27.7514 68.6306  19
  -6  -6  13 3.50598 55.0572   1
   6  -6 -13 192.762 258.585  18
  -6  -6  14 49.6236 120.197   8
  -6   6  14-12.9314 447.452  17
   6  -6 -14 643.183 399.136   3
  -6  -6  14 452.117 288.082   6
   6   6 -14 56.3432 94.0522   3
  -6  -6  14 392.564 236.101  14
   6   6 -14-258.662 241.945  13
   6  -6 -14-13.5101 191.126   1
   6   6 -14 132.796 110.667  12
   6   6 -14-229.133 378.539   4
   6  -6 -14 487.163 423.038  11
   6   6 -14 259.982 50.8231  11
   6   6 -14 44.1280 114.512  19
   6  -6 -14 273.305 289.994  18
  -6  -6  15 48.3068 209.432  16
  -6  -6  15 126.186 214.844   6
  -6   6  15 1182.61 729.170  16
   6  -6 -15 1194.08 634.855   1
   6   6 -15-68.9697 145.318   3
  -6  -6  15 20.9770 156.135   8
  -6  -6  15 76.8624 200.821  14
  -6   6  15 906.746 558.696   2
   6   6 -15-83.6351 128.502  13
   6  -6 -15 937.845 625.123  13
   6   6 -15-62.6847 180.281  12
   6  -6 -15 602.016 528.453  11
   6   6 -15-320.032 227.930  19
   6  -6 -15 1500.36 644.461   3
   6  -6 -15 136.421 218.490  18
  -6   6  16 471.481 422.901  17
  -6  -6  16 141.615 257.246   6
  -6  -6  16-22.7564 94.6508  16
  -6   6  16-83.9643 198.346  16
   6  -6 -16 48.1335 54.2724   3
  -6  -6  16 72.3150 147.859  14
  -6   6  16 368.488 375.374   2
   6   6 -16-201.092 217.403  13
   6  -6 -16 163.183 226.533  13
   6  -6 -16-73.7133 153.326   1
   6   6 -16 48.6984 69.9768  12
   6   6 -16 119.336 157.664   3
   6  -6 -16 126.417 227.449  11
   6   6 -16-64.7734 123.479  19
   6  -6 -16-161.249 252.279  18
  -6  -6  16 62.2735 158.561   8
   0   7   0 13.7668 20.4019  17
   0  -7   0-15.8903 38.7165   6
   0  -7   0 111.774 127.478   1
   0   7   0-11.1053 63.1810   5
   0  -7   0-6.85941 38.4448  13
   0   7   0 95.2541 186.087   2
   0   7   0-37.5103 112.301  12
   0   7   0 72.7095 112.857   4
   0   7   0 29.1228 159.933  19
   0  -7   0-6.02057 92.2928   8
   0  -7   0-15.5848 77.9299  18
   0  -7   0-36.6266 65.5628  14
   0  -7   1 526.072 181.076   6
   0   7   1 382.131 224.073   4
   0  -7  -1 591.560 175.937   6
   0   7  -1 44.5718 28.2679   3
   0  -7   1 367.562 194.719  14
   0   7  -1 347.968 275.230  19
   0  -7  -1 364.216 172.148  14
   0   7  -1 414.438 283.756   5
   0   7  -1 189.803 119.539   2
   0   7   1 90.8652 88.5770  17
   0   7   1 606.419 326.802   5
   0  -7  -1 23.5435 160.487  11
   0  -7  -1 703.976 304.256   1
   0   7  -1 137.432 117.556  17
   0   7  -1 226.128 136.543  12
   0   7   1 643.830 284.741   2
   0   7   1 52.0959 40.3996  12
   0   7  -1 259.000 154.568   4
   0  -7   1 274.612 109.236  11
   0   7   1 490.919 302.253  19
   0  -7   1 722.052 319.416   1
   0  -7   1 601.246 320.096   8
   0  -7  -1 451.143 275.876   8
   0  -7   1 349.653 159.489  18
   0  -7  -1 98.4184 10.6154  18
   0  -7   2 16.3188 114.815   1
   0   7  -2 32.5016 81.8345  17
   0   7   2-86.9523 109.024  17
   0  -7   2 24.1153 31.0380   6
   0   7  -2 41.3416 81.7600   3
   0  -7  -2-9.35200 51.6663   6
   0  -7   2-11.7473 75.9015  14
   0  -7  -2-7.23573 59.3970  14
   0   7  -2 37.9849 40.9194   5
   0   7   2-26.6536 125.003  19
   0   7   2 126.421 222.338   5
   0  -7   2 21.0928 136.760   8
   0  -7  -2 1.68940 29.0446   1
   0   7  -2-119.676 221.925   4
   0   7   2 41.5333 117.834   2
   0  -7   2-38.6142 65.8574  18
   0  -7   2-17.0818 70.1437  11
   0   7   2-13.0372 94.4783   4
   0   7  -2-75.4022 93.3435  19
   0  -7  -2-17.3819 99.8757   8
   0   7  -3 135.731 96.4650  17
   0   7   3 120.584 115.881  17
   0  -7   3 424.873 176.492   6
   0  -7   3 685.061 213.507  16
   0  -7   3 939.650 373.892   1
   0  -7   3 537.521 228.036  14
   0   7   3 798.325 311.106   2
   0  -7  -3 912.648 206.687   6
   0   7  -3 19.2851 169.060   5
   0  -7  -3 520.872 213.516  14
   0   7   3 742.182 309.622   4
   0   7   3 575.518 327.812   5
   0  -7   3 1301.23 273.180  11
   0   7  -3 236.759 186.687  19
   0  -7   3 837.006 366.496   8
   0  -7   3 697.823 216.913  18
   0  -7  -3 846.734 333.285   1
   0   7   3 702.941 312.762  19
   0  -7  -3 497.309 269.820   8
   0   7   4-23.7738 38.7144   2
   0  -7  -4-73.1718 203.887   8
   0   7  -4 4.49339 47.4972  17
   0  -7  -4-17.5412 42.8959   1
   0  -7   4-30.6849 98.7891   6
   0   7   4-22.3429 91.5791  17
   0  -7   4-11.4576 55.1019   1
   0  -7   4 91.2479 125.882  16
   0  -7  -4 3.80226 24.4468   6
   0  -7   4 21.5889 51.4026  14
   0   7   4-28.1562 14.6594  19
   0  -7  -4 59.1385 76.1534  14
   0   7   4-64.6377 47.2106   5
   0   7  -4-44.5027 70.1797  19
   0   7   4 17.7382 54.4001   4
   0  -7   4 9.79839 152.220   8
   0  -7   4 21.6166 71.2810  18
   0   7  -5 29.7627 91.1580  17
   0  -7   5-32.9238 134.795   6
   0   7   5 22.2826 51.3660  17
   0  -7   5 192.691 127.563  16
   0  -7   5 66.6103 95.2380  14
   0   7  -5-22.8611 143.488  19
   0  -7  -5 137.311 117.922  14
   0  -7  -5 149.287 131.186   1
   0   7   5 88.2028 102.964   5
   0  -7   5 140.953 169.138   1
   0   7   5 143.074 142.494   4
   0   7   5 79.2773 79.3640  19
   0  -7   5 137.320 65.6032   8
   0   7   5 168.926 129.937   2
   0  -7   5 118.056 97.5835  18
   0   7  -6 121.816 111.098  17
   0   7  -6-64.2979 180.004  19
   0   7   6 14.8330 47.1791  17
   0   7   6 62.6471 104.791   4
   0  -7   6-9.62174 62.0891  14
   0   7   6-65.5787 201.856  19
   0  -7  -6 34.6966 86.1316  14
   0  -7  -6-21.3140 96.5944   1
   0  -7   6-5.10012 67.4949   1
   0   7   6-42.7006 44.2531   5
   0  -7   6-15.3455 47.7684   8
   0  -7   6 63.8666 109.981  18
   0  -7   6 11.9043 55.5927  16
   0   7   6 48.2711 44.3668   2
   0   7  -7-105.248 279.408  19
   0   7   7-134.656 133.663  17
   0  -7   7 278.683 194.650  16
   0  -7   7 92.0938 101.521  14
   0  -7   7-53.9971 254.780   1
   0  -7  -7 145.335 112.690  14
   0   7   7 275.042 222.712   5
   0  -7  -7 175.812 167.840   1
   0   7   7-36.7119 187.942  19
   0  -7   7 224.833 235.193   8
   0   7   7 177.378 125.448   4
   0  -7   7 11.7917 148.993  18
   0   7   7 161.252 170.095   2
   0   7   8-74.3761 101.930  17
   0  -7   8 36.1932 118.126  16
   0  -7   8-89.2383 191.859  14
   0  -7   8 193.617 298.918   8
  -7   0   8-245.951 301.232   6
   0  -7  -8 52.5636 101.836  14
   0   7   8 14.0723 74.8954   5
   0   7  -8-240.796 511.589  19
   0   7   8-137.146 228.976   4
   0   7   8-108.081 162.010   2
   0  -7  -8 99.0973 109.299   1
   7   0  -9-77.5102 194.328   3
  -7   0   9 21.6521 83.8386   6
   0   7   9-302.404 210.545  17
   0  -7   9 28.8218 29.9088  16
   0  -7   9-176.915 258.396  14
   0  -7  -9 21.5571 53.7092  14
   0   7   9-45.3467 122.628   5
   0  -7   9-123.442 202.277   8
   0  -7  -9-8.64162 75.4694   1
   0   7   9-31.6789 115.013   2
   0   7  10-71.0117 182.059   2
   0  -7  10-6.53527 108.542   8
   7   0 -10 39.1887 85.1289   3
   0   7  10-28.5410 87.8684  17
   0  -7 -10-32.5370 82.2898   1
   0  -7  10 30.8332 51.8456  16
  -7   0  10-33.7156 140.668   6
   0  -7 -10 70.4680 97.6610  14
   0   7  10-19.7958 56.8837   5
   0   7  11 723.175 349.206   2
   0   7  11 188.474 181.527  17
   0  -7  11 643.578 314.219  16
  -7   0  11 288.460 226.705   6
   0  -7 -11 142.113 148.613   1
   7   0 -11 1545.00 557.519   3
   0  -7 -11 302.137 159.913  14
   7   0 -11 920.911 348.008  18
   7   0 -11 364.483 227.319  13
   0   7  11 667.046 326.762   5
   7   0 -11 1032.05 406.996  12
   0  -7  11 748.789 298.201   8
   0   7  12 24.5645 125.256   2
   7   0 -12-93.7390 213.477   3
  -7   0  12-32.3459 93.2413   6
   0  -7  12-103.869 193.645  16
   0  -7 -12 31.0192 62.1858  14
   7   0 -12 17.0849 68.1772  13
   0  -7 -12 37.7265 92.2689   1
   0   7  12-91.8249 210.800   5
   0   7  12-318.736 231.747  17
   7   0 -12-42.7950 126.797  12
  -7   0  12 315.294 263.616  17
   7   0 -12 130.830 210.124  18
   0  -7  13 568.621 287.186  16
  -7   0  13 386.400 277.961   6
   0  -7  13 422.183 256.488   8
   0   7  13 60.0555 132.417  17
   0  -7 -13 112.295 101.703  14
   7   0 -13 800.681 369.630  13
   7   0 -13 1329.19 479.818  12
   0   7  13 650.966 246.985   5
   7   0 -13 1740.06 330.547   4
  -7   0  13 1069.01 470.915  17
   7   0 -13 1798.46 576.712  18
   0   7  13 729.952 365.903   2
   7   0 -13 1664.93 565.717   3
  -7   0  14 258.519 321.587  17
   7   0 -14 102.923 144.848   3
  -7   0  14-23.1287 83.4765   6
   0  -7 -14 35.6859 94.1486  14
  -7   0  14-8.68340 69.0998  14
   7   0 -14-128.127 192.419  13
   7   0 -14-59.6279 143.713  12
   7   0 -14-40.8768 77.8186   4
   0  -7 -14 44.6739 120.932   1
   0   7  14 111.887 173.103   2
   7   0 -14 70.9839 165.754  18
   0  -7  14-58.3897 222.292  16
   0   7  15 254.082 200.940   2
  -7   0  15 703.338 406.846  17
  -7   0  15 170.185 176.347   6
   0  -7  15-446.589 671.702   8
   0  -7  15 310.851 209.780  16
  -7   0  15 388.415 145.671  14
   7   0 -15 244.902 206.052  13
   7   0 -15 509.684 271.437  12
   7   0 -15 569.198 310.088   3
   7   0 -15 645.955 332.363  18
  -7   0  16 11.3335 73.1804   6
  -7   0  16-83.1495 253.812  16
   7   0 -16 40.0047 79.5715   3
   0  -7  16-28.3316 237.526  16
   7   0 -16-202.691 275.168  13
   7   0 -16-157.962 263.670  12
  -7   0  16-71.9948 113.477  17
   7   0 -16-29.9258 21.0560  18
  -7   0  17 111.341 104.338  17
  -7   0  17 51.5450 91.8467   6
  -7   0  17 13.0726 134.319  16
   7   0 -17-55.4220 95.3009   3
   0  -7  17-85.3525 103.576  16
   7   0 -17 68.4168 175.364  13
   7   0 -17-33.8358 155.977  12
   7   0 -17 410.003 385.657  11
   7   0 -17-31.2630 82.8896  18
  -7   0  18 67.5333 80.1907  17
  -7   0  18-7.53484 77.5602   6
   7   0 -18-28.5018 42.0953   3
   7   0 -18-14.7965 119.738  13
   7   0 -18 77.6286 138.713  12
   7   0 -18-71.0123 220.099  18
  -1   7   0 515.615 242.070  17
  -1  -7   0 2477.18 427.440   6
   1  -7   0 2630.86 611.820   1
   1  -7   0 819.171 287.859  14
  -1  -7   0 1952.12 499.319   1
  -1  -7   0 1752.68 393.248  14
   1   7   0 1640.07 493.899   5
   1   7   0 1834.11 384.634   2
  -1  -7   0 1466.44 474.050   8
  -1   7   0 396.077 226.774   5
   1  -7   0 2058.98 517.450   8
  -1   7   0 681.575 361.421  19
   1   7   0 2142.01 546.505   4
   1   7   0 482.258 213.817  12
   1   7   0 1617.23 512.019  19
   1  -7   0 1823.86 448.742  18
   1   7  -1-18.1000 75.5618   3
  -1   7  -1 211.490 183.392  17
  -1  -7   1 800.672 245.585   6
   1  -7  -1 61.4874 29.0829   6
   1  -7  -1 685.273 329.301   1
   1   7   1-10.7661 52.2893  17
   1  -7  -1 768.681 317.053   8
  -1  -7  -1 294.753 219.345   8
  -1  -7  -1 607.207 285.499   1
   1  -7   1 521.855 267.913   8
   1   7  -1 561.720 296.420   4
   1  -7   1 228.196 142.240  14
  -1   7   1 365.801 208.409  19
   1  -7  -1 262.238 149.500  14
  -1  -7   1 619.871 230.703  14
   1   7   1 600.230 291.270   4
  -1  -7  -1 541.111 215.323  14
  -1   7   1 204.436 147.712   5
   1   7  -1-42.6588 75.2061  17
  -1   7   1 346.053 221.596   2
   1   7  -1 596.663 296.456   5
  -1  -7  -1 670.264 224.488   6
   1   7   1 552.966 286.475   5
   1   7   1 399.433 170.747   2
  -1   7   1 206.210 109.114  12
   1   7  -1 143.164 69.7847  12
  -1   7  -1-154.132 315.712   5
  -1  -7   1 593.487 269.546   1
  -1   7   1 71.1180 219.555   4
   1   7  -1 481.261 282.404  19
   1   7  -1 666.034 228.890   2
   1  -7  -1 1084.02 371.385  11
   1  -7   1 595.216 253.898  18
  -1   7   1 95.7555 134.788  17
  -1   7  -1 29.0389 134.386  19
   1  -7  -1 463.413 137.001  13
   1   7   1 496.135 271.375  19
   1  -7   1 662.605 312.903   1
   1  -7  -1 656.017 276.809  18
  -1  -7   1 562.635 242.294   8
  -1   7  -2-60.6498 152.322  19
  -1  -7  -2 169.129 155.976   8
  -1   7  -2 91.3233 141.685  17
  -1   7   2 162.827 140.924  17
   1  -7  -2 94.9940 48.0053   6
   1   7  -2-48.5500 78.3088  17
   1   7  -2 17.3252 53.5774   3
   1   7   2-37.3959 64.4418  17
   1  -7   2 281.766 102.263  16
   1  -7  -2 593.126 276.127   1
  -1  -7   2 456.404 184.525   6
  -1  -7  -2 476.354 201.400   6
   1  -7   2 120.484 117.541  14
   1  -7  -2 174.682 120.174  14
  -1  -7   2 448.141 199.004  14
   1  -7   2 443.790 268.276   8
  -1  -7  -2 349.477 190.569  14
  -1   7   2 203.538 171.766   5
  -1  -7  -2 354.394 236.006   1
   1   7  -2 476.211 297.962   5
   1  -7  -2 744.869 189.586  13
  -1  -7   2 657.516 286.635   1
  -1   7   2 399.756 248.049   2
   1   7  -2 470.641 192.267   2
   1   7   2 405.689 259.884   5
   1  -7   2 437.359 216.317  18
   1   7  -2 167.425 86.5417  12
   1  -7  -2 539.752 277.960   8
  -1   7   2 74.7347 28.2058  12
   1   7  -2 375.478 246.236  19
  -1   7   2 104.320 28.2992   4
   1  -7  -2 576.628 250.817  11
   1  -7   2 433.837 246.037   1
   1   7  -2 372.528 230.989   4
  -1   7   2 232.645 151.846  19
   1   7   2 380.922 255.211  19
   1   7   2 459.128 231.966   4
  -1  -7   2 390.647 246.118   8
   1  -7  -2 402.478 210.745  18
   1   7   2 289.332 151.340   2
  -1  -7  -3 52.0519 162.342   8
  -1   7   3 141.608 137.738  17
   1   7  -3 33.3032 26.0067  17
   1  -7  -3 159.414 64.6174   6
   1   7   3 42.9285 68.9204  17
  -1  -7   3 507.482 206.065   6
   1   7  -3 98.2301 55.3327   3
  -1  -7   3 371.595 236.502   8
   1  -7   3 26.1390 107.272  16
  -1  -7   3 691.913 313.485   1
   1  -7   3 103.195 90.2504  14
  -1  -7  -3 154.489 50.2366   6
   1  -7  -3 573.662 299.928   1
   1  -7  -3 250.749 144.138  14
  -1  -7   3 347.645 180.934  14
   1  -7   3 298.078 232.524   8
   1  -7   3 399.660 202.713  18
  -1   7  -3-11.9811 66.1974  17
  -1  -7  -3 242.152 165.393  14
   1   7  -3 308.665 225.838   5
  -1   7   3 284.677 238.959   5
   1   7   3 334.921 243.781   5
   1   7  -3 198.640 158.579  12
  -1   7   3 462.472 302.425   2
   1  -7   3 270.384 196.922   1
   1   7   3 432.990 304.729  19
  -1  -7  -3 312.672 204.651   1
  -1   7   3 215.058 171.943   4
   1   7  -3 294.343 218.739   4
   1  -7  -3 290.158 178.761  11
   1  -7  -3 364.830 216.429   8
   1   7  -3 112.785 134.901  19
  -1   7   3 363.578 223.677  19
   1   7   3 250.896 154.817   2
   1   7   3 283.426 199.289   4
   1  -7  -3 295.460 178.662  18
  -1   7  -3-94.1099 210.819  19
  -1  -7  -4-48.1269 125.298   1
   1   7  -4 10.7850 30.8519  17
  -1  -7   4 14.3068 76.6115   1
   1   7   4-27.0825 116.692   2
   1   7   4-98.6405 112.347  17
  -1   7  -4 38.1142 89.8990  17
  -1  -7   4-20.3227 53.4627   6
   1  -7  -4 3.30835 25.9155   6
  -1  -7   4-39.3551 105.450  16
  -1   7   4 10.1639 30.1358  16
  -1   7   4-13.0062 95.1324  19
  -1   7  -4-232.168 305.622  19
   1   7  -4 108.230 132.292   3
   1  -7   4-20.9880 93.5230  14
  -1  -7   4-14.6771 67.5560   8
   1  -7  -4-8.26735 17.1376  14
  -1  -7   4-10.5491 55.5188  14
   1   7  -4 14.4612 54.3518   5
  -1  -7  -4 83.9863 119.218  14
  -1   7   4 31.4935 110.338   5
   1  -7  -4-29.9215 36.2906   1
   1  -7   4 39.6464 118.149   1
   1   7   4-7.30553 38.9768   5
   1   7  -4 246.594 254.194  12
  -1   7   4 90.4352 183.409   2
   1   7  -4-94.9077 165.033   4
  -1   7   4 27.9998 76.2387   4
   1  -7  -4-36.9789 102.201  11
   1   7  -4 85.7965 200.100  19
   1  -7   4 31.9175 77.4749   8
   1   7   4-12.3931 152.015  19
  -1   7   4 16.3616 47.5244  17
   1  -7   4-36.0848 129.361  18
   1   7   4-36.9711 156.758   4
   1  -7  -4-10.2488 96.9480   8
   1  -7  -4 18.9033 29.1625  18
   1  -7  -5 250.515 81.5312   6
   1   7   5 49.1443 79.5338   2
  -1   7   5 50.4463 74.0933  17
  -1   7   5 253.343 187.487   4
   1   7   5-171.468 135.476  17
  -1   7   5 371.530 154.109  16
  -1  -7   5 404.750 209.740   6
   1  -7   5 44.9378 120.061  14
  -1  -7   5 347.358 200.065  14
   1   7  -5 79.8620 174.988  19
   1  -7  -5 158.301 78.4050  14
  -1  -7  -5 141.306 150.094   1
   1  -7   5 12.4441 143.166   1
   1   7  -5 69.0857 99.4973   5
  -1  -7  -5 171.422 125.106  14
  -1   7   5 126.337 148.773   5
   1  -7  -5 227.179 148.393   8
   1   7   5 198.081 187.274   5
   1  -7  -5 408.021 214.543   1
   1   7  -5-51.4311 271.152   4
  -1   7   5 383.276 245.635   2
  -1  -7   5 6.87621 92.2178  18
   1  -7  -5-5.75361 138.777  11
  -1  -7   5 335.126 197.949  16
   1  -7   5 179.714 85.4338   8
  -1   7   5 326.315 208.466  19
   1   7  -5-36.7978 61.5041  17
  -1  -7   5 365.561 236.678   8
   1  -7  -5 94.1351 42.6086  18
   1   7   5 106.679 195.698   4
  -1  -7   5 486.051 274.179   1
   1   7   5 200.889 194.764  19
   1  -7  -6 28.7527 185.509   8
   1  -7  -6 227.006 83.3862   6
   1   7  -6 17.0245 22.1070  17
   1  -7  -6-44.1454 199.252  18
  -1   7   6 128.938 142.119  17
   1   7   6 56.6077 98.4975   2
  -1  -7   6 136.887 130.015   6
  -1   7   6 188.721 110.731  16
  -1  -7   6 261.519 192.207  14
   1  -7  -6 145.258 103.815  14
  -1  -7  -6 144.536 134.268  14
  -1   7   6 220.602 202.896   5
   1   7  -6 2.10520 17.4757  13
  -1   7   6 132.042 137.125   4
   1   7   6 40.9386 53.6188   5
  -1  -7  -6 80.0429 101.398   1
   1  -7  -6 381.478 233.224   1
  -1   7   6 324.040 254.581   2
  -1  -7   6 303.681 208.409   1
   1  -7  -6-180.076 270.999  11
  -1  -7   6 300.418 277.559   8
   1  -7   6 5.30702 206.831   8
  -1  -7   6 283.111 179.165  16
   1   7  -6 156.690 178.829  19
  -1   7   6 178.743 186.408  19
   1   7   6 142.686 112.881  19
  -1  -7   6 82.5090 8.61194  18
  -1  -7  -7 39.1268 11.0035   1
   1   7  -7-34.7082 44.0492  17
  -1   7   7 41.8342 20.0981  17
   1   7   7 141.717 137.725   2
  -1   7   7 267.406 150.201  16
  -1  -7   7 402.746 226.886  16
  -1  -7   7 250.619 116.034  14
   1  -7  -7 114.751 87.1014  14
  -1  -7  -7 72.4773 91.6569  14
  -1   7   7 350.904 275.822   5
  -1   7   7 184.952 165.429  19
   1   7  -7 37.9480 163.415  19
  -1  -7   7 245.826 185.888   1
   1   7   7 49.1082 164.916   5
   1  -7   7-123.335 400.499   8
  -1   7   7 293.227 212.257   2
  -1  -7   7 605.956 355.161   8
   1  -7  -7 233.978 200.897   1
  -1  -7   7 176.048 70.3962  18
  -1  -7   7 182.099 139.107   6
  -1   7   7 253.957 163.465   4
  -1   7   8 259.719 192.975   5
  -1  -7   8 516.553 350.618   8
  -1  -7   8 160.170 39.6290   6
  -1   7   8 164.475 186.445  17
   1   7   8 63.9953 98.1178   2
  -1   7   8 193.658 108.026  16
  -1  -7  -8 122.002 133.552   1
  -1  -7   8 465.791 282.985  16
  -7  -1   8 6.62857 53.0659   6
  -1  -7   8 361.404 251.640  14
   1  -7  -8 451.200 283.465   1
   1  -7  -8 157.180 104.001  14
  -1  -7   8 60.6484 72.1363   1
  -1  -7  -8 170.967 127.630  14
   1   7  -8 255.092 297.684  19
   7   1  -8-146.329 183.581   3
   1   7   8-342.646 227.376   5
  -1   7   8 394.541 216.032   4
   1  -7   8-227.292 580.756   8
  -1   7   8 318.578 272.385   2
  -1   7   8 377.709 257.318  19
  -1  -7   8 254.814 74.2332  18
   7  -1  -9 974.238 447.559   3
   7   1  -9 853.183 457.003   3
  -1  -7   9 487.916 189.675   6
  -1   7   9 349.905 218.884  17
   1   7   9 192.849 111.679   2
   1  -7  -9 609.771 284.972   1
   1   7  -9-71.5705 28.5007  19
  -1   7   9 604.308 226.986  16
  -1  -7   9 795.594 353.416  14
  -7   1   9 54.0255 115.104   6
   1  -7  -9 389.715 165.413  14
  -1  -7  -9 135.451 105.145  14
  -1   7   9 1021.31 437.441   2
   7  -1  -9 188.856 220.177  13
  -1   7   9 916.410 356.317   5
   1   7   9 76.7815 187.388   5
  -1  -7   9 946.091 395.096  16
  -1   7   9 908.671 301.289   4
  -1  -7  -9 192.739 145.999   1
  -1   7   9 709.843 345.597  19
  -1  -7   9 1017.65 442.290   8
  -7  -1   9 22.4529 90.0455   6
   7   1 -10 553.155 358.319   3
  -1   7  10 127.096 164.624  17
   1   7  10 133.466 99.0142   2
  -1  -7  10 622.745 308.750  16
  -1   7  10 339.642 182.824  16
   1  -7 -10 140.633 102.418  14
  -7  -1  10 38.7595 71.3773   6
  -7   1  10 187.370 173.604   6
  -1  -7  10 299.675 199.488  14
   7  -1 -10 1759.29 678.406  13
   7   1 -10-269.670 349.310  13
  -1   7  10 513.991 268.617   5
   1  -7 -10 280.544 215.931   1
   7  -1 -10 812.921 554.227  18
   7   1 -10 300.636 99.7461  12
   1   7 -10 34.2875 112.245  19
  -1   7  10 630.031 356.155   2
   7  -1 -10 1883.13 696.995   3
  -1  -7 -10 70.1329 125.582   1
  -1  -7  10 557.772 293.287   8
  -1   7  10 508.946 246.282   4
  -7   1  11 115.330 214.306  17
  -1  -7  11 291.616 100.498   2
   7  -1 -11 598.479 341.797   3
   7   1 -11 540.841 266.369   3
  -1   7  11 466.998 205.616   4
  -1   7  11 58.1176 96.4720  17
  -1  -7  11 636.787 374.340  16
  -1   7  11 182.834 136.380  16
  -7  -1  11 72.1587 151.959   6
  -7   1  11 190.551 199.552   6
  -1  -7  11 177.792 98.8101  14
   1  -7 -11 207.302 197.123   1
   1  -7 -11 167.447 114.188  14
   7   1 -11-90.0315 214.984  13
   7  -1 -11 296.545 206.292  13
  -1   7  11 437.383 256.650   5
  -1   7  11 409.338 240.191   2
  -1  -7  11 711.432 358.329   8
   7   1 -11 375.315 244.362  12
   7   1 -11 249.773 83.3966  18
   1   7 -11-85.9634 191.051  19
   7  -1 -11 547.301 321.464  18
  -7  -1  12 281.685 275.264  17
  -1  -7  12 1199.29 471.042   8
   7  -1 -12 1065.39 451.780   3
   7   1 -12 1014.84 413.872   3
   7  -1 -12 1313.67 522.614  18
  -1   7  12 212.430 238.041  17
   1  -7 -12 165.405 112.981  14
  -7   1  12 178.579 174.925   6
  -1  -7  12 1065.99 436.391  16
  -7  -1  12 485.372 269.610   6
  -1   7  12 427.748 217.913  16
  -1   7  12 553.437 220.164   4
  -1  -7  12 554.081 153.493   2
  -1   7  12 815.228 382.170   2
   1  -7 -12 285.288 220.300   1
   7   1 -12 344.411 224.934  13
   7  -1 -12 747.307 312.392  13
  -1   7  12 931.290 368.941   5
  -7   1  12-6.99712 111.419  17
   1   7 -12-229.149 322.634  19
   7   1 -12 930.925 384.785  12
   7  -1 -12 787.225 302.354  12
   7   1 -12 980.787 272.921   4
   7   1 -12 1357.89 478.882  18
  -1  -7  13 150.575 69.2084   2
  -7  -1  13 180.567 124.169  17
  -7   1  13 556.946 396.811  17
  -1   7  13-11.5273 116.668  17
   7  -1 -13 346.802 204.302   3
  -1  -7  13 557.570 357.288   8
   7   1 -13 332.828 228.398   3
  -7   1  13 161.276 133.919   6
  -7  -1  13 278.314 251.359   6
  -1  -7  13 293.961 253.185  16
  -1   7  13 102.110 79.3583  16
   7   1 -13 430.138 284.856  18
   1  -7 -13 54.2878 70.2580  14
   1   7 -13-183.390 266.713  19
   7  -1 -13 285.516 114.702   4
  -7  -1  13 51.3097 74.9409  14
   7   1 -13 61.8460 60.6123  13
   7  -1 -13 200.323 37.0059  13
   1  -7 -13 37.2849 105.577   1
  -1   7  13 262.493 220.347   5
   7   1 -13 212.258 75.3252  12
   7  -1 -13 212.723 153.342  12
   7   1 -13 602.788 241.798   4
  -1   7  13 151.387 147.173   2
  -1   7  13-39.5623 224.748   4
   7  -1 -13 361.755 306.661  18
  -7   1  14 784.590 535.023  17
  -1  -7  14 1027.45 496.798   8
  -7   1  14 119.859 114.191   6
  -7  -1  14 510.968 302.874   6
  -1  -7  14 1328.38 529.599  16
   7   1 -14 1212.62 543.189   3
   1   7 -14-822.159 416.433  19
   1  -7 -14 78.3328 71.2779  14
  -1   7  14 437.490 311.634  17
  -1  -7  14 653.497 187.271   2
  -7  -1  14 735.966 232.924  14
   7   1 -14 643.424 331.303  13
   7  -1 -14 912.545 369.499  13
  -1   7  14 834.606 370.223   5
  -7  -1  14 1160.43 488.292  17
   1  -7 -14 138.623 175.465   1
   7   1 -14 1242.49 329.377   4
   7   1 -14 1231.65 450.988  12
   7  -1 -14 1173.07 392.932  12
   7  -1 -14 1500.86 532.247   3
  -1   7  14 446.778 231.931  16
   7   1 -14 1726.80 561.682  18
   7  -1 -14 1784.32 616.008  18
  -1   7  14 858.183 371.077   2
  -7  -1  15 345.678 308.047  17
  -1   7  15-183.497 193.445  17
   7  -1 -15 374.236 292.483   3
   7   1 -15 373.121 283.327   3
  -7  -1  15 116.255 133.457   6
  -1  -7  15 316.916 308.252  16
  -1   7  15-8.21956 93.4998  16
   1  -7 -15 14.4186 40.0608  14
  -7  -1  15 261.781 147.845  14
  -7   1  15 426.450 486.836  17
   7   1 -15 133.207 143.733  13
   7  -1 -15 233.656 200.118  13
  -1   7  15 232.007 233.807   5
  -1   7  15 166.419 181.365   2
   7   1 -15 308.024 238.938  12
   7  -1 -15 243.281 176.939  12
   1  -7 -15 92.3643 101.433   1
  -7   1  15 125.565 172.348   6
  -1  -7  15 360.561 262.131   8
  -1  -7  15 109.918 29.6620   2
   7   1 -15 514.434 299.549  18
   7  -1 -15 467.007 363.041  18
  -1  -7  16 205.363 247.107   8
  -7   1  16 374.913 271.742  17
  -7  -1  16 270.750 220.190  17
  -1   7  16-34.2492 109.971  17
  -7   1  16 1.98678 38.3572   6
  -7  -1  16-38.0269 178.796  16
  -7   1  16-49.0055 206.506  16
  -7  -1  16 95.4626 174.636   6
   7  -1 -16 86.2787 126.953   3
   7   1 -16 109.827 64.2343   3
  -1  -7  16 303.705 267.562  16
  -1   7  16 195.045 208.155  16
   1  -7 -16 28.3918 70.0552  14
   7  -1 -16 98.1192 127.491  18
   7   1 -16 133.464 145.656  13
   7  -1 -16 147.506 155.141  13
  -1   7  16 86.1627 163.737   5
  -1   7  16 424.796 365.782   2
   7   1 -16 40.8714 133.611  12
   7  -1 -16 100.261 135.373  12
   7  -1 -16 1341.64 766.664  11
   7   1 -16 1058.63 660.470  11
   1  -7 -16 150.300 168.278   1
   7   1 -16 178.085 180.880  18
  -1  -7  16 163.971 62.7103   2
  -7   1  17 397.795 306.314  17
  -7  -1  17 571.499 257.619  17
  -7   1  17 25.8968 20.0232   6
  -1   7  17-420.274 304.353  17
  -7  -1  17 79.7216 145.518   6
  -7  -1  17 45.8339 104.966  16
  -7   1  17 93.7426 26.6843  16
   7  -1 -17 336.708 254.239   3
   7   1 -17 188.242 208.831   3
  -1  -7  17 488.012 351.232  16
  -1   7  17 50.7759 14.2192  16
  -1   7  17 170.246 114.311   2
   7   1 -17-21.8671 80.3110  13
   7  -1 -17 108.835 157.871  13
   1  -7 -17-30.2314 130.585   1
  -1   7  17 264.379 198.068   5
   7   1 -17 244.667 183.214  12
   7  -1 -17 420.409 223.982  12
   7  -1 -17 868.926 562.920  11
   7   1 -17 827.733 468.954  11
  -1  -7  17 217.521 183.175   8
   7  -1 -17 417.987 269.617  18
   7   1 -17 274.897 186.297  18
  -1  -7  17 298.243 151.108   2
  -2  -7   0 1969.73 468.082   6
   2   7   0 327.190 93.9037   2
   2  -7   0 1687.33 524.417   1
  -2  -7   0 1683.67 403.958  14
  -2  -7   0 1733.31 465.437   1
   2  -7   0 213.250 100.700  14
   2   7   0 1826.41 538.970   5
  -2   7   0 169.527 216.436  17
   2   7   0 2015.50 562.739   4
   2   7   0 153.736 153.242  12
  -2   7   0-62.8680 249.086  19
   2  -7   0 1454.38 433.787   8
  -2  -7   0 929.843 409.570   8
   2   7   0 1810.21 562.107  19
   2  -7   0 1939.57 512.805  18
  -2   7  -1-18.5687 43.3370  17
  -2  -7  -1 526.721 270.025   8
  -2  -7  -1 1179.89 366.308   6
   2   7   1 96.5216 120.992   2
   2  -7   1 1142.99 431.198   1
   2  -7  -1 1821.12 539.633   1
  -2   7   1 56.4249 56.8120  19
  -2  -7   1 1579.34 393.616  14
  -2  -7   1 1742.40 467.269   1
   2  -7   1 54.1133 70.4461  14
  -2  -7  -1 1121.57 345.398  14
   2  -7  -1 258.662 153.772  14
  -2  -7  -1 849.924 333.295   1
  -2   7   1 268.369 268.655  17
   2   7  -1 1681.30 504.751   5
   2   7   1 1259.55 447.269   5
   2   7  -1 575.136 166.116   2
  -2  -7   1 2268.00 491.331   6
   2  -7   1 764.716 322.495   8
   2   7  -1 1719.51 511.017   4
   2   7   1 1495.47 466.257   4
   2   7  -1 535.630 267.817  12
   2   7  -1 1253.36 450.107  19
   2   7   1 1370.74 501.381  19
   2  -7  -1 1395.62 413.967   8
  -2  -7   1 1107.51 433.038   8
   2  -7   1 1293.05 402.368  18
   2  -7  -1 1713.15 472.995  18
  -2   7   2 224.943 199.091  17
  -2  -7  -2 31.6956 322.580   8
   2  -7   2 450.758 150.734  18
  -2  -7   2 1539.60 394.001   6
   2  -7  -2 1590.50 476.110   1
   2   7   2 561.063 211.122   4
  -2  -7   2 1371.79 402.757   1
  -2  -7   2 1031.83 326.105  14
   2  -7  -2 255.009 146.492  14
  -2   7   2-127.744 293.086   5
   2   7  -2 716.855 190.475   2
  -2   7   2-196.301 418.916   2
  -2  -7  -2 684.494 278.419  14
   2  -7  -2 788.352 207.922  13
   2  -7   2 519.620 320.841   1
   2   7  -2 928.113 374.297   5
   2   7   2 753.018 334.146   5
   2   7  -2 1179.90 440.729   4
   2   7  -2 575.311 240.496  12
   2   7   2 913.643 438.703  19
  -2  -7  -2 512.132 282.712   1
  -2   7   2 309.786 224.902  19
   2  -7  -2 1176.11 380.022   8
   2   7  -2 896.705 379.116  19
   2  -7   2 391.618 203.533   8
  -2  -7   2 674.546 326.248   8
   2  -7  -2 1370.93 426.062  18
   2   7  -2-116.981 113.362   3
  -2   7   3 139.246 159.784  17
   2   7  -3-13.9726 76.1250   3
   2   7   3-76.1914 188.757  19
  -2  -7   3 122.542 139.096   6
  -2  -7  -3 12.8460 84.0493   1
   2  -7  -3-7.20460 22.4421  14
   2  -7   3-38.2348 187.637   1
  -2   7   3-84.2254 241.072   5
  -2  -7   3 40.1586 74.7203  14
   2  -7  -3 29.6404 67.1173  18
  -2  -7  -3 51.6499 107.439  14
  -2   7   3 29.7628 98.3458   2
   2   7  -3 72.4757 200.959   5
   2  -7  -3 60.7972 68.9260  13
  -2   7   3-0.45323 21.1255  12
   2   7   3-64.2295 219.594   5
   2   7  -3 26.0756 56.5080  12
   2  -7  -3 8.01503 86.2752   1
  -2   7   3 153.283 146.463  19
   2   7  -3 53.6173 52.0419   2
   2  -7   3-273.284 337.664   8
  -2  -7   3 15.4221 96.7932   1
   2   7  -3-2.14541 84.3180  19
   2  -7  -3 169.174 151.827   8
   2   7  -3 179.374 216.359   4
  -2  -7   3-20.2166 105.583   8
  -2   7   4 345.961 271.877  17
   2   7  -4 204.127 139.106   3
  -2  -7   4 816.072 282.126   6
   2  -7  -4 145.978 103.473  14
  -2  -7   4 621.560 250.539  14
  -2   7   4 92.9490 55.6157   5
  -2  -7  -4 164.734 126.150  14
   2  -7  -4 808.934 308.554   8
   2   7  -4 771.731 354.624   5
  -2   7   4 512.177 305.208   2
   2  -7  -4 1024.13 254.562  13
  -2  -7   4 716.859 291.362   1
   2   7  -4 296.410 190.744  12
   2   7   4 94.2825 169.237   5
   2  -7  -4 1272.54 506.435  11
   2   7  -4 577.908 301.014   4
  -2   7   4 523.078 262.800  19
  -2  -7  -4 159.258 128.326   1
   2   7  -4 441.699 281.454  19
   2  -7  -4 913.851 366.486   1
  -2  -7   4 544.027 304.538   8
   2  -7  -4 597.764 289.833  18
   2   7   4 555.107 337.107  19
   2  -7  -5 216.916 187.598   8
  -2   7   5 32.0718 90.7914  17
   2  -7  -5 166.330 160.468   1
  -2  -7   5 223.806 155.205   6
   2   7  -5 34.0097 62.8522   3
  -2  -7  -5 12.0692 76.6121   1
  -2  -7   5 253.721 225.120   1
   2  -7  -5 15.0297 24.2984  14
  -2  -7   5 241.221 174.997  14
  -2   7   5 133.309 146.821   5
   2   7  -5 131.576 117.102   5
  -2  -7  -5 21.7873 27.3201  14
   2  -7  -5 483.564 236.301  13
  -2   7   5 220.751 249.207   2
   2   7  -5 25.4190 30.9476  12
  -2   7   5-79.6977 237.798   4
   2  -7  -5 220.755 252.290  11
   2   7  -5 177.770 191.455   4
  -2   7   5 46.3899 124.293  19
   2   7  -5 149.034 177.910  19
  -2  -7   5 206.359 215.282   8
   2  -7  -5 120.695 103.690  18
  -2  -7   6 1441.99 405.352   6
  -2   7   6 189.465 180.086  17
  -2  -7  -6 133.223 96.4969   1
  -2  -7   6 700.381 315.063  16
  -2   7   6 791.947 271.776  16
  -2  -7   6 1803.90 458.511   1
   2   7  -6 490.721 236.256   3
   2  -7  -6 1237.77 391.375   1
  -2  -7   6 1270.41 370.877  14
   2  -7  -6 99.7475 91.3069  14
  -2  -7   6 1048.49 414.254   8
   2   7  -6 577.539 304.627   5
  -2   7   6 611.317 317.321   5
  -2   7   6 963.249 339.981  19
   2   7  -6 602.240 293.561  12
  -2   7   6 1137.86 433.433   2
  -2   7   6 330.260 91.1355   4
   2   7  -6 713.391 337.478   4
   2  -7  -6 1087.64 384.318  11
   2   7  -6 640.545 365.410  19
   2  -7  -6 746.762 198.605   3
   2  -7  -6 708.259 299.404  18
   2  -7  -6 719.311 278.029   8
   2  -7  -7 387.409 212.960   8
  -2   7   7 849.524 434.749  17
  -2  -7   7 1009.52 332.830   6
  -2  -7   7 964.664 396.765  16
  -2   7   7 530.966 211.871  16
  -2  -7   7 1145.68 391.822   1
   2   7  -7 155.921 283.274  19
  -2  -7   7 871.444 334.923  14
   2   7  -7 478.687 310.088   3
   2  -7  -7 128.466 80.7507  14
   2  -7  -7 638.225 300.501   1
   2   7  -7 60.2831 136.154   5
  -2   7   7 577.487 307.251   5
   2   7  -7-142.601 84.7398  13
   2   7  -7 928.730 463.199  12
  -2   7   7 813.233 468.796   2
  -2   7   7 832.095 379.233  19
   2   7  -7-66.1760 225.961   4
  -2   7   7 480.732 208.181   4
   2  -7  -7 502.184 194.999  11
  -2  -7   7 931.679 382.488   8
   2  -7  -7 1142.84 218.755   3
   2  -7  -7 385.677 216.938  18
  -2   7   8 2203.55 705.743  17
   2  -7  -8 1253.35 481.528  11
  -2  -7   8 2440.45 561.804   6
  -2  -7   8 2092.09 567.166  16
  -2   7   8 2040.07 453.318  16
  -2  -7   8 2276.50 547.811   1
   2  -7  -8 1836.58 505.235   1
  -2  -7   8 2419.71 553.465  14
  -2   7   8 1652.61 515.932   5
   2  -7  -8 272.572 138.186  14
  -2   7   8 3272.98 839.151   2
   2   7  -8 761.747 236.265  13
  -2   7   8 1490.57 406.002   4
   2   7  -8 1449.04 724.905  19
  -2  -7   8 3095.60 729.981   8
  -2   7   8 3151.04 719.814  19
   7   2  -8 1340.10 501.886   3
   2  -7  -8 883.134 355.369  18
   7  -2  -9-110.988 278.372   3
   7   2  -9-53.8588 166.520   3
  -2   7   9 1.56450 79.8365  17
  -2  -7   9-38.4170 84.1866   6
  -2  -7   9-48.8023 56.3362  16
  -2   7   9 98.0373 119.185  16
  -2  -7   9 10.5696 222.048   8
  -2   7   9-74.9301 183.402  19
  -7  -2   9 9.90465 65.2599   6
  -7   2   9 37.1487 74.2617   6
   2  -7  -9-141.887 344.231  11
  -2  -7   9-55.4993 132.013  14
   2  -7  -9-32.9391 59.8047  14
  -2   7   9-21.8788 72.4382   5
   7  -2  -9-188.422 343.336  13
  -2  -7   9-63.9429 170.301   1
   2  -7  -9-25.7129 22.4923   1
   2   7  -9 140.891 108.274  13
  -2   7   9 97.3429 174.257   2
  -2   7   9-15.1386 35.6483   4
   2   7  -9 29.7925 114.659  19
   2  -7  -9-114.540 262.692  18
  -2  -7  10 1966.54 515.032   6
  -2  -7  10 2574.61 689.420  16
  -2   7  10 957.231 398.285  17
  -2   7  10 1907.23 470.902  16
   2  -7 -10 1381.07 438.587   1
  -2  -7  10 2113.50 539.380  14
  -7  -2  10 161.677 255.715   6
  -2   7  10 1708.43 518.512   5
   2  -7 -10 250.106 132.352  14
  -2   7  10 2631.31 692.219   2
   7  -2 -10 1646.62 486.862  13
   7  -2 -10 2242.71 691.236   3
   7   2 -10 1902.10 608.755  12
  -2   7  10 1714.02 409.352   4
  -2   7  10 1138.93 493.236  19
   2  -7 -10 492.412 115.416  11
  -2  -7  10 2852.38 699.118   8
   2   7 -10 138.540 163.986  19
   7  -2 -10 1154.89 454.192  18
   7   2 -10 2323.93 678.215   3
   2  -7 -10 478.987 51.3474  18
  -7   2  11-138.874 186.967  17
   7  -2 -11 739.743 388.580   3
   7   2 -11 596.219 358.328   3
  -2   7  11 168.837 81.8903  17
  -2  -7  11 489.473 208.443   6
  -2  -7  11 1017.89 470.691  16
  -2   7  11 641.933 289.818  16
  -7   2  11 123.541 148.983   6
  -7  -2  11 245.728 215.882   6
   2   7 -11 82.5193 236.616  19
  -2  -7  11 548.967 288.184  14
   2  -7 -11 47.8074 53.7679  14
  -2   7  11 658.088 323.625   5
   7  -2 -11 581.174 297.998  13
   7   2 -11 735.039 349.903  12
   2  -7 -11 277.246 192.909   1
  -2   7  11 912.785 415.548   2
  -2   7  11 661.262 259.005   4
  -2  -7  11 1088.72 445.440   8
   7  -2 -11 654.693 364.378  18
   7   2 -11 86.4149 257.890  18
  -7  -2  12 370.485 275.256  17
  -2  -7  12 667.875 268.156   6
   7  -2 -12 1136.45 442.999   3
  -2   7  12 238.901 265.031  17
   7   2 -12 955.400 460.349   3
   2   7 -12 189.443 190.430  19
  -2  -7  12 1268.74 542.359  16
  -7   2  12 176.675 143.549   6
  -7  -2  12 431.781 307.458   6
  -2   7  12 805.203 323.518  16
  -2  -7  12 546.819 287.217  14
   2  -7 -12 46.7558 67.1296  14
   2  -7 -12 496.743 274.754   1
  -2  -7  12 734.464 180.628   2
  -7  -2  12 277.642 158.737  14
   7   2 -12 115.370 32.9533  13
  -2   7  12 967.606 395.119   5
   7  -2 -12 897.295 390.987  13
  -2   7  12 1041.89 313.294   4
   7   2 -12 1355.02 395.269   4
   7   2 -12 1059.02 440.635  12
   7   2 -12 958.791 386.470  18
  -2   7  12 1219.35 480.951   2
  -2  -7  12 1361.39 509.004   8
  -7   2  12 101.815 224.501  17
   7  -2 -12 1370.93 514.776  18
  -2  -7  13 368.923 21.2367   6
  -2   7  13 246.105 183.480  17
   7   2 -13 1220.99 507.437   3
  -7   2  13 345.791 187.238   6
  -7  -2  13 483.947 288.289   6
  -2   7  13 783.373 326.264  16
  -2  -7  13 483.438 222.738  14
  -2  -7  13 1403.29 322.552   2
   2  -7 -13 26.5615 57.4900  14
  -2   7  13 1168.82 498.866   2
  -7  -2  13 537.969 225.377  14
   7   2 -13 319.225 209.008  13
  -2   7  13 983.578 393.966   5
   7  -2 -13 752.367 366.621  13
  -2  -7  13 1399.58 592.860  16
  -7   2  13 452.883 357.142  17
   7   2 -13 1613.04 426.302   4
  -2   7  13 951.575 294.037   4
   7   2 -13 913.375 373.860  12
   7  -2 -13 940.630 381.705  12
   2   7 -13 207.807 232.558  19
  -7  -2  13 1057.89 445.404  17
   2  -7 -13 516.001 299.449   1
  -2  -7  13 1312.79 529.212   8
   7   2 -13 1508.61 506.999  18
   7  -2 -13 1620.13 582.581  18
   7  -2 -13 1474.73 532.607   3
  -7   2  14 241.160 284.607  17
   7   2 -14 734.186 408.587   3
  -2   7  14 190.848 246.802  17
   7  -2 -14 845.763 389.683   3
  -7   2  14 266.199 221.046   6
  -7  -2  14 460.913 247.581   6
  -2  -7  14 868.087 455.894  16
  -2   7  14 770.842 326.762  16
  -2  -7  14 128.629 167.484  14
  -2   7  14 830.606 402.036   2
   2  -7 -14 1.36948 48.5819  14
   7  -2 -14 1128.13 494.758  18
  -7  -2  14 725.728 259.288  14
   7   2 -14 345.970 218.372  13
  -2   7  14 555.797 279.167   5
   7  -2 -14 624.409 338.880  13
  -2  -7  14 1016.15 302.464   2
   7   2 -14 724.368 366.848  12
   7  -2 -14 719.888 318.913  12
   7   2 -14 1059.12 348.840   4
  -2  -7  14 1014.48 440.251   8
   2   7 -14 181.541 253.869  19
  -2   7  14 749.546 258.929   4
   7   2 -14 1025.56 423.927  18
  -7  -2  14 999.634 440.469  17
   2  -7 -14 368.964 251.786   1
  -7   2  15 607.188 428.108  17
  -2   7  15 434.385 280.877  17
  -7   2  15 42.1968 79.8450   6
   7  -2 -15 912.933 423.605   3
   7   2 -15 785.876 405.083   3
  -7  -2  15 282.113 296.859   6
  -2  -7  15 1221.37 534.369  16
  -2   7  15 759.598 365.913  16
  -2  -7  15 1436.01 363.087   2
   2  -7 -15 49.3671 34.8256  14
  -7  -2  15 728.183 240.595  14
  -7  -2  15 1107.80 420.644  17
   7   2 -15 452.000 261.127  13
  -2   7  15 731.995 330.687   5
   7  -2 -15 477.897 310.504  13
   7   2 -15 896.223 375.558  12
   7  -2 -15 669.513 318.436  12
  -2   7  15 1039.03 487.620   2
   2   7 -15 78.3095 138.958  19
  -2   7  15 794.205 265.547   4
   7   2 -15 1198.32 441.808  18
  -2  -7  15 1327.55 513.078   8
   7  -2 -15 1164.94 501.823  18
   2  -7 -15 276.994 231.160   1
   2  -7 -16 265.699 239.973   1
  -7   2  16 347.172 472.048  17
  -7  -2  16 1365.43 517.217  17
  -2   7  16 142.421 230.835  17
  -7   2  16-3.64408 47.8070   6
  -7  -2  16 571.544 361.956   6
   7  -2 -16 1156.10 522.691   3
   7   2 -16 600.355 318.203   3
  -2  -7  16 1001.47 522.104  16
  -2   7  16 709.312 327.495  16
   2   7 -16-6.64991 112.931  19
  -7  -2  16 825.131 267.138  14
  -2  -7  16 1379.66 403.838   2
   2  -7 -16 25.0564 43.0475  14
  -2   7  16 993.956 449.769   2
  -2  -7  16 930.175 388.659   8
   7   2 -16 50.7961 199.530  13
  -2   7  16 592.387 308.284   5
   7  -2 -16 697.740 378.094  13
   7   2 -16 660.337 329.251  12
   7  -2 -16 635.955 286.094  12
  -2   7  16 862.985 279.415   4
   7   2 -16 2719.13 859.860  11
   7  -2 -16 2825.97 999.886  11
   7  -2 -16 862.704 468.282  18
   7   2 -16 1212.25 425.634  18
  -7   2  17-26.3448 116.140  17
  -7  -2  17-52.4900 190.951  17
  -2   7  17 19.8705 261.479   2
  -7   2  17-19.7745 101.382   6
  -2   7  17-49.3575 59.9717  17
  -7  -2  17 30.8740 123.405   6
  -7  -2  17 6.78979 81.1387  16
  -7   2  17-316.310 318.090  16
   7  -2 -17 59.6991 129.174   3
   7   2 -17-128.768 177.121   3
  -2  -7  17-205.803 241.714  16
  -2   7  17 26.5087 113.683  16
   7   2 -17-219.243 292.371  13
  -2   7  17-106.515 193.549   5
   7  -2 -17-62.9957 99.9578  13
   7   2 -17-80.1576 128.055  12
   7  -2 -17-181.628 237.723  12
   7  -2 -17 173.823 282.234  11
   7   2 -17 82.0756 223.618  11
   2   7 -17 12.2732 192.943  19
  -2   7  17 97.6704 95.2645   4
  -2  -7  17 61.5066 240.937   8
   2  -7 -17 52.3491 110.894   1
   7  -2 -17-97.0819 231.846  18
   7   2 -17-17.4760 66.2498  18
  -3  -7   0 309.295 240.922   8
   3  -7   0 126.344 284.904   8
  -3  -7   0 962.971 323.416  14
  -3  -7   0 524.067 219.753   6
   3   7   0 1100.43 397.209   5
   3  -7   0 755.721 348.256   1
  -3  -7   0 700.359 300.501   1
   3   7   0 1291.08 501.753  19
   3  -7   0 763.640 306.357  18
   3   7   0 1058.89 360.769   4
   3  -7  -1 263.886 137.748   8
   3  -7  -1 535.548 266.391  18
  -3  -7   1 108.859 115.677   8
  -3  -7   1 473.071 270.878   6
  -3  -7  -1 131.473 123.213   1
   3  -7   1 73.3557 109.376   1
  -3  -7   1 407.308 219.105  14
  -3  -7  -1 260.608 166.434  14
   3  -7  -1 437.838 270.510   1
   3   7  -1 515.475 304.139   5
   3   7   1 157.957 141.604   5
  -3  -7   1 284.506 200.792   1
   3   7  -1 539.384 224.453   4
   3   7  -1 561.751 331.152  19
   3   7   1 382.556 290.856  19
  -3   7   1 73.4343 130.017  17
  -3   7   2 125.610 227.112  17
  -3  -7   2 398.194 267.587   8
  -3  -7   2 583.272 258.092   1
  -3  -7   2 914.388 352.422   6
  -3  -7  -2 111.459 109.335   1
  -3   7   2-345.648 351.372  19
  -3  -7   2 826.609 296.951  14
  -3  -7  -2 164.551 134.627  14
   3   7  -2 738.712 346.118   5
   3  -7  -2 549.661 307.433   1
   3   7  -2 343.651 223.484  12
   3  -7  -2 769.188 302.432   8
   3   7   2 531.502 285.797  19
   3   7  -2 915.836 400.221   4
   3  -7  -2 1020.07 406.080  18
   3   7  -2 735.699 337.557  19
  -3  -7   3 722.811 372.323   8
   3   7  -3-10.7423 127.835   3
  -3  -7   3 1705.82 465.432   6
  -3  -7   3 1445.71 410.280  14
   3   7  -3 1483.78 482.339   5
   3  -7  -3 608.546 127.595  13
   3   7  -3 1519.13 520.676   4
   3   7  -3 484.992 274.637  12
   3  -7  -3 855.179 366.135   1
  -3  -7   3 1359.11 411.074   1
  -3   7   3 72.7495 92.0950  19
   3  -7  -3 1154.86 349.513   8
   3   7  -3 1064.65 423.107  19
   3  -7  -3 1440.06 473.543  18
  -3   7   3 261.868 286.175  17
   3  -7  -4 36.7654 157.171  18
   3   7  -4 35.1368 163.172   4
   3   7  -4-39.8948 97.6956   3
  -3  -7   4 54.1309 82.3569   6
  -3  -7   4 10.6719 8.25193   1
  -3   7   4 383.643 340.371  17
  -3  -7   4 11.8694 59.9642  14
   3  -7  -4-22.3816 64.7041  13
   3   7  -4-24.2456 105.093   5
   3   7  -4-31.1968 102.404  12
  -3   7   4 85.4240 162.477  19
   3  -7  -4 22.0651 10.0121   1
   3   7  -4 22.9798 115.273  19
   3  -7  -4 44.2575 97.9807   8
  -3  -7   4 36.4136 113.035   8
  -3   7   5 61.7544 131.137  17
   3   7  -5 212.016 162.162   3
  -3  -7   5 807.973 318.739   6
  -3  -7   5 496.839 230.044  14
  -3   7   5 87.4941 221.625   2
   3   7  -5 623.800 348.183   5
   3  -7  -5 845.199 255.319  13
   3   7  -5 330.998 119.364  12
  -3   7   5 211.630 131.267  19
   3   7  -5 569.460 323.281   4
   3  -7  -5 546.977 261.564  18
   3  -7  -5 430.078 268.392   1
   3  -7  -5 772.445 286.232   8
  -3  -7   5 654.356 270.173   1
   3   7  -5 348.636 237.250  19
  -3  -7   5 292.681 195.710   8
  -3   7   6 820.223 492.018  17
   3   7  -6 198.051 153.077   3
  -3  -7   6 625.311 287.469   6
  -3   7   6-80.1476 306.657   5
  -3  -7   6 680.380 267.898  14
   3   7  -6 508.592 276.761   5
  -3   7   6 174.435 335.013   2
   3  -7  -6 800.781 309.348  13
  -3  -7   6 775.183 288.983   1
   3   7  -6 235.817 201.152  12
   3  -7  -6 1218.56 616.230  11
  -3   7   6 829.021 577.529  19
   3   7  -6 541.379 278.505   4
   3   7  -6 550.408 283.146  19
   3  -7  -6 704.081 266.316   8
   3  -7  -6 524.326 229.217  18
   3  -7  -6 230.643 234.571   1
  -3  -7   6 351.092 184.778   8
  -3   7   7 3711.52 760.240  19
  -3  -7   7 2317.14 554.420   6
   3   7  -7 498.607 220.153   3
   3  -7  -7 1740.24 547.324   1
  -3  -7   7 3333.91 613.143   1
  -3  -7   7 1955.58 456.059  14
   3  -7  -7 29.8665 101.547  14
  -3   7   7 2210.41 713.495   2
   3   7  -7 1474.81 490.270   5
   3  -7  -7 851.535 300.476   3
  -3   7   7 320.320 154.804   5
   3  -7  -7 2552.85 485.718  13
   3   7  -7 918.262 353.677  12
   3  -7  -7 3031.83 845.705  11
   3   7  -7 1232.12 471.048   4
   3  -7  -7 1731.50 437.848   8
   3  -7  -7 1841.79 585.820  18
   3   7  -7 810.381 284.822  19
  -3  -7   7 1348.48 430.911   8
  -3   7   7 4974.50 1034.24  17
  -3   7   8 3.19145 209.070  17
  -3  -7   8 608.768 280.204   1
   3  -7  -8 403.218 161.299   3
  -3  -7   8 212.644 202.778  16
  -3   7   8 145.543 59.0557  16
   3   7  -8 169.256 179.469   3
   3  -7  -8-163.626 118.460  14
  -7  -3   8-5.79785 81.8200   6
  -3  -7   8 459.695 232.365  14
  -3   7   8 39.3486 156.904   5
   3  -7  -8 182.891 167.581   1
   3   7  -8 82.2118 46.9006   5
  -3   7   8 82.1299 122.744   2
   3  -7  -8 508.248 295.943  13
   3  -7  -8 227.982 155.123  18
   3   7  -8 146.756 182.120  12
   3   7  -8 197.124 191.241  19
   3   7  -8 173.786 153.873   4
   3  -7  -8 469.720 364.888  11
  -3   7   8 82.8021 79.9044  19
   7   3  -8 19.4240 147.680   3
  -3  -7   8 320.456 211.491   8
  -3  -7   8 479.913 277.339   6
   3  -7  -8 68.2023 125.960   8
  -3  -7   9 4489.36 807.944   6
  -3   7   9 1717.81 547.606  17
  -3  -7   9 2732.08 769.523  16
  -3   7   9 2603.89 607.757  16
   7  -3  -9 1540.93 459.159  18
  -3  -7   9 3471.80 635.692   1
   3  -7  -9 2592.08 638.271   1
   3   7  -9 1194.55 404.185   3
  -3  -7   9 4279.81 712.745  14
  -7  -3   9 570.407 366.129   6
   3  -7  -9-15.8603 77.1226  14
  -7   3   9 32.4446 104.638   6
  -3   7   9 1416.39 476.430   5
  -3   7   9 3030.34 779.278   2
   3   7  -9 924.530 328.879   5
  -3  -7   9 3492.03 764.289   8
   7  -3  -9 2349.32 582.723  13
   3   7  -9-97.0508 106.297  13
   7   3  -9 2645.71 783.737  12
   3   7  -9 1409.54 424.948  12
   3   7  -9 1133.28 391.590   4
   3  -7  -9 3263.98 865.530  11
   3   7  -9 2007.51 553.642  19
  -3   7   9 2393.27 577.471  19
   3  -7  -9 2047.00 625.162  18
   7   3  -9 2504.57 755.026   3
   3  -7  -9 4676.82 591.358   3
  -7   3  10 141.601 271.503  17
   7  -3 -10 12.1356 193.437   3
   7   3 -10-6.38791 104.591   3
  -3   7  10-99.9790 203.127  17
  -3  -7  10 180.744 155.818   6
  -3  -7  10 89.8567 167.425  16
  -3   7  10 248.333 224.484  16
   3  -7 -10 62.6249 123.283   1
   3  -7 -10 153.107 129.017   3
  -7  -3  10 118.012 187.467   6
  -7   3  10 84.2281 132.369   6
   3   7 -10 185.525 235.436   3
   3  -7 -10-22.1102 72.7860  14
  -3  -7  10 121.561 137.073  14
  -3   7  10 52.3357 84.3110   5
  -3  -7  10 90.8542 78.7133   8
   7  -3 -10 51.0361 170.752  13
   3   7 -10-130.531 126.785  13
  -3   7  10 54.3171 119.277  19
   3   7 -10 307.342 296.395  12
  -3  -7  10-7.66740 96.8498   1
  -3   7  10 121.173 234.371   2
   7   3 -10 62.1800 108.040  12
   3  -7 -10 2.12119 169.456  11
   3   7 -10 126.752 126.906  19
   7  -3 -10 105.770 62.9324  18
   3  -7 -10 31.3965 54.2471  18
  -7   3  11 157.866 328.839  17
  -3  -7  11 1358.78 432.991  14
  -3   7  11 652.629 358.224  17
   7   3 -11 693.689 406.481   3
   3   7 -11 444.050 197.178  19
  -3  -7  11 1137.28 417.224   6
  -3   7  11 879.548 377.877  16
  -7   3  11 52.2266 90.1797   6
  -7  -3  11 184.762 232.400   6
   3  -7 -11 783.151 362.341   1
   3   7 -11 381.061 292.132   3
  -3  -7  11-63.7271 183.769   1
   3  -7 -11-20.6370 80.8977  14
  -3   7  11 776.979 342.901   5
  -7  -3  11 156.885 142.864  14
   7  -3 -11 1054.66 417.357  13
   3   7 -11 177.261 130.118  13
   3   7 -11 816.277 452.142  12
  -3   7  11 1132.43 505.877   2
   7   3 -11 1211.30 491.880  12
  -3  -7  11 1273.94 561.587  16
   7  -3 -11 1333.27 542.617  18
  -3   7  11 254.227 150.093  19
   7   3 -11 937.458 276.507   4
  -3  -7  11 1283.43 462.856   8
   7  -3 -11 1316.84 526.613   3
   3  -7 -11 601.448 346.176  11
   3  -7 -11 447.533 286.476  18
   3  -7 -11 1579.22 382.972   3
  -7  -3  12 668.685 319.609  17
  -7   3  12 50.7311 274.210  17
  -3  -7  12 1278.54 449.573   6
  -3   7  12 486.811 339.416  17
  -3  -7  12 1254.95 545.325  16
  -3   7  12 1051.75 397.610  16
  -7   3  12 174.061 157.850   6
  -7  -3  12 544.734 387.469   6
  -3  -7  12 1123.43 401.364  14
   3  -7 -12 703.517 333.808   1
   7  -3 -12 1455.41 574.536  18
   3  -7 -12 317.363 106.450  11
  -3   7  12 817.544 377.139   5
   3   7 -12 281.667 208.047  19
  -7  -3  12 605.928 267.752  14
   7  -3 -12 1007.09 410.911  13
   3   7 -12 192.347 151.391  13
   3  -7 -12 976.072 172.704  12
  -3  -7  12 1490.79 522.757   8
  -3   7  12 1522.86 581.852   2
   7   3 -12 1619.89 479.878   4
   7   3 -12 923.177 394.335  12
  -3   7  12 271.819 53.9404   4
   7   3 -12 1308.61 411.190  18
   7   3 -12 1136.84 493.715   3
   7  -3 -12 1180.01 474.224   3
   3  -7 -12 114.682 120.513  18
  -7  -3  13 1583.05 502.155  17
  -7   3  13 443.308 468.307  17
  -3   7  13 388.707 361.631  17
   7  -3 -13 1195.24 468.393   3
  -3  -7  13 1012.93 402.979   6
   7   3 -13 1232.90 450.423   3
  -7   3  13 132.817 144.831   6
  -3  -7  13 1286.91 598.362  16
  -7  -3  13 649.229 358.877   6
  -3  -7  13 1037.77 414.656  14
   3  -7 -13-22.1923 67.3501  14
   7   3 -13 1199.51 264.413   5
   3  -7 -13 601.638 299.587   1
  -3   7  13 937.368 398.422  16
  -7  -3  13 991.415 317.529  14
  -3   7  13 750.037 328.101   5
   7   3 -13-13.3925 126.335  13
   7  -3 -13 868.225 380.000  13
   3   7 -13 994.531 343.582  13
   7   3 -13 1594.55 466.293   4
   7   3 -13 703.805 374.652  12
  -3   7  13 1268.03 533.821   2
   7  -3 -13 1440.77 611.760  18
  -3   7  13 540.243 158.381   4
  -3  -7  13 1367.13 474.082   8
   3  -7 -13-44.2875 371.412  11
   3   7 -13 186.541 219.110  19
   7   3 -13 1365.56 449.070  18
   3  -7 -13-190.604 384.131  18
  -7   3  14 514.479 381.369  17
  -3  -7  14 929.613 388.878   6
  -3   7  14 555.003 356.129  17
  -3  -7  14 1421.18 515.815   8
   7   3 -14 798.204 410.089   3
  -3  -7  14 1371.62 571.159  16
  -7  -3  14 887.560 394.310   6
  -3   7  14 1141.78 438.188  16
  -3  -7  14 838.797 334.321  14
  -7  -3  14 1157.12 331.431  14
   7  -3 -14 1318.01 492.191   3
   3  -7 -14-23.7739 69.3940  14
  -7   3  14 52.4907 73.1537   6
  -7  -3  14 1475.34 479.354  17
   3  -7 -14 466.859 265.664   1
  -3   7  14 958.368 392.069   5
   7   3 -14 224.009 193.766  13
   7  -3 -14 1167.21 438.334  13
   7   3 -14 1307.82 454.786   4
   7   3 -14 1220.12 444.050  12
  -3   7  14 1818.28 660.929   2
   7  -3 -14 684.400 269.654  12
  -3   7  14 744.167 231.560   4
   3   7 -14 141.350 212.333  19
   7   3 -14 1571.94 454.345  18
   7  -3 -14 1153.88 558.270  18
  -7   3  15 352.277 408.933  17
   7  -3 -15 727.077 414.371  18
  -3  -7  15 198.502 129.561   6
  -3   7  15 208.999 193.188  17
  -7   3  15 16.8025 39.7954   6
   7  -3 -15 774.471 386.366   3
   7   3 -15 448.301 323.283   3
  -7  -3  15 366.678 337.337   6
  -3  -7  15 684.739 403.252  16
  -3   7  15 670.990 366.682  16
   7   3 -15-147.740 209.978  13
  -3  -7  15 241.940 49.9222  14
   3  -7 -15 4.74412 38.8212  14
  -7  -3  15 709.571 254.523  14
  -3   7  15 470.641 261.140   5
   3  -7 -15 374.231 251.567   1
   7  -3 -15 523.354 302.873  13
   7   3 -15 194.655 232.823  12
   7  -3 -15 490.417 221.387  12
   7   3 -15 33.0208 209.465   4
  -3   7  15 873.108 491.794   2
  -3   7  15 412.484 188.612   4
   3   7 -15 149.377 212.936  19
  -3  -7  15 923.665 430.902   8
   7   3 -15 817.000 347.314  18
  -7  -3  15 971.868 344.174  17
  -7   3  16 485.818 328.139  17
  -7  -3  16 548.214 289.256  17
  -3   7  16 155.991 286.294  17
  -7   3  16 166.191 155.452   6
   7  -3 -16 370.912 178.141   3
  -7  -3  16 95.9375 145.341   6
   7   3 -16 278.087 278.513   3
  -3   7  16 349.752 285.615  16
  -3  -7  16-82.3911 305.817  14
  -7  -3  16 286.534 189.340  14
  -3   7  16 164.773 173.165   5
  -3  -7  16 447.770 460.601  16
   3  -7 -16 245.181 187.764   1
   7   3 -16 82.6495 84.2974  13
   7  -3 -16 427.534 379.667  13
   7   3 -16 144.545 77.4531  12
   7  -3 -16 71.9266 182.108  12
  -3   7  16 363.087 267.350   2
   7  -3 -16 723.133 587.449  11
   7   3 -16 810.486 459.417  11
  -3   7  16 345.333 158.946   4
   3   7 -16 162.823 180.493  19
  -3  -7  16 695.537 483.600   8
   7  -3 -16 349.373 329.008  18
   7   3 -16 233.227 165.397  18
  -7   3  17 289.435 349.571  17
  -7   3  17-67.9175 179.990   6
  -3   7  17 523.832 354.692  17
  -7  -3  17 594.314 376.723   6
  -7  -3  17 670.557 428.480  16
  -7   3  17 555.697 420.048  16
   7  -3 -17 1078.73 480.299   3
   7   3 -17 428.561 215.676   3
  -3  -7  17 1263.70 627.937  16
  -3   7  17 869.190 451.329  16
  -7   3  17-787.151 957.914   2
  -7  -3  17 1196.86 418.066  17
  -3   7  17 950.515 391.197   5
   7   3 -17 112.475 107.905  13
   3  -7 -17-35.3696 79.3671   1
   7  -3 -17 573.441 304.284  13
   7   3 -17 661.994 351.809  12
   7  -3 -17 927.345 341.842  12
  -3   7  17 1503.69 609.704   2
   7  -3 -17 1032.28 604.224  11
   7   3 -17 2102.54 661.531  11
   3   7 -17 68.5430 240.641  19
  -3  -7  17 1392.36 526.141   8
   7  -3 -17 1292.67 551.960  18
   7   3 -17 596.259 229.501  18
   4   7   0-130.640 328.024  19
  -4  -7   1 82.7837 294.563   6
   4  -7  -1 65.7487 177.509   1
  -4  -7   1 478.284 251.210  14
  -4  -7   1 148.246 47.8684   1
   4  -7  -2 93.7783 131.500  18
  -4  -7   2 152.882 137.602   6
  -4  -7   2 31.2676 15.4585   1
   4  -7  -2-184.869 190.241   1
  -4  -7   2-7.98149 89.2954  14
   4   7  -2 175.523 160.753  19
   4   7  -2-144.271 295.611   5
   4   7  -2-28.0451 369.847   4
  -4   7   3-38.4970 132.801  17
  -4  -7   3 60.2073 122.938   6
  -4  -7   3 66.9047 36.5906   1
  -4  -7   3 130.182 149.962  14
   4  -7  -3 28.9910 27.7543   1
   4  -7  -3 196.668 171.573  18
   4   7  -3 124.705 126.734   5
   4   7  -3 18.2371 214.226   4
   4   7  -3 105.472 160.022  19
  -4   7   4 1.99783 114.611  17
  -4  -7   4 408.099 254.190   6
  -4  -7   4 158.996 111.025   8
  -4  -7   4 436.599 268.203  14
   4  -7  -4 243.088 237.354   1
  -4  -7   4 414.926 235.770   1
   4   7  -4 449.553 314.664   5
   4   7  -4 349.954 241.845  12
   4   7  -4 422.880 261.985  19
   4  -7  -4 289.483 113.331   8
   4   7  -4 600.497 344.385   4
   4  -7  -4 574.382 331.848  18
  -4  -7   5-21.6909 251.557   8
   4   7  -5 8.57832 106.371   3
  -4  -7   5 118.147 159.280   6
  -4  -7   5 108.460 201.357  14
   4  -7  -5 203.605 133.895  13
   4   7  -5 151.980 182.173   5
  -4  -7   5-5.52388 40.4557   1
   4  -7  -5 242.425 265.615   1
   4   7  -5-66.0443 132.387  12
  -4   7   5 593.088 422.689  17
   4   7  -5 26.8273 24.6341  19
   4   7  -5 73.7167 210.136   4
   4  -7  -5 181.664 224.068   8
   4  -7  -5 446.584 358.950  18
  -4  -7   6 254.923 154.042   8
  -4   7   6 132.235 334.131  17
   4   7  -6 76.9151 70.4171   3
  -4  -7   6 476.293 270.692   6
  -4   7   6 9.44444 230.412  19
  -4  -7   6 447.944 223.393   1
  -4  -7   6 363.694 190.365  14
   4  -7  -6 707.093 336.435  13
   4   7  -6 354.158 259.599   5
   4   7  -6 241.324 158.000  12
   4  -7  -6 239.199 273.781   1
   4  -7  -6 630.537 470.803  18
   4   7  -6 524.323 325.756   4
   4   7  -6 229.501 196.403  19
   4  -7  -6 615.506 276.750   8
  -4   7   7 571.433 398.562  17
   4   7  -7 1053.42 464.509   4
   4   7  -7 272.202 191.145   3
  -4  -7   7 943.404 396.676   6
   4  -7  -7 921.659 288.808   8
  -4  -7   7 1078.16 343.086   1
  -4  -7   7 891.105 333.099  14
  -4   7   7-204.976 428.900   2
   4   7  -7 829.396 398.942   5
   4  -7  -7 1054.96 356.011  13
  -4  -7   7 420.980 314.797   8
   4   7  -7 433.357 262.686  12
   4  -7  -7 371.645 226.595   1
  -4   7   7 267.751 215.613  19
   4   7  -7 498.963 274.388  19
   4  -7  -7 693.047 388.871  18
   4  -7  -8 309.685 103.099   3
   7   4  -8 565.509 302.815   3
  -4  -7   8 2020.87 563.967   6
   4  -7  -8 1279.14 334.501   8
   4   7  -8 643.387 308.094   3
  -4  -7   8 1987.40 467.482   1
  -4  -7   8 1394.75 404.478  14
  -7  -4   8 169.443 222.845   6
   4   7  -8 1374.33 473.971   5
  -4   7   8 587.615 226.793   2
   4  -7  -8 2004.84 494.257  13
   4   7  -8 469.763 286.625  12
  -4   7   8 797.912 498.269  17
   7   4  -8 935.391 355.993  12
   4   7  -8 1192.63 491.838   4
  -4   7   8 866.691 330.852  19
   4  -7  -8 937.661 393.123   1
   4   7  -8 881.058 369.044  19
   7  -4  -8 162.744 352.299  18
   4  -7  -8 1485.77 547.006  18
  -4  -7   8 956.474 406.227   8
   7   4  -9-47.2306 155.364   3
  -4   7   9 6.61652 112.734  17
   4  -7  -9-23.5898 127.343   3
  -4  -7   9-43.7765 79.2342   6
   4   7  -9-94.9047 171.245   3
  -4  -7   9 1.95651 86.5734   1
  -7  -4   9 85.5075 173.683   6
  -7   4   9-26.5869 63.7206   6
   4   7  -9 50.5429 70.7477  19
   7  -4  -9-14.9377 139.883  18
  -4  -7   9-40.9124 74.5741  14
   4   7  -9-10.5595 39.6967   5
   7  -4  -9-137.167 348.852  13
  -4   7   9-66.5813 195.956   2
   4  -7  -9 3.45763 56.9688   1
   4  -7  -9-32.1066 37.4486  13
   4   7  -9 117.261 164.949  12
   7   4  -9-116.797 168.339  12
   4  -7  -9 347.472 478.289  11
   4   7  -9 21.9439 142.644   4
  -4   7   9-35.2828 44.4792  19
   4  -7  -9-32.3382 48.5683  18
  -4  -7   9 19.4693 141.367   8
   4  -7  -9-27.5144 126.178   8
  -7   4  10 470.671 366.669  17
  -4  -7  10 1992.26 580.979   6
  -4   7  10 581.655 436.572  17
   4  -7 -10 1642.31 410.853   3
   7   4 -10 1170.33 471.040   3
  -4  -7  10 458.908 293.453  16
  -4   7  10 495.660 308.279  16
  -4  -7  10 1544.26 413.570   1
   4   7 -10 508.667 256.364   3
  -7  -4  10 247.569 244.966   6
  -7   4  10 108.875 118.075   6
  -4  -7  10 1670.60 458.049  14
   4   7 -10 816.423 370.050   5
   4  -7 -10 1010.26 465.452  18
  -7  -4  10 202.822 148.050  14
   4  -7 -10 1925.99 497.521  13
   7  -4 -10 1284.23 428.994  13
  -4   7  10 987.451 446.397   2
   7  -4 -10 903.928 393.567   3
   4   7 -10 641.578 299.379  12
   7   4 -10 1078.96 541.191  12
   4   7 -10 759.068 368.456   4
   4  -7 -10 1843.97 713.042  11
   4  -7 -10 168.113 209.050   8
   4   7 -10 424.729 285.422  19
   7  -4 -10 1147.73 550.211  18
   7   4 -10 844.819 324.295   4
   4  -7 -10 794.792 351.682   1
  -4   7  10 924.487 338.825  19
  -4  -7  10 1393.02 491.674   8
  -7   4  11-58.5736 66.7929  17
   7  -4 -11 522.231 324.163   3
  -4   7  11 271.046 320.424  17
   7   4 -11 447.025 256.566   3
  -4  -7  11 837.638 383.638   6
  -4  -7  11 320.068 271.885  16
   4  -7 -11 773.410 278.770   3
  -4   7  11 412.483 277.587  16
  -7   4  11 2.15994 56.4362   6
   4   7 -11 90.5245 43.3696   3
  -7  -4  11 294.345 277.645   6
   7  -4 -11 423.916 319.627  18
  -4   7  11-191.140 373.830   5
   4   7 -11-258.022 402.548   5
  -4  -7  11 786.547 322.509  14
  -7  -4  11 181.455 193.007  14
   4  -7 -11 1233.78 444.213  13
   4   7 -11-75.7476 119.008  13
   7  -4 -11 451.430 206.045  13
  -4   7  11 642.539 363.066   2
   4   7 -11 30.3320 87.6066  12
   7   4 -11 216.819 205.103  12
  -4  -7  11 198.067 115.661   1
   4   7 -11-106.330 378.537   4
   4  -7 -11 484.386 369.003  11
   4   7 -11 139.586 70.0433  19
  -4   7  11 183.117 89.4420  19
   7   4 -11 921.649 410.250   4
  -4  -7  11 578.339 309.415   8
   4  -7 -11 328.860 222.048  18
   4  -7 -11 366.385 248.376   1
   4  -7 -12 200.548 159.960   1
  -7   4  12 582.201 513.851  17
   7  -4 -12 370.874 246.749   3
  -4   7  12-148.918 276.065  17
   7   4 -12 139.289 71.9881   3
   4   7 -12 233.687 156.878  19
  -4  -7  12 495.560 298.806   6
  -4  -7  12 144.381 174.500  16
  -4   7  12 313.530 240.137  16
  -7   4  12 24.2440 53.0519   6
   4  -7 -12 464.078 214.449   3
  -7  -4  12 234.300 248.906   6
   4   7 -12 143.286 181.506   3
  -4  -7  12 438.659 248.484  14
  -4   7  12-164.151 336.168   5
  -4  -7  12-21.8589 148.088   1
   7  -4 -12 381.170 367.446  18
  -7  -4  12 212.510 173.573  14
   7  -4 -12 430.288 244.335  13
   4   7 -12-264.731 207.568  13
  -4   7  12 332.345 376.151   2
   4  -7 -12 1100.01 430.940  13
   7   4 -12 342.516 178.237   5
   4   7 -12 141.384 68.1364  12
   7   4 -12 67.8889 72.5098  12
   4  -7 -12 221.112 214.931  11
  -7  -4  12 283.789 158.420  17
   7   4 -12 444.918 305.476   4
  -4   7  12 88.8816 49.9350  19
   7   4 -12 398.802 262.380  18
  -4  -7  12 328.457 263.894   8
   4  -7 -12 183.248 172.797  18
  -7   4  13 682.151 530.793  17
   4  -7 -13 850.258 364.267   1
  -4  -7  13 2185.06 643.508   6
  -4   7  13 581.408 382.129  17
   7   4 -13 1413.32 552.798   3
  -4   7  13 1730.86 585.790  16
  -4  -7  13 1934.98 689.889  16
  -7   4  13 17.9734 101.393   6
  -7  -4  13 1038.71 531.377   6
  -4  -7  13 2197.39 568.030  14
   4   7 -13 479.873 334.566   3
  -7  -4  13 1290.00 401.687  14
   7   4 -13 2140.38 427.024   5
  -4   7  13 201.199 175.779   5
   7  -4 -13 1922.44 565.304  13
   4   7 -13 80.2570 104.840  13
  -4   7  13 1683.29 643.798   2
   7   4 -13 2615.47 557.372  18
   4   7 -13 368.420 301.979  12
   7   4 -13 2542.79 627.017   4
   7   4 -13 1545.13 526.568  12
   4  -7 -13 1466.18 621.990  11
   4   7 -13 642.760 283.679  19
   7  -4 -13 2038.13 648.141   3
   7  -4 -13 2181.35 714.733  18
  -4  -7  13 1781.97 559.396   8
   4  -7 -13 2568.23 503.086   3
   4  -7 -13 947.460 431.063  18
  -7  -4  13 2887.05 624.415  17
  -7  -4  14 398.033 234.623  17
  -7   4  14 446.145 409.250  17
   4  -7 -14 178.858 181.990   1
  -4   7  14-83.5246 200.154  17
   7  -4 -14 222.821 157.659   3
  -4  -7  14 391.586 220.219   6
  -7   4  14 23.8950 104.002   6
   7   4 -14 188.789 186.728   3
  -4  -7  14 449.321 340.461  16
  -4   7  14 217.549 239.724  16
  -7  -4  14 389.889 270.482   6
   4  -7 -14 552.787 268.029   3
   4   7 -14 336.412 353.751   3
  -4  -7  14 319.247 231.837  14
  -4   7  14-49.2562 221.146   5
  -7  -4  14 391.532 207.738  14
   7   4 -14-129.703 214.051  13
   7  -4 -14 356.674 185.922  13
   4   7 -14 8.46018 22.4455  13
   4   7 -14 331.107 320.002  12
  -4   7  14 523.152 462.744   2
   7   4 -14 74.9456 156.202  12
   7   4 -14 343.180 270.949   4
   4   7 -14 111.128 149.176  19
  -4  -7  14 434.003 293.130   8
   4  -7 -14-51.3043 257.439  11
   7   4 -14 422.675 274.863  18
   7  -4 -14 329.347 334.233  18
   4  -7 -14-74.5065 312.293  18
  -4   7  15 1909.75 873.297  17
  -7   4  15 734.487 640.649  17
  -7  -4  15 1192.13 392.048  17
  -4  -7  15 523.127 339.723   6
  -7   4  15 40.6362 227.751   6
   7  -4 -15 520.986 315.019   3
   7   4 -15 407.594 311.185   3
  -7  -4  15 228.465 297.837   6
  -4   7  15 411.391 337.496  16
   4  -7 -15 479.991 226.729   3
   4   7 -15 427.138 529.912   3
  -4  -7  15 439.176 257.592  14
  -7  -4  15 569.794 279.416  14
  -4   7  15 259.584 218.558   5
   7   4 -15-77.0134 175.485  13
   7  -4 -15 334.318 201.629  13
   4   7 -15 517.288 304.157  13
   4  -7 -15 155.981 251.152   1
   4   7 -15 1066.96 578.157  12
   4   7 -15 187.628 227.830  19
  -4   7  15 802.498 654.332   2
   7   4 -15 327.334 248.960  12
   7   4 -15 193.907 173.180   4
   7   4 -15 3327.62 933.731  11
   7  -4 -15 2804.95 1142.62  11
  -4  -7  15 662.961 396.255  16
   4  -7 -15-219.306 451.961  11
  -4  -7  15 643.266 362.655   8
   7  -4 -15 807.257 433.020  18
   7   4 -15 597.727 275.587  18
  -7   4  16-50.3182 277.443  17
  -7  -4  16 566.590 234.745  17
   4   7 -16 97.3001 205.077  19
  -4   7  16 42.5355 127.691  17
  -7   4  16-25.2342 151.756   6
   7  -4 -16 501.138 325.456   3
   4  -7 -16 10.1365 113.036   1
  -7  -4  16 300.448 240.983   6
  -4   7  16 174.492 163.389  16
  -4  -7  16 474.972 341.435   8
   4  -7 -16 278.555 170.872   3
  -4  -7  16 257.500 187.794  14
   4   7 -16 446.154 409.754   3
  -7  -4  16 273.361 180.945  14
  -4   7  16 103.444 50.4491   5
  -4  -7  16 267.604 128.147   6
   7   4 -16 19.3080 31.8826  13
  -4  -7  16 433.123 472.482  16
   7  -4 -16 405.737 289.290  13
   4   7 -16 399.082 246.038  13
   4   7 -16 936.009 551.432  12
  -4   7  16 260.879 272.214   2
   7   4 -16 64.4336 162.692  12
   7  -4 -16 76.6468 94.9177  12
   7  -4 -16 1334.14 673.954  11
   7   4 -16 1065.58 502.153  11
   7   4 -16 265.729 238.122   3
   7  -4 -16 394.053 285.886  18
  -5  -7   3-1.18605 104.430   6
  -5  -7   3 4.74546 101.295  14
   5  -7  -3-528.326 482.257  18
   5   7  -3-81.8569 352.809  19
   5   7  -4-43.1576 182.068  19
   5  -7  -4-40.8468 147.373  18
  -5  -7   4-67.1833 178.588   1
  -5  -7   4 61.0386 178.761   6
  -5   7   4 72.1652 57.4697  17
  -5  -7   4 57.7792 93.3477  14
  -5  -7   5 26.8675 74.5850   6
   5   7  -5-21.5210 123.711  19
   5   7  -5-111.608 263.993   4
   5  -7  -5-97.4354 270.320   1
  -5  -7   5-12.2373 81.6421  14
   5   7  -5 10.9858 165.287   5
   5   7  -5-83.2459 203.950  12
  -5  -7   5 40.2855 74.9843   1
   5  -7  -5 165.729 239.965  18
  -5   7   5-59.6475 159.169  17
  -5   7   6-13.6732 160.630  17
   5   7  -6 29.2695 55.9281   3
  -5  -7   6-55.2749 240.054   8
  -5  -7   6 264.690 265.576   6
   5  -7  -6 100.240 117.692   8
  -5  -7   6 209.720 162.745  14
   5  -7  -6 4.76137 173.940   1
   5  -7  -6 97.7069 216.793  13
   5   7  -6 85.2511 139.015   5
   5   7  -6 116.185 79.1012  12
  -5  -7   6 164.718 141.395   1
   5   7  -6 197.283 238.993  19
   5  -7  -6 285.897 265.245  18
   5   7  -6 374.924 279.041   4
  -5   7   7 159.150 360.684  17
  -5  -7   7-73.0979 256.360   8
   5   7  -7-24.5387 141.950   3
  -5  -7   7 95.1379 140.714   6
   5  -7  -7-8.71625 90.7432  18
  -7  -5   7 86.7152 229.861   6
  -5  -7   7 50.5824 95.8687  14
   5  -7  -7 97.2317 131.832  13
   5  -7  -7 0.21028 65.0716   1
   5   7  -7 77.4758 171.785   5
   5   7  -7 22.2255 53.1372  19
   5   7  -7-118.941 210.531  12
   5  -7  -7 85.7679 108.396   8
  -5   7   7-129.339 186.073  19
   5   7  -7 38.4285 107.650   4
   7  -5  -7-423.997 463.117  18
  -5  -7   7 83.5382 170.140   1
   7   5  -8-95.0188 265.865   3
  -5  -7   8-11.8105 189.056   8
  -5   7   8 110.452 243.445  17
   5   7  -8 104.373 111.828   3
   5  -7  -8 287.760 182.994   8
  -5  -7   8 281.132 259.867   6
  -5  -7   8 256.982 206.209   1
  -7  -5   8-95.8309 174.167   6
  -5  -7   8 217.912 206.503  14
   5  -7  -8 334.175 183.602  13
   5   7  -8 184.999 177.586   5
   5  -7  -8 26.5706 63.7502   1
   5   7  -8-213.064 207.507  12
   7   5  -8 54.0909 299.706  12
  -5   7   8 194.001 209.490  19
   5   7  -8 138.587 132.122  19
   7  -5  -8 25.0003 159.883  18
   5   7  -8 296.512 266.222   4
   5  -7  -8 353.549 312.457  18
  -5  -7   9 125.651 93.1254   8
   7   5  -9 237.358 249.029   3
   5   7  -9 165.029 161.749   3
   5   7  -9 557.686 330.636   4
   7   5  -9-134.052 430.489   4
  -5  -7   9 574.314 352.609   6
  -7  -5   9 115.415 216.583   6
  -7   5   9-7.50089 79.9864   6
   5  -7  -9 538.956 215.735   8
  -5  -7   9 364.515 236.697  14
   7  -5  -9 239.879 210.449  13
   5   7  -9 546.507 334.768   5
   5  -7  -9 675.839 298.566  13
   5  -7  -9 60.7784 91.8316   1
   5   7  -9 238.663 266.137  12
   7   5  -9 294.510 139.082  12
  -7   5   9-26.6619 93.2132  17
  -5   7   9 134.774 150.115  19
  -5  -7   9 568.711 257.597   1
   5   7  -9 210.379 116.220  19
  -5   7   9 454.588 397.016  17
   7  -5  -9 265.793 320.994  18
   5  -7  -9 326.663 286.702  18
  -7   5  10-217.376 325.529  17
   5  -7 -10 72.5580 163.631   3
  -5   7  10-95.3795 201.550  17
   7   5 -10-26.7983 125.058   3
   5   7 -10-61.5402 167.143   3
  -5  -7  10 250.252 193.915   6
  -7  -5  10 267.766 275.497   6
  -7   5  10 57.6089 130.062   6
  -5  -7  10 164.281 150.887   1
  -5  -7  10 291.754 217.841  14
  -5   7  10-274.355 481.882   2
  -5  -7  10 101.801 115.022   8
   5   7 -10 96.9207 110.040  19
  -7  -5  10 46.5504 83.1932  14
   5   7 -10 268.553 271.138   5
   7  -5 -10 99.2385 169.667  13
   5  -7 -10 201.816 157.635  13
   5   7 -10 19.9447 85.6594  12
   5  -7 -10 32.0377 17.1571   1
   7   5 -10 147.729 168.706  12
   5   7 -10 293.637 298.873   4
  -5   7  10 157.228 149.327  19
   7   5 -10 46.3071 126.356   4
   7  -5 -10 370.702 331.650  18
   5  -7 -10 256.942 278.435  18
   5  -7 -10 97.6023 38.4207   8
  -7   5  11-42.0656 124.729  17
  -5  -7  11 24.1560 96.2609   1
  -5   7  11-32.7566 91.0103  17
   5  -7 -11-42.4947 184.991   3
   7   5 -11-52.3475 117.226   3
   5   7 -11 83.7471 123.391   3
  -5  -7  11 32.7416 175.839   6
  -7   5  11 37.6898 105.111   6
  -7  -5  11 168.855 229.399   6
  -5  -7  11 0.14042 85.9363  14
   5   7 -11 32.2648 208.618   5
  -5   7  11-73.1786 180.011   2
  -7  -5  11-16.2813 116.071  14
   7  -5 -11-11.6925 115.922  13
   5  -7 -11-72.5689 64.0438  13
   7   5 -11 55.6502 80.9721   5
   5   7 -11-37.6303 182.754  12
   7   5 -11-75.2330 123.372  12
   5  -7 -11 15.2277 78.3121   1
  -7  -5  11-77.3239 174.730   1
   5  -7 -11 875.805 703.918  11
   5   7 -11 80.3879 294.104   4
   5   7 -11-33.2452 91.9514  11
  -5   7  11 42.1322 147.892  19
   5   7 -11-114.971 141.953  19
   7   5 -11 31.2942 160.528   4
   7  -5 -11 194.452 276.933  18
   5  -7 -11 13.2929 116.293  18
  -5  -7  11 112.257 142.057   8
  -7  -5  12 1207.18 364.901  17
  -7   5  12 90.2281 197.239  17
   7   5 -12 655.553 401.866   3
  -5   7  12 260.084 305.485  17
  -5  -7  12 1175.63 491.456   6
  -7   5  12 14.7207 26.5798   6
   5   7 -12 547.037 303.771   3
  -7  -5  12 438.451 176.558   1
  -7  -5  12 707.578 401.835   6
  -5  -7  12 1354.10 449.837  14
   7   5 -12 1318.12 390.976   5
   5   7 -12 173.531 141.687   5
  -7  -5  12 622.203 298.260  14
  -5   7  12 353.789 277.265   2
   7  -5 -12 1250.02 430.444  13
   5  -7 -12 1446.86 489.035  13
   5   7 -12 209.808 221.539  12
   7   5 -12 436.489 365.038  12
   5   7 -12 387.287 116.983   4
   5  -7 -12 1176.62 523.849  11
  -5  -7  12 463.597 211.705   1
   5  -7 -12 426.182 254.283   1
  -7   5  12 158.142 129.820  19
   7   5 -12 1316.19 530.139   4
  -5   7  12 442.651 216.985  19
   5   7 -12 483.303 250.160  19
   5  -7 -12 1443.19 433.108   3
   7  -5 -12 1054.20 487.496   3
   7  -5 -12 1140.10 522.644  18
   5  -7 -12 907.289 448.161  18
   7   5 -12 1057.82 327.088  18
  -5  -7  12 561.912 298.320   8
  -7  -5  13 476.491 300.934  17
  -7   5  13 360.203 450.318  17
   7  -5 -13 19.1015 90.7706   3
  -5   7  13 526.942 499.494  17
   7   5 -13 103.724 145.119  18
   7   5 -13-101.422 151.945   3
   5  -7 -13 44.8427 42.2730   3
  -7   5  13-21.5104 9.02900   6
  -5  -7  13 153.853 183.895  16
  -5  -7  13 96.8489 146.529   6
  -5   7  13-16.4770 161.648  16
  -7  -5  13 34.1277 127.297   6
   5   7 -13-2.20064 31.1426   3
  -5  -7  13 45.2337 66.5357  14
   5  -7 -13-27.1559 14.7410  18
  -7  -5  13-37.0875 86.3697  14
  -5  -7  13-36.7276 102.543   1
   7   5 -13 183.297 204.250   5
  -5   7  13 128.237 200.896   2
   5   7 -13-360.944 226.513  13
   7  -5 -13 9.15263 96.0794  13
   5  -7 -13 156.524 195.285  13
   5   7 -13-57.2769 170.632  12
   7   5 -13 59.9673 52.5923  12
  -5   7  13 14.4516 114.365  19
   5  -7 -13-105.199 225.951  11
   7   5 -13 27.6206 126.840   4
   5  -7 -13 111.233 139.016   1
   7  -5 -13 18.6868 176.437  18
   5   7 -13 1.37819 49.4038  19
  -5  -7  13-94.5412 170.773   8
  -7  -5  14 1926.84 437.360  17
  -7   5  14-39.6373 66.0362   6
  -7  -5  14-60.2861 340.386   8
  -7   5  14 621.225 627.509  17
  -5   7  14-425.169 937.181  17
   7  -5 -14 1167.85 451.213   3
  -5  -7  14 1311.15 516.804   6
   7   5 -14 432.061 261.339   3
  -5  -7  14 338.568 241.094  16
  -5   7  14 467.901 703.607  16
  -7  -5  14 844.700 498.909   6
   5   7 -14 327.277 338.458   3
  -5  -7  14 1183.94 430.710  14
   7  -5 -14 834.941 471.802  18
  -7  -5  14 921.584 330.096  14
   5  -7 -14 2875.96 854.071  13
   5   7 -14-59.2107 96.8715  13
  -5   7  14-62.2605 340.898   2
   5   7 -14 210.720 126.218  19
   7  -5 -14 1368.24 469.296  13
   5   7 -14 59.8649 132.904  12
   7   5 -14 395.870 358.255  12
   7   5 -14 1059.04 449.756   4
   5  -7 -14 1176.78 567.871  11
   5  -7 -14 169.846 344.930   1
   5  -7 -14 1889.32 761.591   3
  -5  -7  14 613.400 330.006   8
   5  -7 -14 600.994 353.521  18
  -7   5  15 741.120 514.279  17
  -5   7  15 1761.33 1010.33  17
  -7   5  15-137.899 191.694   6
   7  -5 -15 15.3789 168.455   3
  -5  -7  15-82.6235 132.923   6
  -5   7  15 1243.20 838.892  16
   7   5 -15 72.4123 146.863   3
  -5  -7  15-137.979 295.005  16
  -7  -5  15 167.960 189.426   6
   5   7 -15-78.5962 127.017   3
  -5  -7  15 74.6149 94.1207  14
  -7  -5  15 94.7597 166.982  14
   7   5 -15-251.107 218.127  13
   5   7 -15-158.734 169.744  13
  -5   7  15 507.313 723.510   2
   7  -5 -15-186.480 234.353  13
   5  -7 -15 323.434 374.899  13
   5   7 -15-136.556 262.600  12
   7   5 -15 7.32333 95.8236  12
   7   5 -15-161.643 349.129   4
   7  -5 -15 835.536 705.697  11
   7   5 -15 1052.06 592.594  11
   5  -7 -15-157.084 417.385  11
   5   7 -15 20.7705 42.0172  19
   5  -7 -15-64.8248 75.0994   1
   7  -5 -15 89.3335 100.218  18
  -5  -7  15 70.7046 55.7224   8
   5  -7 -15 1123.31 577.536   3
   5  -7 -15-67.4448 220.573  18
  -7   5  16 519.661 476.587  17
   7  -5 -16 30.9400 111.892   3
  -7  -5  16 236.566 251.965   6
   7   5 -16 201.350 237.649   3
   5  -7 -16 188.808 187.510   3
  -5  -7  16-41.7527 151.000  14
  -7  -5  16 34.6140 93.3729  14
   7   5 -16-8.38220 77.7129  13
   7  -5 -16 200.447 223.080  13
   5  -7 -16 1068.27 519.525  13
   5   7 -16-504.492 325.086  12
   7   5 -16-100.673 157.609  12
   5   7 -16 17.8556 149.483  19
   6  -7  -4-519.325 527.632  18
   6  -7  -5-52.6493 200.989  18
  -6  -7   5 2.56716 46.4094   6
  -6   7   6 311.515 339.713  17
  -6  -7   6 65.8093 77.6764   6
  -6  -7   6 56.9492 122.518  14
   6   7  -6-349.293 540.806   4
   6  -7  -6 174.797 315.701  18
  -6   7   7-155.010 259.394  17
   6   7  -7 29.5234 127.405   3
  -6  -7   7 296.132 308.478   6
  -7  -6   7 219.793 329.439   6
   6   7  -7 279.697 201.727  19
  -6  -7   7 217.605 188.085  14
   6  -7  -7 608.554 449.321  18
   6   7  -7 357.967 182.352   5
   6   7  -7 381.248 323.239  12
   6   7  -7 690.968 391.873   4
   7  -6  -7 86.3171 241.183  18
  -6  -7   7 156.668 155.933   1
  -7   6   8 113.607 306.796  17
   7   6  -8-282.326 269.333   3
  -6   7   8 421.961 424.977  17
   6   7  -8 0.62312 113.132   3
  -6  -7   8-96.4545 86.5928   6
  -6   7   8 8.75276 25.8772   6
  -7  -6   8 104.733 220.086   6
  -6  -7   8 34.2902 105.105  14
   6  -7  -8-189.379 284.032  13
   6   7  -8-77.8412 140.927   5
   6   7  -8 120.883 158.929  12
  -6  -7   8 5.05162 82.9250   1
   6  -7  -8-105.209 179.495   8
   6   7  -8 161.558 282.327   4
   6   7  -8-200.786 211.799  19
   7  -6  -8-13.0020 114.768  18
   6  -7  -8 97.3239 185.442  18
  -7   6   9 209.958 290.584  17
   7   6  -9-94.9811 273.518   3
  -6  -7   9-451.219 341.100   8
   6   7  -9-47.4252 143.476   3
  -6   7   9-3.77094 20.8353   6
   6  -7  -9 109.992 151.814   8
  -6  -7   9 24.4875 119.274   6
  -7  -6   9-74.2195 84.9433   6
  -7   6   9 59.0825 65.6381   6
  -6   7   9 526.041 521.638  17
   6   7  -9-30.7903 152.121  19
   6  -7  -9-93.3573 253.165   1
  -6  -7   9 89.8192 187.888  14
  -7  -6   9-3.29679 143.760  14
   6  -7  -9-3.32217 124.958  13
   6   7  -9 96.1526 218.746   5
   6   7  -9-21.6230 179.693  12
   7   6  -9-206.002 232.758  12
  -6  -7   9-0.93683 103.837   1
  -6   7   9-162.822 219.519  19
   6   7  -9-62.3067 61.1059   4
   7   6  -9-9.42852 108.530   4
   7  -6  -9-13.4639 73.3418  18
   6  -7  -9-65.2273 41.7079  18
  -7   6  10 100.485 276.107  17
  -6  -7  10-145.580 190.986   8
  -6   7  10 177.330 321.273  17
  -7  -6  10-21.7266 145.822   1
   7   6 -10 71.1339 88.1066   3
   6   7 -10 34.9835 79.9091   3
  -6   7  10-4.15958 26.6493   6
  -6  -7  10 48.2230 143.405   1
  -6  -7  10 234.299 250.537   6
  -7   6  10 19.3631 66.8039   6
  -7  -6  10 146.480 100.160   6
  -6  -7  10-2.55996 145.751  14
   7  -6 -10 128.614 263.888  18
   6  -7 -10-70.3899 198.231   1
  -7  -6  10 40.3724 171.715  14
   6   7 -10 0.30669 102.013   4
   7   6 -10 176.975 259.774   4
   7  -6 -10-267.712 323.982  13
   6  -7 -10-62.0550 148.910  13
   6   7 -10 61.8331 141.115   5
   7   6 -10-16.3899 148.528   5
   6   7 -10 11.9964 125.480  12
   7   6 -10-200.491 276.372  12
  -6   7  10 409.768 292.252  19
   6   7 -10-29.4409 128.124  19
   6  -7 -10 210.809 286.120  18
   6  -7 -10 56.6848 105.656   8
  -6  -7  11-51.6876 249.021   8
  -7   6  11-8.71654 80.5849  17
  -6   7  11-114.424 283.487  17
   7   6 -11 36.1577 17.4862   3
   6   7 -11 10.8753 72.4375   3
  -6   7  11 163.360 188.306  19
  -7   6  11 81.3279 107.974   6
  -6  -7  11 124.227 32.3048   6
  -7  -6  11-66.2771 145.717   6
  -7  -6  11 130.649 110.770   1
  -6  -7  11 106.426 178.887  14
  -7   6  11-151.487 190.767  19
  -7  -6  11 51.4258 95.4357  14
   6  -7 -11-117.911 155.820   1
   6   7 -11 195.237 197.771   5
   7  -6 -11 125.729 39.5574  13
   6  -7 -11 299.961 194.974  13
  -6  -7  11 169.182 168.830   1
   7   6 -11 371.134 267.561   5
   6   7 -11 219.312 263.369   4
   6   7 -11 17.4461 19.6580  12
   7   6 -11-15.6255 110.668  12
   7  -6 -11 211.593 260.978  18
   6   7 -11 81.0701 133.964  19
   7   6 -11 477.176 394.965   4
   6  -7 -11 419.293 348.260  18
  -7  -6  12 358.870 225.736  17
  -6  -7  12-53.6501 227.822   8
  -7   6  12 567.971 535.154  17
   6  -7 -12 12.8161 174.980   3
  -7   6  12 186.300 199.243  19
  -6   7  12-228.038 431.087  17
   7   6 -12-2.64122 155.564   3
   6   7 -12 113.378 161.078   3
  -6  -7  12 269.659 212.395   1
  -7   6  12 50.4280 62.9096   6
  -6  -7  12 64.0429 186.817   6
  -7  -6  12 81.1867 130.416   1
  -7  -6  12 338.841 305.572   6
   6   7 -12-174.943 184.987  19
  -6  -7  12 126.869 169.344  14
  -7  -6  12 92.7449 159.467  14
   6   7 -12 144.585 186.654   5
   7  -6 -12 139.879 343.511  18
   7  -6 -12-31.0270 107.510  13
   7   6 -12 71.3112 127.966   5
   6  -7 -12-49.4757 132.150   1
   6  -7 -12-286.548 279.475  13
   6   7 -12 147.189 214.045  12
   7   6 -12-40.5973 146.449  12
   6   7 -12 114.247 250.370   4
   7   6 -12 168.459 285.210   4
  -6   7  12-4.27644 65.7246  19
   6  -7 -12 108.995 224.207  18
  -6  -7  13 251.422 176.827   8
   7   6 -13 21.4719 185.498  19
  -7   6  13-35.3993 164.696   6
   7   6 -13 212.621 272.595   3
   7  -6 -13 714.923 362.663   3
   6   7 -13 271.970 207.337   3
  -6  -7  13 996.584 501.516   6
  -7  -6  13 638.822 440.405   6
  -6  -7  13 822.497 353.477  14
   6   7 -13 322.217 161.074   5
  -7  -6  13 818.311 348.982  14
   7   6 -13 852.226 368.607   5
   6  -7 -13 3303.71 818.018  13
   7  -6 -13 1028.91 430.838  13
   6  -7 -13-71.0834 172.578   1
   6   7 -13 272.363 83.2789  12
   7   6 -13 210.460 48.9177  12
   6  -7 -13 1284.59 627.374   3
   6   7 -13 467.831 326.211   4
   6  -7 -13 1274.94 747.291  11
   7   6 -13 1180.87 517.025   4
   6   7 -13 292.980 236.265  19
   7  -6 -13 727.912 496.559  18
   6  -7 -13 409.077 309.767  18
  -7   6  13 2159.79 1362.92  17
  -6   7  13 3792.01 1677.64  17
  -6  -7  14-133.332 302.635   8
  -7   6  14 1196.31 745.661  17
   7  -6 -14-101.867 205.103   3
  -7   6  14-214.369 215.629   6
   6  -7 -14 432.081 345.992   3
   7   6 -14-48.7778 117.021   3
  -6  -7  14-121.720 119.914   6
   6   7 -14-109.086 238.261   3
  -7  -6  14-0.18173 110.168   6
  -6  -7  14 74.9567 199.137  14
  -7  -6  14 29.9125 156.984  14
  -6   7  14-888.968 830.170   2
   7  -6 -14-105.060 138.383  13
   6  -7 -14 798.815 553.189  13
   6  -7 -14 107.099 185.297   1
   6   7 -14-96.2224 218.514  12
   7   6 -14-19.5656 167.443  12
   6   7 -14-458.926 463.384   4
   6  -7 -14 175.540 349.991  11
   7   6 -14 142.949 268.615   4
   6   7 -14-240.423 210.252  19
   7  -6 -14-91.6644 147.084  18
   6  -7 -14 11.5636 155.101  18
  -7   6  15 43.7269 171.134  17
  -6   7  15 795.012 598.430  17
   7  -6 -15 241.868 186.183   3
   6  -7 -15 300.113 176.782   3
  -6  -7  15 422.289 321.934   6
   7   6 -15 38.8223 24.4981   3
  -7  -6  15 259.466 218.336   6
   6   7 -15 117.041 219.757   3
  -6  -7  15 400.872 202.962  14
  -7  -6  15 427.071 292.368  14
   7   6 -15-484.277 377.366  13
   6   7 -15-153.197 218.817  13
   7  -6 -15 635.547 379.031  13
   6  -7 -15 727.055 408.290  13
   6  -7 -15-49.2889 142.995   1
   6   7 -15 56.3237 94.3285  12
   7   6 -15 113.032 187.884  12
   6   7 -15-311.777 238.386  19
   7   6 -15-57.5559 179.023  19
   7  -6 -15 229.126 237.219  18
   6  -7 -15 46.2381 74.8195  18
   7  -7  -6 97.5594 257.116  18
  -7   7   7 316.532 509.221  17
  -7  -7   7 189.150 280.578   6
   7  -7  -7-8.40374 149.794  18
   7   7  -7-683.071 675.558   4
   7   7  -8-125.995 364.324   3
   7   7  -8 531.878 317.290   4
  -7  -7   8 227.305 234.555   6
  -7  -7   8 264.752 192.988  14
  -7   7   8 58.0188 20.1447  17
   7   7  -8 155.774 292.743   5
   7   7  -8 28.3484 65.3577  12
   7  -7  -8 671.328 499.378  18
  -7   7   9 268.281 315.150  17
   7   7  -9-122.925 227.051   3
  -7   7   9 1.01773 38.8433   6
  -7  -7   9 66.3929 213.413   6
  -7  -7   9-12.4409 99.3066  14
   7   7  -9-16.1997 150.424   5
  -7  -7   9-47.7980 130.979   1
   7   7  -9-235.565 255.736  12
   7   7  -9 41.6140 59.6750   4
   7  -7  -9 43.6432 263.300  18
  -7   7  10 650.059 553.529  17
  -7   7  10-273.440 301.381  19
   7   7 -10 69.5762 169.046   3
  -7   7  10-4.00759 50.8777   6
  -7  -7  10 17.5591 81.8208   6
  -7  -7  10-3.95806 60.0164   1
  -7  -7  10 60.5098 159.078  14
   7  -7 -10-328.374 335.292  13
   7   7 -10 179.981 213.689   5
   7   7 -10-152.194 254.921  12
   7   7 -10 290.148 332.304   4
   7  -7 -10-20.1400 44.5112  18
   7   7 -11-23.7906 109.926   3
  -7  -7  11-88.5649 155.937   6
  -7  -7  11 110.074 189.976  14
  -7  -7  11 74.2194 141.670   1
   7  -7 -11 164.253 201.551  13
   7   7 -11 43.0430 75.4034   5
   7   7 -11-43.0747 189.231  12
  -7   7  11-37.6551 202.098  17
  -7   7  11 3.57137 87.2338  19
   7   7 -11-222.113 285.698   4
   7  -7 -11 127.312 305.930  18
   7   7 -12-24.7838 124.117   3
  -7  -7  12 270.386 254.758   6
  -7  -7  12 123.917 153.380  14
   7   7 -12 369.613 315.683   5
   7  -7 -12 94.6149 157.185  13
   7   7 -12 43.7495 84.5453  12
  -7  -7  12 165.984 160.316   1
   7   7 -12 86.7662 193.603   4
   7   7 -12 3.65671 195.925  19
   7  -7 -12 148.379 204.449  18
  -7  -7  13-513.998 370.829   8
  -7   7  13-222.570 300.151  17
   7   7 -13-106.807 211.105   3
  -7  -7  13-1.92266 61.0035   6
  -7  -7  13 80.4069 236.903  14
   7   7 -13 49.3003 205.319   5
   7  -7 -13 44.7051 83.7071  13
   7   7 -13-18.8924 175.010  12
   7   7 -13-34.4880 101.340   4
   7   7 -13 9.01628 131.433  19
   7  -7 -13 5.60063 151.890  18
   0   8   0-11.1653 34.0080  17
   0  -8   0 399.888 166.797   6
   0  -8   0 821.939 362.665   1
   0  -8   0 347.415 196.688  14
   0   8   0 403.858 311.669   5
   0  -8   0 265.412 88.8435  13
   0   8   0 414.713 237.804   2
   0   8   0 227.245 161.163  12
   0   8   0 209.364 195.844   4
   0   8   0 51.9812 93.3244  19
   0  -8   0 458.034 317.547   8
   0  -8   0 140.638 21.3235  18
   0  -8   1 68.9525 170.955   8
   0   8  -1 52.1444 61.9244  17
   0   8  -1-15.8675 156.056  19
   0   8  -1-40.8137 87.3495   3
   0  -8   1 18.3796 63.2127   6
   0  -8   1 26.6506 84.9618   1
   0  -8  -1 11.3508 58.7515   6
   0   8   1-15.9015 52.6397  17
   0  -8   1-29.7125 14.3683  14
   0  -8  -1-14.6326 67.5485  14
   0   8  -1-46.1553 236.352   2
   0  -8  -1-6.68013 42.8466   1
   0   8  -1 14.2434 94.4519   5
   0   8   1 69.4258 136.006   5
   0  -8  -1 260.239 153.196  13
   0   8   1-27.2170 164.096   2
   0   8  -1-10.6352 68.3907  12
   0   8   1-14.6144 80.6027  12
   0   8  -1-40.2529 174.972   4
   0  -8  -1 33.3782 179.666   8
   0   8   1 14.6043 92.4569   4
   0  -8   1-215.180 197.118  11
   0   8   1-20.9418 29.1240  19
   0  -8   1 15.3384 50.2483  18
   0  -8  -1-132.196 194.181  18
   0  -8  -2 970.264 231.254   6
   0   8  -2 235.207 167.007  17
   0   8   2-0.21815 39.0360  17
   0  -8   2 532.742 202.018   6
   0  -8   2 1452.95 485.587   1
   0  -8  -2 1156.87 417.315   1
   0  -8   2 637.119 257.690  14
   0  -8  -2 673.889 248.590  14
   0   8  -2 263.191 149.527   5
   0   8   2 865.940 387.485   5
   0   8  -2 389.828 234.424  12
   0   8   2 1031.62 377.293   2
   0   8  -2 245.641 111.166   4
   0  -8   2 612.308 182.418  11
   0   8   2 705.986 314.938   4
   0   8  -2 480.962 328.374  19
   0  -8   2 1081.46 404.691   8
   0   8   2 576.427 293.994  19
   0  -8   2 673.353 224.808  18
   0  -8  -2 801.277 324.499   8
   0  -8  -2 28.1233 183.960  18
   0   8  -3-52.3772 59.5314  17
   0   8   3-188.528 150.952  17
   0  -8   3 12.2494 40.0722   6
   0  -8   3-28.4309 70.4814  16
   0  -8  -3-8.81139 40.4356   6
   0   8   3-49.2046 27.3761   4
   0   8  -3 232.895 170.208   3
   0  -8   3-79.1285 99.1604  14
   0   8  -3-130.021 259.124   5
   0  -8  -3 45.0333 73.1135  14
   0   8   3 21.1708 74.9224   5
   0   8   3 0.27883 146.114  19
   0  -8  -3-85.6613 123.895   1
   0   8   3-65.1236 65.6275   2
   0  -8   3 3.91855 17.5636  11
   0   8  -3 24.3683 85.3923  19
   0  -8   3-30.2583 148.429   8
   0  -8   3 4.05276 47.5050   1
   0  -8   3-13.4527 46.7180  18
   0  -8  -3-83.5807 204.263   8
   0   8  -4 143.470 118.584  17
   0  -8   4 8.00450 93.5059   6
   0   8   4-76.7165 132.348  17
   0   8   4 102.720 110.274  19
   0  -8   4 184.240 84.7338  16
   0  -8  -4 189.990 105.678   6
   0   8   4 32.3354 23.1475  16
   0  -8   4 111.240 117.900  14
   0  -8  -4 238.503 152.355  14
   0   8   4 122.803 138.842   5
   0  -8   4 255.733 235.707   8
   0   8   4 172.702 147.238   4
   0  -8   4 230.741 110.125  11
   0  -8  -4 7.89190 219.751   8
   0   8   4 337.586 217.124   2
   0   8  -4 15.6498 213.014  19
   0  -8  -4 190.971 191.488   1
   0  -8   4 281.068 249.165   1
   0  -8   4 215.609 122.098  18
   0   8   5 0.85376 26.5288   2
   0   8   5-25.4611 60.1641   4
   0   8  -5 766.623 263.599  17
   0  -8  -5 325.704 285.915   1
   0  -8   5-147.431 213.254   6
   0   8   5-308.887 202.827  17
   0  -8   5 45.8175 196.196  16
   0  -8  -5 68.8288 107.253   6
   0  -8   5-9.01076 170.066  14
   0  -8  -5 69.8322 116.256  14
   0   8   5-53.7736 134.117   5
   0  -8   5 49.1930 258.206   1
   0   8  -5 155.721 220.789  19
   0   8   5-22.8804 97.6603  19
   0  -8   5 53.2950 245.440   8
   0  -8   5 85.4679 150.639  18
   0   8  -6 9.90713 101.905  17
   0   8   6-174.978 156.316  17
   0  -8  -6 212.801 130.067   1
   0  -8   6 448.851 232.427  16
   0  -8  -6 72.0271 149.831   6
   0  -8   6 231.020 193.800  14
   0  -8   6 469.717 384.645   8
   0  -8  -6 77.1772 81.7052  14
   0  -8   6 707.555 267.653  18
   0   8   6 317.431 194.871   5
   0  -8   6 257.857 227.266   1
   0   8   6 287.820 183.594   2
   0   8   6 421.906 276.124  19
   0   8  -6-203.435 288.272  19
   0   8   6 320.574 198.488   4
   0   8   7-12.5067 42.9685  17
   0  -8   7-11.1405 25.7295  16
   0  -8   7-38.0107 116.527  14
   0  -8  -7-36.9350 97.2184   1
   0  -8  -7-2.10494 42.8100  14
   0  -8   7-59.2189 198.883   1
   0   8   7 31.0977 40.8332   5
   0   8  -7 470.018 195.288  17
   0   8  -7 94.5683 142.739  19
   0  -8   7 74.3971 186.087   8
   0   8   7-326.026 281.056  19
   0   8   7-13.7078 117.100   2
   0  -8   7-13.8091 58.1328  18
   0   8   7-15.3246 42.1970   4
   0   8  -8-0.02207 24.5533  17
   0   8   8-206.766 178.067  17
   0  -8   8 129.143 154.018  16
   0  -8   8 10.5780 63.2861  14
   0  -8  -8 97.7095 121.277  14
   0  -8  -8 99.9719 136.031   1
   0   8   8 76.4814 157.028   5
   0  -8   8 198.680 192.975   8
   0   8   8 71.0323 26.9311   2
   0   8  -8-0.73204 127.136  19
   0   8   8-17.8821 217.402  19
   0   8   8 84.1339 155.174   4
   0  -8   8 145.813 133.455  18
   0   8   9-26.1169 6.98918  17
   0  -8   9 21.8591 105.695  16
   0  -8   9-118.188 180.359  14
   0  -8  -9 16.4430 84.1466  14
   0   8   9 20.1918 68.0837   5
   0  -8  -9 50.6462 112.302   1
   0  -8   9-1.48796 16.4447   8
   0   8   9-98.2127 178.176   4
   0   8   9-42.7020 106.011   2
   8   0 -10 138.738 80.5506   3
   0   8  10-53.6574 148.714  17
   0  -8  10 476.542 297.779  16
  -8   0  10-2.43111 118.625   6
   0  -8  10 535.631 395.983   8
   0  -8 -10 120.775 114.354  14
   0   8  10 324.497 206.826   5
   0  -8 -10 207.483 217.289   1
   0   8 -10-580.953 362.284  19
   0   8  10 121.834 162.991   4
   0   8  10 349.100 263.505   2
   8   0 -11-91.5623 201.336   3
   0   8  11-213.245 193.092  17
   0  -8  11 58.5054 149.890  16
  -8   0  11 15.3221 125.312   6
   0  -8 -11 25.5539 44.1338  14
   0   8  11-38.6472 132.555   2
   0   8  11-237.023 326.187   4
   0   8  11 5.68540 53.6767   5
   0  -8  11 22.7648 162.133   8
   0  -8 -11 60.4658 109.113   1
   0  -8 -12 222.610 193.023   1
   0   8  12 9.70804 97.5893  17
   0  -8  12 1378.29 515.192  16
  -8   0  12 33.8379 115.012   6
   0   8  12 887.360 433.818   5
   0  -8 -12 228.445 129.456  14
   8   0 -12 237.328 169.508  13
   8   0 -12 982.844 390.929  18
   0  -8  12 1470.67 533.815   8
   8   0 -12 1835.68 644.079   3
   0   8  12 1074.59 431.484   2
  -8   0  13 162.196 239.292  17
   8   0 -13-68.0186 221.229   3
   0  -8 -13 35.1989 91.5530   1
  -8   0  13 88.4752 202.224   6
   0  -8  13-47.0136 30.0077  16
   0  -8 -13 5.59741 32.7602  14
   8   0 -13-105.482 196.984  13
   0   8  13 13.9382 99.5172   5
   0  -8  13 52.1570 183.186   8
   8   0 -13 128.381 232.393  18
   0   8  13 82.1087 177.304   2
  -8   0  14 535.112 445.931  17
   8   0 -14 1124.76 504.785   3
   0  -8 -14 124.471 135.507   1
  -8   0  14 353.476 235.923   6
   0  -8  14 774.991 397.327  16
   0  -8 -14 112.373 97.0634  14
   8   0 -14 731.981 344.560  13
   0   8  14 639.402 334.257   5
   8   0 -14 887.807 373.297  12
   0  -8  14 1133.19 460.670   8
   8   0 -14 1557.54 578.257  18
   0   8  14 784.310 411.103   2
  -8   0  15 155.030 279.947  17
   8   0 -15 39.3322 79.2367   3
  -8   0  15-125.955 162.874   6
   0  -8  15-4.90066 153.425  16
   0  -8 -15 28.3538 163.248   1
   0  -8 -15 48.5111 93.8983  14
   8   0 -15-58.8650 218.738  13
   8   0 -15 44.5981 94.9805  12
   0  -8  15-35.7884 174.731   8
   8   0 -15 108.028 278.753  18
   0   8  15 167.481 246.299   2
   8   0 -16 50.5197 93.1833   3
  -8   0  16 98.1786 122.037   6
   0  -8  16 8.86514 103.901  16
   0  -8  16-278.540 450.492   8
   8   0 -16 14.1007 113.065  13
   8   0 -16 6.96705 148.488  12
  -8   0  16 440.032 355.459  17
   8   0 -16 224.380 216.671  18
  -1   8   0 84.9217 161.881  17
   1   8   0 288.631 208.569   4
   1   8   0-46.7723 67.9667  17
  -1   8   0-2.53965 28.6229   3
   1  -8   0 320.345 182.017  18
  -1  -8   0 442.969 205.082   6
   1  -8   0 102.012 60.4118  14
  -1   8   0 94.1294 96.2899  19
  -1   8   0-40.7240 239.295   5
  -1  -8   0 327.285 178.235  14
   1   8   0 420.788 297.266   5
  -1   8   0 286.290 216.128  12
   1   8   0 39.3870 56.4200  12
   1  -8   0 782.914 337.967  11
   1   8   0 412.556 229.689   2
  -1  -8   0 439.707 241.099   1
   1   8   0 276.687 214.395  19
   1  -8   0 416.594 271.766   8
  -1  -8   0 191.787 146.529   8
   1  -8   0 567.072 289.279   1
  -1   8  -1 86.4193 132.616  17
  -1   8   1 303.928 201.900  17
  -1  -8   1 1381.16 346.742   6
  -1  -8  -1 1443.31 342.907   6
   1  -8  -1 124.712 37.3925   6
   1   8  -1 87.4053 89.9206  17
   1  -8   1 1540.55 519.666   1
   1  -8  -1 1829.39 545.906   1
  -1  -8   1 1459.31 454.811   1
  -1  -8   1 1059.02 338.788  14
  -1  -8  -1 1003.10 321.862  14
   1  -8   1 526.948 236.478  14
   1  -8  -1 558.834 241.889  14
   1   8   1 1298.19 466.072   5
   1   8  -1 1428.64 363.548   2
   1   8   1 1151.21 353.493   2
  -1   8  -1-139.152 353.851   5
  -1   8   1 456.905 269.913   5
  -1   8   1 627.518 303.351   2
   1   8  -1 963.806 414.693   5
   1  -8  -1 360.338 84.2294  13
   1   8  -1 310.893 199.081  12
   1   8   1 1213.15 455.406   4
  -1   8   1 18.7303 198.963   4
   1   8   1-44.4303 202.657  12
   1  -8  -1 1247.65 396.857  11
   1   8  -1 980.992 399.222   4
  -1   8  -1 173.257 238.841  19
  -1   8   1 476.476 273.301  19
   1   8  -1 838.240 388.714  19
   1   8   1 1142.68 448.657  19
   1  -8   1 1342.08 465.968   8
   1  -8   1 1283.26 377.922  18
   1  -8  -1 1030.69 363.226  18
   1  -8  -1 1273.88 414.961   8
  -1  -8  -1 1117.88 402.892   1
  -1  -8   1 902.203 412.366   8
  -1  -8  -1 838.691 400.442   8
  -1  -8  -2-66.0493 240.537   8
  -1   8  -2 91.0154 129.388  17
  -1   8   2 207.185 184.051  17
   1   8  -2-28.3120 84.3401   3
   1  -8  -2 0.23415 45.4637   6
   1   8  -2-131.442 97.1864  17
   1   8   2-22.8400 58.2059  17
  -1  -8  -2 213.158 195.982   1
  -1  -8   2 167.592 135.403   6
   1  -8   2 104.547 66.8220  16
  -1  -8  -2 131.873 109.108   6
   1  -8   2-4.44855 69.0238  14
   1  -8  -2 62.4869 85.9929  14
  -1  -8   2 122.280 156.212   1
  -1  -8   2 37.5774 33.5204  14
  -1  -8  -2 29.8472 10.5507  14
  -1   8   2 81.2680 36.2689   5
   1  -8   2 88.5823 194.492   8
   1   8  -2 151.621 209.012   5
   1   8  -2 193.053 185.157   2
  -1   8   2 187.642 237.278   2
   1  -8  -2 143.310 111.936  13
  -1  -8   2 237.026 208.135   8
   1   8   2-13.5835 56.5874   5
   1   8  -2 21.3226 44.2353  12
  -1   8   2-67.2964 122.349  12
  -1   8   2-116.167 195.401   4
   1  -8  -2 199.810 171.846   1
   1  -8  -2 8.01753 43.0589  11
   1   8  -2 53.9879 136.980   4
   1  -8   2 49.8361 79.7302   1
  -1   8  -2-28.7300 130.076  19
  -1   8   2 197.649 227.938  19
   1   8   2 132.403 53.8115   2
   1   8  -2 53.7582 63.2763  19
   1   8   2 120.242 159.998   4
   1   8   2-52.7392 159.317  19
   1  -8  -2 125.501 178.250   8
   1  -8   2 169.063 139.043  18
   1  -8  -2 67.2078 100.199  18
  -1   8  -3 78.9627 126.002  17
  -1   8   3 152.756 167.116  17
  -1   8   3 505.248 311.239  19
   1   8  -3-74.2946 97.0732  17
   1  -8  -3 90.7081 45.5914   6
   1   8   3-63.7247 97.6249  17
   1   8  -3 11.5802 19.4401   3
  -1  -8   3 439.661 183.541   6
  -1  -8   3 604.291 308.938   1
   1  -8   3 337.487 127.707  16
   1  -8  -3 387.701 275.962   1
  -1  -8  -3 352.851 165.971   6
   1  -8   3 145.465 102.689  14
  -1  -8  -3 414.138 251.166   1
   1  -8  -3 199.323 107.785  14
  -1  -8   3 352.103 180.693  14
  -1  -8  -3 219.784 155.044  14
   1   8  -3 342.621 286.040   5
  -1   8   3 277.848 253.444   5
   1   8   3 432.247 280.025   5
   1  -8  -3 602.893 203.849  13
  -1   8   3 419.337 235.658   2
   1   8  -3 114.806 123.672  12
   1  -8   3 385.467 258.561   1
  -1   8   3 220.972 195.254   4
   1   8  -3 247.249 242.719   4
   1  -8  -3 242.315 112.057  11
   1   8   3 382.271 243.737  19
  -1   8  -3 39.8450 163.638  19
   1   8  -3 400.556 334.376  19
   1   8   3 256.284 175.369   4
   1  -8   3 156.793 43.5904   8
  -1  -8  -3 141.808 126.288   8
   1  -8   3 488.662 253.817  18
  -1  -8   3 510.519 332.943   8
   1   8   3 223.238 155.404   2
   1  -8  -3 445.391 286.789   8
   1  -8  -3 233.973 131.343  18
  -1   8   4 1495.57 584.317  17
   1   8   4 57.4231 102.868   2
  -1  -8   4 450.848 301.997   1
   1   8  -4-46.9447 60.5098  17
   1   8   4-49.3968 111.545  17
   1  -8  -4 2.87438 39.9304   6
  -1  -8   4 286.887 181.788   6
   1   8  -4 47.4028 219.487   3
   1  -8  -4 117.210 25.6994  11
   1  -8   4 136.575 86.1643  16
   1  -8   4-23.9750 13.1620  14
  -1  -8  -4 7.33099 187.088   6
   1  -8  -4 175.519 218.538  14
  -1  -8   4 184.283 128.244  14
   1  -8  -4 642.018 405.577   1
  -1  -8  -4 181.758 152.655  14
   1   8  -4 60.2634 102.003   5
  -1   8   4 121.665 207.148   5
   1  -8   4 256.054 301.366   1
   1   8   4 97.8587 105.503   5
  -1  -8  -4 107.493 67.1505   1
   1   8  -4 495.333 442.563  12
  -1   8   4 405.362 370.051   2
  -1   8  -4 287.705 224.956  17
   1   8  -4-190.562 279.754   4
  -1   8   4 247.482 227.747   4
  -1   8  -4-147.235 118.333  19
   1   8  -4 66.3944 299.649  19
   1  -8   4 142.989 311.179   8
   1   8   4 43.2741 116.974  19
   1   8   4 258.838 179.204   4
   1  -8   4 404.612 272.607  18
  -1   8   4 796.063 491.834  19
  -1  -8   4 265.862 237.253   8
   1  -8  -4 167.920 264.491   8
   1  -8  -4 70.4506 79.6062  18
  -1   8   5 3311.53 856.360  17
   1  -8  -5 274.552 359.163   8
  -1   8  -5 1058.89 399.084  17
   1   8  -5 598.932 181.548  17
  -1  -8   5 118.963 132.253   6
   1   8   5-117.268 118.400  17
  -1   8   5 685.135 293.395  16
   1  -8  -5 108.575 60.1897   6
  -1  -8   5 56.4976 190.490  16
  -1   8  -5 182.778 185.449  19
   1  -8   5 302.716 208.968  16
   1  -8   5 29.5670 73.0956  14
  -1   8   5 664.996 513.087   5
  -1  -8   5 82.4909 166.015  14
   1  -8  -5 295.163 209.626  14
   1   8  -5-35.4863 164.420   5
  -1  -8  -5 52.1832 108.741  14
   1  -8   5 451.576 363.191   1
   1  -8  -5 891.280 457.450   1
   1   8  -5 1824.97 650.843  12
   1   8   5-28.0835 76.7375   5
  -1   8   5 436.680 403.150   4
  -1   8   5 723.504 427.327   2
   1   8  -5-118.671 211.170   4
  -1   8   5 3755.09 905.812  19
   1  -8   5 1238.79 579.140   8
   1   8  -5 720.841 379.377  19
  -1  -8  -5 8.48987 54.3085   1
   1   8   5 52.5808 88.6078   2
   1   8   5-84.3537 207.688  19
   1  -8   5 709.303 404.415  18
   1   8   5 46.0727 137.802   4
  -1  -8   5 410.744 380.098   8
  -1  -8   5 92.9251 136.256   1
   1   8  -5 855.876 350.802   3
   1  -8  -6 106.950 147.933   8
   1   8   6 11.2139 136.294   2
   1   8  -6-39.0965 84.1586  17
  -1   8   6 241.914 261.097  17
  -1  -8   6 180.121 149.777   6
   1   8   6-226.481 169.379  17
   1  -8   6-209.608 289.648  18
  -1  -8   6 256.207 201.637  16
  -1   8   6 238.055 126.121  16
   1  -8  -6 90.5734 57.8146   6
   1  -8   6-149.289 236.129  16
   1  -8   6-75.3580 284.833  14
  -1  -8   6 127.851 133.130  14
   1  -8   6-210.816 335.271   1
   1  -8  -6 72.1029 25.6149  14
  -1   8   6 322.441 333.035  19
  -1  -8  -6 43.8892 97.9433  14
   1  -8   6-61.8254 203.646   8
  -1   8   6 88.4181 163.069   5
   1   8   6 145.024 145.826   5
   1  -8  -6 135.126 227.182   1
  -1  -8   6 306.092 240.867   1
  -1   8   6 431.451 343.328   2
   1   8   6 70.6044 177.490  19
  -1  -8  -6 2.79554 81.3145   1
  -1   8  -6-685.552 629.457  19
  -1   8   6 117.369 132.709   4
   1   8  -6 426.393 480.114  19
  -1  -8   6 265.827 312.492   8
   1   8   6-51.7529 194.378   4
   1   8   7 47.7274 26.3130   2
   1   8  -7 37.6254 42.7146  17
  -1   8   7-269.320 209.633  17
  -1  -8   7 107.215 82.8112   6
   1   8   7-275.825 192.191  17
  -1  -8   7 54.3617 100.961  16
  -1   8   7 130.470 92.7945  16
   1  -8  -7 125.321 65.1039   6
  -1  -8  -7 95.5195 128.836   1
  -1  -8   7 130.574 94.1199  14
   1  -8  -7-4.40192 80.2880  14
  -1   8   7 30.9633 88.6079  19
  -1  -8  -7 70.7144 104.688  14
  -1   8   7 162.228 197.678   5
   1   8  -7-53.0799 55.3828  13
   1   8   7 166.945 199.569   5
  -1  -8   7 79.0937 33.9216   1
   1  -8  -7 7.49426 22.7258   1
  -1   8   7 278.850 248.350   2
  -1   8   7 82.0868 129.000   4
   1   8  -7 178.291 243.534  19
   1  -8   7 119.501 225.210   8
  -1  -8   7 174.099 186.611   8
   1   8   7-147.842 318.602   4
  -1  -8   7-13.2742 76.4091  18
   1   8   8 79.9439 40.4505   2
   1   8  -8 43.1330 16.3129  17
  -1  -8   8 302.329 157.898   6
  -1   8   8 461.712 253.181   4
  -1  -8   8 571.548 308.303  16
  -1   8   8 359.962 177.922  16
   1  -8   8 100.771 102.498   8
  -1   8   8-46.1289 132.747  17
   1  -8  -8 195.161 63.0369   6
  -1  -8   8 383.701 236.630  14
   1  -8  -8 180.061 132.165  14
  -1  -8  -8 159.794 124.053  14
  -1  -8  -8 79.1941 78.8461   1
  -1  -8   8 69.1804 75.2123   1
  -1   8   8 395.097 271.580   5
   1   8   8 301.191 229.497   5
  -1   8   8 541.827 318.883   2
   1   8  -8 152.211 238.574  19
   1  -8  -8 399.807 233.487   1
  -1   8   8 556.224 325.312  19
  -1  -8   8 694.670 371.122   8
  -1  -8   8 237.962 80.1328  18
   1   8  -9-7.33704 30.4866  17
   1   8   9 64.2845 76.5358   2
  -1  -8   9 28.9213 162.663   6
  -1   8   9 22.8832 33.6163  17
  -1   8   9 157.148 148.688  19
  -1  -8   9 539.318 351.725  16
  -1   8   9 315.854 182.459  16
  -1  -8   9 200.822 153.531  14
   1  -8   9-170.788 378.402   8
  -1  -8   9-56.3227 254.598   1
   1  -8  -9 74.5974 66.7213  14
  -1  -8  -9 128.090 129.031  14
  -1   8   9 152.418 176.504   5
   1   8   9 150.855 86.1381   5
  -1  -8  -9 85.4533 95.6184   1
   1   8  -9 158.368 72.7095  19
  -1   8   9 440.299 282.080   2
  -1   8   9 359.052 219.590   4
  -1  -8   9 609.076 405.797   8
   1  -8  -9 214.865 213.380   1
  -1  -8   9 221.473 75.7669  18
   8  -1 -10 208.874 39.2898   3
   8   1 -10 278.504 175.144   3
   1  -8 -10 243.230 200.001   1
  -1  -8  10 351.947 328.439   8
   1   8  10 258.929 194.159   2
  -1   8  10 63.3184 44.3924  17
  -1  -8  10 485.406 284.523  16
  -1   8  10 150.011 110.171  16
  -8  -1  10 31.8965 136.133   6
  -8   1  10-40.6435 140.749   6
  -1  -8  10 284.430 205.267  14
  -1  -8 -10 64.8359 118.338   1
  -1   8  10 412.965 305.445   2
   1  -8 -10 107.857 84.0552  14
  -1  -8 -10 109.587 156.043  14
  -1   8  10 248.433 231.765   5
   1   8  10 50.2485 161.520   5
   1  -8  10-663.476 394.721   8
  -1   8  10 349.969 209.793   4
   1   8 -10 41.8378 172.527  19
   8  -1 -11 1036.99 494.558   3
   8   1 -11 999.330 536.734   3
   1  -8  11-320.731 578.229   8
   1   8  11 276.546 233.359   2
  -1   8  11 210.221 219.373  17
  -1  -8 -11 42.2898 119.886   1
   1  -8 -11 311.534 198.668   1
  -1  -8  11 1066.17 435.979  16
  -1   8  11 709.689 279.621  16
  -8  -1  11 59.5606 178.987   6
  -8   1  11 24.8012 17.0831   6
  -1  -8  11 383.726 208.742  14
   1  -8 -11 183.390 120.125  14
  -1  -8 -11 101.687 129.062  14
   8  -1 -11 239.353 251.621  13
  -1   8  11 734.280 331.040   5
   1   8 -11 6.22252 157.883  19
  -1   8  11 986.329 471.456   2
  -1   8  11 875.187 321.740   4
  -1  -8  11 824.687 406.500   8
   8  -1 -11 213.246 238.108  18
  -8   1  12 21.3628 316.462  17
   8  -1 -12 375.463 262.603   3
   8   1 -12 316.342 248.257   3
  -1   8  12 24.2874 91.5399  17
  -1  -8  12 470.779 260.623   8
   1  -8 -12 232.696 205.343   1
  -1  -8  12 355.996 282.591  16
  -1   8  12 231.883 195.886  16
  -8  -1  12 61.3234 179.088   6
  -8   1  12 95.1159 120.864   6
  -1  -8  12-4.66167 231.895  14
   1  -8 -12 52.2808 57.7974  14
  -1   8  12 437.462 333.944   2
   8  -1 -12 69.0042 210.436  13
  -1   8  12 323.678 226.618   5
   8   1 -12-89.5644 288.354  12
  -1  -8  12 253.815 98.9609   2
  -1   8  12 192.986 150.462   4
   8   1 -12 196.447 223.165  18
   8  -1 -12 296.671 269.700  18
   1   8 -12-94.5126 213.612  19
  -8  -1  13 300.802 333.651  17
  -8   1  13 224.677 221.403  17
  -1   8  13 231.542 215.605  17
  -1  -8  13 1639.99 581.070  16
  -8   1  13 168.618 132.841   6
  -8  -1  13 247.451 280.032   6
  -1   8  13 893.168 325.345  16
   1  -8 -13 318.627 197.647   1
  -1  -8  13 1164.37 235.880   2
   1  -8 -13 204.241 125.965  14
   8   1 -13 167.600 60.3711  13
   8  -1 -13 925.870 419.753  13
  -1   8  13 990.551 433.689   5
  -1   8  13 1214.00 379.735   4
   8   1 -13 1010.83 451.063  12
   1   8 -13 40.1401 102.177  19
  -1   8  13 1289.38 531.322   2
  -1  -8  13 2000.93 639.305   8
   8   1 -13 1369.37 323.507   4
   8   1 -13 1592.74 531.576  18
   8  -1 -13 1545.43 576.906  18
   8  -1 -13 1580.16 601.276   3
   8   1 -13 1629.26 621.017   3
  -8  -1  14 433.492 385.000  17
   8   1 -14 61.3953 91.6292   3
  -1   8  14-158.734 235.941  17
  -8   1  14 241.773 255.627   6
  -8  -1  14 100.846 222.908   6
  -1  -8  14 212.443 242.549  16
  -1   8  14 85.8893 102.819  16
   1  -8 -14 77.7053 172.058   1
   1   8 -14 122.498 64.2149  19
   1  -8 -14 28.5730 71.3403  14
  -8  -1  14-8.28868 112.295  14
   8   1 -14-168.349 257.542  13
   8  -1 -14-12.3808 135.015  13
  -1   8  14 292.416 249.703   5
   8   1 -14-13.4970 86.2267  12
   8  -1 -14-75.7951 330.198  12
   8   1 -14 151.085 135.739   4
  -1  -8  14 130.729 101.317   8
   8  -1 -14 168.490 133.961   3
  -1   8  14 89.0813 197.142   2
  -1   8  14-2.83476 145.336   4
  -8   1  14 324.768 489.877  17
   8   1 -14 317.721 270.544  18
   8  -1 -14 158.880 213.974  18
  -1  -8  15 924.704 470.883  16
  -8  -1  15 641.246 421.538  17
  -8   1  15 300.636 297.307  17
   8  -1 -15 789.645 434.793   3
   8   1 -15 1055.12 482.775   3
  -1   8  15 92.0922 128.398  17
  -8   1  15 49.5341 131.734   6
  -8  -1  15 163.913 235.017   6
  -1   8  15 444.368 244.734  16
   1  -8 -15 131.984 121.981  14
   1  -8 -15 98.3956 92.8357   1
  -8  -1  15 393.588 193.006  14
   8   1 -15 440.068 259.767  13
   8  -1 -15 376.565 227.563  13
  -1   8  15 740.349 376.475   5
  -1   8  15 873.639 449.286   2
   8   1 -15 703.556 352.902  12
   8  -1 -15 767.305 333.914  12
   1   8 -15-273.955 391.524  19
  -1   8  15 506.656 209.398   4
  -1  -8  15 1082.32 479.356   8
   8   1 -15 1195.17 503.349  18
   8  -1 -15 1311.39 591.427  18
  -8  -1  16 325.170 268.471  17
  -8   1  16 74.4605 143.783  17
   8  -1 -16 117.046 190.952   3
   8   1 -16 188.693 97.0567   3
  -1   8  16-512.126 340.923  17
  -8   1  16 97.6913 140.485   6
  -8  -1  16 184.460 255.767   6
  -1  -8  16 361.956 331.742  16
  -1   8  16 151.928 194.276  16
   1  -8 -16-7.06789 45.6464  14
   1  -8 -16 155.978 190.676   1
   8   1 -16-72.1403 99.7993  13
   8  -1 -16 127.745 123.372  13
  -1   8  16 147.393 143.293   5
   8   1 -16 104.142 134.464  12
   8  -1 -16 61.3341 142.893  12
   1   8 -16-857.779 461.498  19
  -1  -8  16 420.222 363.426   8
  -1   8  16 173.374 253.149   2
  -1   8  16-115.445 260.729   4
   8   1 -16 285.330 312.388  18
   8  -1 -16 131.232 255.980  18
  -2   8   0 113.441 105.272  17
  -2  -8   0 3546.21 618.677   6
   2  -8   0 3117.49 761.348   1
   2  -8   0 2558.98 592.376   8
  -2  -8   0 2118.87 488.960  14
  -2  -8   0 2726.76 612.330   1
   2  -8   0 575.678 217.957  14
   2   8   0 2715.48 691.986   5
   2   8   0 1603.08 356.854   2
   2   8   0 2968.38 712.103   4
   2   8   0 25.2210 231.528  12
   2   8   0 2253.21 672.926  19
  -2   8   0 110.869 120.122  19
  -2  -8   0 1451.46 572.772   8
   2  -8   0 3185.41 668.799  18
  -2  -8   1 338.802 275.359   8
  -2   8  -1 32.9563 116.916  17
  -2  -8  -1 166.993 123.371   8
  -2   8   1 151.778 226.896  17
   2   8   1 189.966 111.661   2
  -2  -8   1 744.637 308.999   1
  -2  -8   1 760.936 286.721   6
  -2  -8  -1 673.182 273.834   6
   2  -8   1-42.6631 170.300  14
   2  -8  -1 115.503 33.4018  14
  -2  -8   1 624.449 266.299  14
  -2  -8  -1 508.620 253.514  14
   2   8  -1 515.469 300.264   5
   2   8   1 620.633 327.982   5
   2  -8  -1 756.267 309.944   8
   2  -8   1 425.266 232.154   1
   2   8  -1 198.196 153.955  12
  -2  -8  -1 368.377 203.285   1
  -2   8  -1-192.626 374.221  19
  -2   8   1-77.3434 87.8541  19
   2   8  -1 422.109 263.861  19
   2  -8  -1 1077.60 386.890   1
   2   8  -1 554.488 306.487   4
   2  -8   1 643.809 301.937   8
   2   8   1 530.895 338.441  19
   2   8   1 709.033 356.457   4
   2  -8   1 687.622 267.192  18
   2   8  -1 472.497 163.458   2
   2  -8  -1 699.485 284.282  18
  -2   8  -2-48.3377 91.1814  17
  -2  -8  -2 517.257 289.917   1
  -2  -8  -2 53.4459 356.294   8
  -2   8   2 881.035 479.964  17
  -2  -8   2 1193.54 359.198   6
   2   8   2 222.699 112.143   2
   2  -8   2 904.532 335.837  18
  -2  -8   2 1270.74 423.432   1
  -2  -8   2 982.202 327.784  14
   2  -8   2 30.0977 219.342  14
  -2  -8  -2 711.264 289.055   6
   2  -8  -2 285.709 212.845  14
   2   8  -2 1203.79 490.734   5
   2   8  -2 1084.45 264.668   2
  -2   8   2-222.949 441.065   5
  -2  -8  -2 587.615 254.571  14
  -2   8  -2-210.216 474.818  19
   2  -8   2 676.995 356.659   1
   2   8   2 745.617 381.701   5
  -2   8   2 295.086 174.673  12
   2   8  -2 293.124 179.976  12
   2  -8  -2 1314.06 459.210   8
  -2   8   2 722.244 493.864  19
   2   8  -2 923.103 414.369   4
   2   8  -2 594.235 327.568  19
   2  -8   2 539.517 296.981   8
   2   8   2 790.774 399.195  19
   2   8   2 809.175 369.338   4
   2  -8  -2 1315.86 477.441   1
   2  -8  -2 977.475 371.179  18
  -2  -8   2 631.595 368.923   8
  -2   8  -3-95.9384 204.366  17
  -2   8   3 1087.68 883.080  19
   2   8  -3-47.7593 117.592   3
   2   8   3-53.1450 176.481   2
   2  -8  -3 855.419 815.652   1
  -2  -8   3 169.396 160.395   6
   2  -8  -3 468.204 463.509  14
  -2   8   3 68.0302 631.394   2
  -2  -8  -3 31.5172 34.5143   1
  -2   8   3-287.160 219.226   5
  -2  -8   3 111.203 142.915  14
  -2  -8  -3 22.2526 66.5624  14
   2  -8   3-61.6235 167.473   1
   2  -8  -3 210.173 526.792  13
   2   8  -3 102.745 140.230   5
   2   8   3 99.7561 111.908   5
  -2   8   3-31.3319 146.853  12
   2   8  -3 79.3061 95.6957  12
  -2  -8   3 91.8690 188.385   1
   2   8  -3 154.839 130.278   2
   2   8   3 101.199 115.292  19
   2   8  -3 17.0006 78.9589   4
   2  -8   3-89.4563 242.085   8
   2  -8  -3 399.866 491.366  18
   2  -8   3-24.1656 130.959  18
   2  -8  -3 184.496 360.747   8
   2   8   3-236.734 306.690   4
   2   8  -3 77.6482 144.359  19
  -2  -8   3 5.07563 268.656   8
   2   8  -4 982.579 538.544  19
   2   8  -4 148.053 106.630   3
  -2  -8   4 290.543 183.339   6
   2  -8  -4 1993.34 886.325   1
   2  -8  -4 1031.40 501.528  14
   2  -8   4-29.3763 352.419   1
  -2  -8   4 241.843 163.723  14
  -2   8   4 35.5527 147.357   5
  -2  -8   4 466.055 250.384   1
   2   8  -4 242.133 134.980   2
  -2  -8  -4 176.595 148.101  14
   2   8  -4 431.069 347.591   5
   2  -8  -4 3013.42 791.093  13
  -2   8   4 824.652 619.085   2
   2   8   4 215.839 232.495   5
   2   8  -4 668.230 371.769  12
   2  -8  -4 1944.06 815.525  11
  -2  -8  -4 76.0821 119.064   1
   2   8  -4 472.057 395.819   4
  -2   8   4 1513.08 543.063  19
   2  -8   4-228.124 383.869   8
   2   8   4-222.461 340.820   4
   2  -8  -4 494.878 410.382   8
  -2  -8   4 268.862 264.714   8
   2  -8  -4 829.278 505.239  18
  -2  -8  -5 36.1049 87.4101   1
   2   8   5-58.1894 217.865   2
  -2   8   5 50.6876 290.618  19
  -2  -8   5 771.435 330.214   6
   2   8  -5 243.141 230.778   3
   2  -8  -5 995.915 539.696   1
  -2  -8   5 962.122 402.546   1
   2   8   5 227.106 153.331  19
   2  -8  -5 213.640 236.785  14
  -2  -8   5 654.779 291.746  14
  -2   8   5 351.572 290.063   5
   2   8  -5 505.357 401.256   5
  -2  -8  -5 138.191 146.214  14
   2  -8  -5 938.184 553.801  13
  -2   8   5 696.668 384.898   2
   2   8  -5 55.1761 268.686  12
   2   8   5 208.995 129.084   5
  -2   8   5-72.4489 236.255   4
   2   8  -5 346.188 301.114   4
   2  -8  -5 542.738 416.528  11
   2  -8  -5 1663.22 587.197   8
   2   8  -5 307.530 303.705  19
   2  -8   5-173.202 546.989   8
  -2  -8   5 656.763 337.668   8
   2  -8  -5 608.143 325.863  18
  -2   8   6-99.3490 133.886  17
  -2  -8   6 340.697 255.960   1
  -2  -8   6 140.870 139.739   6
   2   8  -6-75.0086 127.856   3
   2  -8  -6 149.335 151.195   1
  -2   8   6 203.696 226.852  19
   2  -8  -6 60.2151 46.5621  14
  -2  -8   6 159.853 121.883  14
  -2  -8  -6-9.16778 83.2792   1
   2   8  -6 77.4376 98.9048   5
  -2   8   6 91.5139 142.404   5
  -2  -8  -6-71.3120 115.412  14
  -2   8   6 87.1999 254.593   2
   2   8  -6 3.58790 37.3821  12
   2   8   6-358.816 253.398   5
  -2   8   6-75.3729 231.704   4
   2   8  -6-118.010 208.137   4
   2  -8  -6 6.95941 100.012  11
   2  -8   6-270.008 616.829   8
   2   8  -6 114.839 160.899  19
  -2  -8   6 214.958 224.454   8
   2  -8  -6-23.8897 137.877  18
   2  -8  -6 39.2197 100.786   8
  -2   8   7 288.975 239.845  17
  -2  -8   7 682.511 325.154  16
  -2   8   7 748.791 261.543  16
  -2  -8   7 1631.01 504.858   1
   2   8  -7 258.724 214.999   3
  -2  -8   7 1147.75 385.035  14
   2  -8  -7 962.704 405.951   1
  -2  -8  -7 128.803 156.523   1
   2  -8  -7 222.620 142.388  14
   2   8  -7 572.964 346.446  19
   2   8  -7 213.333 95.6255   5
  -2   8   7 703.763 341.610   5
  -2  -8  -7 207.052 148.837  14
   2   8  -7 480.469 341.545  12
  -2  -8   7 1316.11 405.249   6
  -2   8   7 1314.77 494.985   2
   2   8   7 164.454 202.728   5
   2   8  -7 103.414 260.766   4
  -2   8   7 402.255 182.558   4
   2  -8  -7 552.791 317.978  11
  -2   8   7 562.919 283.921  19
   2  -8  -7 586.189 288.147   8
  -2  -8   7 1425.07 515.345   8
   2  -8  -7 719.035 198.440   3
   2  -8  -7 411.188 241.430  18
  -2   8   8-34.4057 134.881  17
  -2  -8   8 106.358 106.997   6
   2   8  -8 126.766 159.652  19
  -2  -8   8 101.254 141.253  16
  -2   8   8 108.314 114.447  16
   2  -8  -8 4.55516 44.2059   3
   2   8  -8 321.446 241.712   3
   2  -8  -8 3.43799 40.7130  14
  -2  -8   8 34.5070 113.842  14
   2  -8  -8 208.882 187.545   1
  -2   8   8 52.3361 132.626   5
   2   8  -8 401.263 313.831  12
   2  -8  -8-118.205 261.421  11
  -2   8   8 82.1162 192.279   2
  -2   8   8-37.3229 94.1974   4
  -2  -8   8-3.79688 77.6554   1
  -2   8   8 152.364 164.830  19
  -2  -8   8 120.049 216.796   8
   2  -8  -8-91.9057 202.072  18
  -2  -8   9 1184.03 394.448   6
  -2   8   9 196.527 145.293  17
  -2   8   9 986.213 339.541  16
  -2  -8   9 1051.99 448.947  16
  -2  -8   9 1112.47 404.816  14
   2   8  -9 338.120 278.945   3
   2  -8  -9 141.878 88.7415  14
   2  -8  -9 803.262 368.635   1
  -2   8   9 675.442 357.721   5
   2   8  -9-22.6635 62.0487  13
  -2  -8   9 661.858 323.875   1
  -2   8   9 1164.55 490.351   2
  -2  -8   9 1339.43 495.883   8
  -2   8   9 648.511 275.728   4
   2  -8  -9 141.203 141.919  11
   2   8  -9 237.240 290.108  19
  -2   8   9 618.484 314.223  19
   2  -8  -9 121.047 169.818  18
   8   2 -10 362.562 306.656   3
  -2   8  10 114.280 175.318  17
  -2  -8  10 797.669 329.478   6
  -2  -8  10 711.415 353.223  16
  -2   8  10 707.246 307.814  16
  -8  -2  10-62.9043 169.135   6
  -8   2  10-63.3687 134.633   6
  -2  -8  10 710.942 320.640  14
   2  -8 -10 96.6184 77.4496  14
  -2  -8  10 41.3184 193.062   1
  -2   8  10 591.590 334.514   5
   2  -8 -10 613.308 330.141   1
   2   8 -10 128.622 105.904  13
  -2   8  10 869.383 456.593   2
  -2   8  10 587.552 277.414   4
   2  -8 -10-253.463 401.415  11
   2   8 -10 155.532 200.629  19
  -2   8  10 297.886 207.869  19
  -2  -8  10 1201.29 454.377   8
   2  -8 -10-215.226 340.618  18
   8  -2 -11 795.218 383.665   3
   8   2 -11 897.269 453.292   3
  -2  -8  11 598.846 285.433   6
  -2   8  11 230.347 271.242  17
  -2  -8  11 878.808 430.083  16
  -2   8  11 915.254 358.803  16
  -8  -2  11 47.8551 160.632   6
  -8   2  11-97.0555 143.223   6
  -2  -8  11 812.372 353.499  14
   2  -8 -11 24.8833 39.5444  14
   2   8 -11 1150.99 318.731  13
   8  -2 -11 384.307 165.911  13
  -2   8  11 735.320 372.258   5
   2  -8 -11 408.708 244.263   1
   8   2 -11 221.755 267.675  12
  -2   8  11 1070.62 494.976   2
  -2   8  11 626.364 270.892   4
   2   8 -11 96.1499 205.114  19
  -2   8  11 140.731 154.442  19
  -2  -8  11 1168.15 462.737   8
   8  -2 -11 480.458 310.243  18
  -8   2  12 128.826 360.367  17
   8  -2 -12 1442.68 602.956   3
   8   2 -12 1194.84 519.869   3
  -2  -8  12 936.522 317.645   6
  -2   8  12 573.804 361.845  17
  -2  -8  12 1951.09 670.028  16
  -2   8  12 1094.51 380.175  16
  -8   2  12 126.093 164.230   6
  -8  -2  12 320.441 256.064   6
  -2  -8  12 1139.26 444.131  14
   2  -8 -12 97.3471 82.4598  14
   8  -2 -12 863.662 335.241  13
  -2   8  12 1175.94 434.593   5
  -2   8  12 1104.32 345.703   4
   2  -8 -12 708.941 336.357   1
   8   2 -12 1109.17 464.501  12
   8   2 -12 572.350 72.3387  18
  -2   8  12 1347.41 507.343   2
   2   8 -12 93.8400 201.421  19
  -2  -8  12 2241.44 644.492   8
   8  -2 -12 1243.31 531.994  18
  -8  -2  13 125.697 213.401  17
   8   2 -13 394.758 218.183   4
   8  -2 -13 425.889 316.405   3
  -2  -8  13-42.5129 275.909   6
   8   2 -13 191.549 172.479   3
  -2   8  13-52.9682 142.818  17
  -2  -8  13 621.487 407.514  16
  -2   8  13 409.671 251.837  16
  -8   2  13 85.3485 160.908   6
  -8  -2  13 198.250 295.993   6
  -2  -8  13 158.673 47.8542  14
   2  -8 -13-31.0955 75.2447  14
   8  -2 -13 313.387 178.928  13
  -2   8  13 299.512 267.115   5
   8   2 -13 392.704 279.128  12
   2  -8 -13 149.094 213.233   1
  -8   2  13 132.775 323.705  17
  -2   8  13 541.513 402.039   2
   2   8 -13 249.723 302.871  19
  -2   8  13 368.431 210.904   4
  -2  -8  13 739.654 433.718   8
   8   2 -13 535.494 361.998  18
   8  -2 -13 566.260 400.014  18
  -8  -2  14 897.192 466.388  17
  -8   2  14 441.338 457.592  17
   8   2 -14 1591.04 606.299   3
  -2   8  14 335.385 320.820  17
  -2  -8  14 2356.48 765.365  16
  -2   8  14 1320.90 445.399  16
  -8   2  14 245.486 215.230   6
  -8  -2  14 580.311 382.701   6
  -2  -8  14 698.896 332.395  14
  -2   8  14 1500.64 513.954   5
   2  -8 -14 38.5524 42.3195  14
  -8  -2  14 588.724 274.069  14
   8   2 -14 49.2080 144.633  13
   8  -2 -14 873.577 386.931  13
  -2   8  14 1529.78 411.844   4
   8   2 -14 2374.09 536.408   4
   8   2 -14 1263.90 522.588  12
  -2   8  14 1821.59 634.178   2
   2  -8 -14 529.350 308.306   1
   8   2 -14 2459.17 688.060  18
   2   8 -14 194.900 228.885  19
  -2  -8  14 1910.67 662.631   8
   8  -2 -14 1912.07 662.416  18
   8  -2 -14 2043.60 689.640   3
  -8   2  15 211.204 476.713  17
  -8  -2  15 71.0098 232.924  17
   8  -2 -15 364.168 251.514   3
  -2   8  15 1.65237 115.321  17
   8   2 -15 441.356 327.205   3
  -8   2  15 221.968 255.772   6
   2   8 -15-33.2068 107.747  19
  -8  -2  15 185.564 265.875   6
  -2  -8  15 779.376 455.674  16
  -2   8  15 463.595 272.604  16
   2  -8 -15 18.5112 36.2744  14
  -8  -2  15 378.839 216.513  14
   8   2 -15 37.9887 135.626  13
   8  -2 -15 267.884 84.0992  13
  -2   8  15 573.812 327.492   5
   8   2 -15 316.450 188.446  12
   8  -2 -15 76.3139 369.131  12
  -2   8  15 477.793 394.317   2
  -2   8  15 419.292 205.260   4
   2  -8 -15 232.549 204.688   1
  -2  -8  15 814.653 475.613   8
   8   2 -15 832.983 435.154  18
   8  -2 -15 771.770 410.119  18
   8   2 -16 894.842 438.803  18
  -8  -2  16 994.752 487.936  17
  -8   2  16 386.430 387.010  17
   8  -2 -16 554.987 371.236   3
  -2   8  16 158.978 212.351  17
   8   2 -16 373.412 217.674   3
  -8   2  16 14.7942 107.815   6
  -8  -2  16 490.716 351.365   6
  -2  -8  16 750.596 460.046  16
  -2   8  16 359.194 265.548  16
   8   2 -16 255.386 225.254  13
   8  -2 -16 248.473 114.746  13
  -2   8  16 553.603 358.257   5
  -2   8  16 781.210 441.954   2
   8   2 -16 255.857 224.184  12
   8  -2 -16 309.374 107.386  12
   2   8 -16 151.384 192.069  19
  -2   8  16 549.198 238.851   4
   2  -8 -16 194.344 221.713   1
  -2  -8  16 801.714 456.753   8
   8  -2 -16 695.789 454.657  18
  -3   8   0-65.9465 173.596  17
  -3  -8   0 135.897 146.931   6
  -3  -8   0 253.298 161.598  14
  -3  -8   0 152.482 146.613   1
   3  -8   0 250.370 197.569   1
   3   8   0 391.380 245.651   5
   3  -8   0 174.523 91.0269   8
   3   8   0 373.618 315.765  19
   3   8   0 293.990 181.452   4
   3  -8   0 474.246 295.022  18
  -3  -8   1 797.790 427.761   8
  -3  -8   1 2588.61 624.637   6
   3  -8   1 1450.99 431.434  18
   3  -8  -1 2245.47 645.724   1
  -3  -8   1 2072.88 504.764  14
  -3  -8  -1 1288.43 410.078  14
  -3  -8   1 1817.92 512.584   1
  -3  -8  -1 780.046 250.294   6
   3   8  -1 2454.43 663.874   5
   3   8   1 1762.31 572.833   5
   3  -8   1 1337.93 470.358   1
   3   8  -1 2953.90 763.054   4
   3   8   1 2274.39 642.267   4
   3   8  -1 34.5777 326.479  12
   3   8  -1 2056.86 650.588  19
  -3   8   1 1189.02 565.482  17
   3  -8  -1 2211.06 525.546   8
   3  -8   1 484.311 268.393   8
   3  -8  -1 2967.74 719.552  18
   3   8   1 1585.24 627.595  19
  -3  -8  -1 952.953 369.861   1
  -3  -8   2-25.5650 197.540   8
  -3  -8   2 222.607 168.869   6
   3  -8   2-180.147 331.723   1
   3   8   2 67.3258 130.922  19
  -3  -8   2 102.220 129.998  14
  -3  -8  -2 56.4187 57.9160  14
  -3  -8  -2 29.2724 70.9797   1
   3   8  -2 32.6155 35.9444   5
   3   8   2-102.987 283.685   5
  -3  -8   2 127.016 155.973   1
   3  -8  -2 323.269 251.277   1
   3   8  -2-164.139 179.842  12
  -3   8   2 781.552 470.559  19
   3   8  -2 61.9026 193.158  19
   3  -8  -2 525.872 288.650   8
   3   8  -2 95.1180 100.549   4
   3  -8  -2 362.561 232.632  18
  -3  -8   3 583.479 367.012   8
  -3  -8   3 1625.53 494.512   6
   3   8  -3 127.363 60.1964   2
   3  -8  -3 1930.63 685.026   1
  -3  -8   3 1280.39 409.732  14
  -3  -8   3 1312.11 440.381   1
   3   8   3 815.555 463.021  19
  -3  -8  -3 335.239 221.645  14
   3   8  -3 1134.11 426.089   5
   3   8   3 454.413 157.939   5
   3   8  -3 352.498 199.357  12
  -3   8   3 1017.62 563.287  19
   3  -8  -3 2180.36 571.189   8
   3   8  -3 1379.69 500.362   4
   3   8  -3 780.245 346.428  19
   3  -8  -3 1855.40 690.192  18
  -3  -8  -3 118.030 149.943   1
  -3  -8   4 222.098 195.768   1
   3   8  -4-36.1757 94.5315   3
  -3  -8   4 352.260 242.727   6
   3  -8  -4-109.838 182.293  14
   3  -8  -4 869.903 480.587   8
  -3  -8   4 195.589 188.996  14
   3  -8  -4 306.456 302.142  13
   3   8  -4 284.259 252.983   5
  -3   8   4-146.068 85.9442  12
   3   8  -4 85.1596 145.327  19
   3   8  -4-20.9335 183.783  12
   3   8  -4 249.495 250.676   4
  -3   8   4 329.932 617.488  19
   3  -8  -4 427.780 340.411   1
   3  -8  -4 595.585 437.539  18
   3   8  -4 90.1633 56.7532   2
  -3  -8   4 176.599 172.017   8
  -3   8   4 884.478 781.166  17
  -3   8   5 160.134 257.262  17
   3   8  -5-138.677 141.352   3
  -3  -8   5 106.692 154.071   6
  -3  -8   5 108.608 143.345  14
  -3   8   5-335.581 403.356   2
   3   8  -5-36.0937 121.652   5
   3  -8  -5-97.6650 162.934  13
   3   8  -5 64.5711 108.605  12
  -3  -8   5-31.3401 67.2869   1
   3   8  -5 4.28732 103.354   4
  -3   8   5 79.3512 162.550  19
   3   8  -5-77.1177 206.419  19
   3  -8  -5-77.5566 83.5363   8
   3  -8  -5-84.0819 178.523   1
   3  -8  -5 35.6314 32.1451  18
  -3  -8   5-25.4344 108.577   8
  -3   8   6 156.542 253.852  17
  -3   8   6 231.548 208.371  19
   3   8  -6-10.2080 113.833   3
  -3  -8   6 582.604 289.900   6
   3   8  -6 386.982 307.830   4
   3  -8  -6-8.05774 120.986  14
  -3   8   6-147.855 330.363   5
  -3  -8   6 469.976 234.474  14
  -3  -8   6 716.221 334.555   1
   3   8  -6 335.497 259.613   5
  -3   8   6 217.771 225.123   2
   3  -8  -6 833.297 270.765  13
   3   8  -6 76.6754 87.1233  12
   3  -8  -6 1023.18 550.423  11
   3   8  -6 163.071 22.8558  19
   3  -8  -6 465.938 246.021   8
   3  -8  -6 482.769 326.019   1
   3  -8  -6 417.822 288.551  18
  -3  -8   6 459.741 325.305   8
   3  -8  -7-7.67483 42.1794   1
  -3   8   7 18.3577 153.263  17
  -3  -8   7 69.4127 122.722   6
   3   8  -7-69.0926 112.837   3
  -3  -8   7 44.9523 154.989   1
   3  -8  -7-164.476 129.090  14
   3   8  -7 6.39340 68.4958  19
  -3  -8   7 15.2146 80.7598  14
  -3   8   7-518.362 307.841   5
   3   8  -7 6.34515 78.7466   5
  -3   8   7 168.498 197.709   2
   3  -8  -7 26.2302 50.1077  13
   3   8  -7 3.95457 80.3093  12
   3  -8  -7 348.018 391.831  11
   3   8  -7-25.4052 98.3346   4
  -3   8   7-59.0650 82.5225  19
  -3  -8   7-63.2773 169.427   8
   3  -8  -7-23.2508 109.134   8
   3  -8  -7-10.9322 60.0694  18
  -3  -8   8 1946.99 530.620   6
  -3   8   8 644.837 416.717  17
   3  -8  -8 1349.97 456.784   1
  -3  -8   8 2522.81 589.526   1
   3   8  -8 301.122 227.302   3
  -3  -8   8 1517.97 454.368  14
   3  -8  -8 23.4535 41.6426  14
  -3   8   8 317.052 152.711   5
   3   8  -8 713.455 383.001   5
   3  -8  -8 2264.15 538.632  13
  -3   8   8 1264.66 550.835   2
   3   8  -8 582.815 271.820  12
   3   8  -8 743.126 350.275   4
   3  -8  -8 1401.36 578.667  11
   3   8  -8 898.303 369.733  19
  -3   8   8 1037.74 394.904  19
   3  -8  -8 667.846 244.130   3
  -3  -8   8 1463.44 510.361   8
   3  -8  -8 1131.85 479.440  18
   3  -8  -8 977.446 363.890   8
   3   8  -9 65.0497 146.261  19
   3  -8  -9-9.23150 243.397   8
  -3   8   9 85.3861 179.607  17
   3  -8  -9 277.213 142.794   3
   3  -8  -9 220.827 247.364   1
  -3  -8   9 147.108 171.659   6
  -3  -8   9 142.645 84.8809  16
  -3   8   9 126.918 134.037  16
   3   8  -9-15.8826 119.477   3
   3  -8  -9-25.8271 90.7960  14
  -3  -8   9 321.653 214.517  14
   3   8  -9-541.009 325.622   5
  -3   8   9 190.729 184.343   5
   3  -8  -9 575.602 362.682  13
  -3  -8   9 177.584 139.563   1
  -3   8   9 448.262 416.649   2
   3   8  -9 101.535 132.335  12
   3   8  -9-139.396 318.248   4
   3  -8  -9 28.9262 135.647  11
  -3   8   9-42.9087 170.167  19
  -3  -8   9 100.969 151.779   8
   3  -8  -9-7.28068 98.3922  18
   8   3 -10 407.852 322.847   3
  -3   8  10 211.741 210.731  17
   8  -3 -10 40.4986 410.565  18
  -3  -8  10 733.839 328.193   6
  -3  -8  10 556.322 331.398  16
  -3   8  10 370.676 234.773  16
   3  -8 -10 377.193 253.083   1
   3  -8 -10 763.618 245.156   3
   3   8 -10 251.455 213.932   3
  -8  -3  10 40.4802 173.315   6
  -8   3  10-45.9248 125.944   6
   3  -8 -10-3.16393 44.5311  14
  -3  -8  10 701.405 323.367  14
  -3   8  10 364.798 287.404   5
   3   8 -10-147.172 130.021  13
  -3   8  10 675.046 439.036   2
   3   8 -10 573.228 329.118  12
  -3  -8  10 394.816 186.029   1
   3  -8 -10 268.028 273.960  11
   3   8 -10 365.640 298.408  19
  -3   8  10 258.925 157.406  19
  -3  -8  10 671.652 376.596   8
   3  -8 -10 297.671 226.661  18
  -8   3  11 480.090 463.959  17
   8   3 -11 1431.37 597.654   3
  -3  -8  11 1674.20 509.894   6
  -3   8  11 217.839 219.843  17
  -3  -8  11 1581.36 639.096  16
  -3   8  11 1187.06 448.658  16
   3  -8 -11 832.360 393.411   1
  -8  -3  11 275.663 339.168   6
  -3  -8  11 1747.83 501.398  14
  -8   3  11 35.0052 87.5346   6
   3   8 -11 235.361 242.837   3
   3   8 -11 408.165 321.563  19
   3  -8 -11-5.77116 52.1585  14
  -3   8  11 977.089 427.001   5
  -3  -8  11 215.635 156.815   1
   8  -3 -11 779.936 285.086  13
   3   8 -11-89.1711 114.060  13
   3   8 -11 405.513 369.097  12
  -3   8  11 1351.51 534.548   2
   8   3 -11 845.201 363.601  12
   3  -8 -11 1077.86 463.585  11
  -3   8  11 594.549 312.569  19
   8  -3 -11 897.247 462.034  18
  -3  -8  11 1969.52 622.370   8
   3  -8 -11 2016.87 400.767   3
   3  -8 -11 518.503 297.879  18
  -8   3  12-148.878 305.252  17
   8  -3 -12 339.140 151.643   3
   8   3 -12 263.528 245.487   3
  -3   8  12 53.1724 37.2015  17
  -3  -8  12 378.343 228.934   6
  -3  -8  12 473.137 392.768  16
  -3   8  12 367.853 268.065  16
   8   3 -12 201.321 222.306   4
   3   8 -12 14.9951 93.5921  19
  -8   3  12-42.7632 55.3923   6
  -8  -3  12 213.322 272.964   6
   3  -8 -12 576.565 265.057   3
   3  -8 -12 289.705 255.317   1
   3   8 -12 430.176 337.950   3
   3  -8 -12-14.9804 70.8379  14
  -3  -8  12 340.425 211.488  14
  -3   8  12 358.941 259.196   5
   8  -3 -12 154.355 78.8967  13
   3   8 -12-58.9885 84.4898  13
   3   8 -12 692.698 456.818  12
   8   3 -12-232.319 443.831  18
  -3   8  12 384.919 325.767   2
  -3   8  12-121.133 244.561   4
   8   3 -12 303.808 163.971  12
   3  -8 -12-149.485 375.857  11
  -3   8  12 54.9078 227.960  19
   8  -3 -12 589.226 414.663  18
  -3  -8  12 542.903 330.165   8
   3  -8 -12-144.864 393.806  18
  -8  -3  13 367.406 265.853  17
  -8   3  13 356.578 389.746  17
  -3  -8  13 2203.84 625.966   6
  -3   8  13 1128.38 501.500  17
  -3  -8  13 2184.23 798.139  16
  -3   8  13 1694.24 535.040  16
  -8   3  13 61.1525 144.695   6
  -8  -3  13 542.606 355.138   6
  -3  -8  13 2305.10 644.415  14
   3  -8 -13-22.2295 54.2882  14
   3  -8 -13 1022.62 424.531   1
   3   8 -13 765.293 432.107   3
  -3   8  13 1474.28 509.989   5
  -8  -3  13 366.608 199.443  14
   8  -3 -13 2049.90 647.837  13
   3   8 -13-160.748 159.881  13
   8   3 -13 1772.85 645.397  12
  -3   8  13 2018.18 691.021   2
   8   3 -13 3061.32 700.878   4
  -3   8  13 813.091 228.678   4
   3  -8 -13-90.0996 414.300  11
  -3  -8  13 2661.93 721.177   8
   3   8 -13 105.720 99.1771  19
   8   3 -13 2226.00 602.375  18
   8  -3 -13 2337.21 771.116  18
   8  -3 -13 2439.67 774.040   3
   8   3 -13 1750.83 671.116   3
  -8  -3  14 220.132 254.163  17
  -8   3  14-64.9858 86.3674  17
   8  -3 -14 294.230 249.258   3
  -3  -8  14 16.7133 238.300   6
  -3   8  14 77.1528 183.984  17
   8   3 -14 225.078 145.051   3
  -3  -8  14 342.057 291.907  16
  -8   3  14 32.8726 125.542   6
  -3   8  14 329.340 233.368  16
  -8  -3  14 279.999 246.111   6
   3  -8 -14-26.6622 77.4979  14
  -3  -8  14 190.836 155.446  14
   3  -8 -14 212.685 198.199   1
  -8  -3  14 205.899 214.228  14
  -3   8  14 134.548 164.773   5
   8  -3 -14 248.516 156.527  13
   3   8 -14 313.153 212.727  13
  -3   8  14 413.325 343.853   2
   8   3 -14-71.5661 230.979  12
  -3   8  14 38.7121 115.082   4
   3   8 -14 112.149 151.611  19
   8   3 -14 530.362 248.942   4
  -3  -8  14 128.243 264.601   8
   8   3 -14 306.962 241.850  18
   8  -3 -14 492.043 387.076  18
  -8  -3  15 1919.32 616.267  17
  -8   3  15 614.337 405.260  17
  -3  -8  15 956.521 346.264   6
  -3   8  15 498.040 302.650  17
   8   3 -15 1060.97 472.359   3
  -8   3  15-16.5660 136.404   6
  -3  -8  15 1763.30 668.316  16
  -8  -3  15 524.476 348.625   6
  -3   8  15 1463.64 529.925  16
  -3  -8  15 760.173 352.793  14
   3  -8 -15-27.4014 74.8456  14
   3  -8 -15 427.970 290.825   1
  -8  -3  15 760.787 274.770  14
  -3   8  15 937.428 408.386   5
   8   3 -15-3.31919 147.300  13
   8  -3 -15 1250.15 468.546  13
   3   8 -15 1272.95 434.246  13
   8   3 -15 1870.41 531.752   4
   8   3 -15 1027.87 498.850  12
  -3   8  15 1678.37 646.382   2
  -3   8  15 786.189 257.162   4
   3   8 -15 20.6414 165.957  19
  -3  -8  15 2039.65 653.627   8
   8   3 -15 1975.18 577.997  18
   8  -3 -15 1618.77 591.539  18
   8  -3 -15 1755.79 621.076   3
  -8  -3  16 254.904 196.639  17
  -8   3  16-47.2574 134.479  17
   8  -3 -16 240.532 199.810   3
  -3   8  16 36.2381 104.399  17
   8   3 -16 205.037 185.434   3
  -8   3  16 68.2832 97.0139   6
  -8  -3  16 175.936 148.686   6
  -3   8  16 440.334 333.992  16
  -3  -8  16 27.5410 226.397  14
  -8  -3  16 251.348 196.718  14
   3  -8 -16 125.630 173.598   1
  -3   8  16 343.311 282.081   5
   8   3 -16 11.0713 86.4163  13
   8  -3 -16 225.563 210.293  13
   8   3 -16 198.640 141.006  12
   8  -3 -16-68.1614 356.537  12
   3   8 -16 152.218 214.711  19
   8   3 -16 489.280 268.591  18
   8  -3 -16 407.421 301.937  18
  -4  -8   0 397.348 223.750   1
   4  -8   0 532.716 225.437   1
  -4  -8   0 893.417 333.304  14
   4   8   0 1393.57 480.569   5
   4   8   0 1686.72 692.922  19
   4  -8   0 859.810 78.5693  18
  -4  -8   1-18.3741 86.5577   6
   4  -8  -1-387.294 290.886   1
  -4  -8   1 17.0902 87.3522  14
   4   8  -1-124.818 239.157   5
  -4  -8   1 26.4194 92.4955   1
   4   8  -1-9.56727 102.222  19
   4  -8  -1-138.013 259.382  18
   4   8  -1-241.733 471.354   4
  -4   8   2 72.9424 188.584  17
  -4  -8   2 140.408 234.980   8
  -4  -8   2 1270.85 455.959  14
  -4  -8   2 1160.42 484.640   6
   4   8  -2 1905.04 607.917   5
   4  -8  -2 1059.29 446.501   1
   4   8  -2 2015.22 641.213   4
   4  -8  -2 955.578 248.607   8
   4   8  -2 1614.25 583.266  19
   4  -8  -2 1696.77 569.412  18
  -4  -8   2 774.996 327.758   1
  -4   8   3-85.4580 228.883  17
  -4  -8   3-107.719 306.344   8
  -4  -8   3 53.0193 114.389   6
  -4  -8   3-42.1900 87.7830   1
  -4  -8   3 74.6093 116.778  14
   4  -8  -3-131.448 163.693   1
   4   8  -3 36.0327 79.5892   5
   4   8  -3-451.621 323.233  12
   4  -8  -3-75.4182 127.770   8
   4   8  -3-75.6343 74.9266  19
   4   8  -3-33.1763 23.9680   4
   4  -8  -3 120.167 275.686  18
  -4   8   4 331.069 334.465  17
  -4  -8   4 64.6652 113.838   8
  -4  -8   4 264.341 220.726   1
  -4  -8   4 331.020 223.632   6
  -4  -8   4 288.305 191.958  14
   4   8  -4 632.165 452.411   5
   4  -8  -4 195.382 184.259   1
   4   8  -4 34.3983 107.662  12
  -4   8   4-236.000 292.995  19
   4   8  -4 873.818 513.847   4
   4  -8  -4 248.789 126.289   8
   4   8  -4 996.796 520.449  19
   4  -8  -4 359.739 293.161  18
  -4  -8   5-72.0530 220.183   8
  -4   8   5 273.220 359.429  17
   4   8  -5-38.4163 100.861   3
  -4  -8   5 47.8867 107.908   6
  -4  -8   5 56.4296 117.263   1
  -4  -8   5 40.0749 88.9230  14
   4  -8  -5-161.804 237.839  13
   4   8  -5 305.008 343.602   5
   4  -8  -5 67.7373 100.256   1
   4   8  -5 21.3978 191.166  12
   4  -8  -5 15.4720 130.146   8
   4   8  -5 424.396 420.845   4
  -4   8   5-51.5503 84.5318  19
   4   8  -5 526.941 406.926  19
   4  -8  -5-27.4086 100.324  18
  -4  -8   6-62.9658 166.396   8
  -4   8   6 45.0867 169.414  17
  -4  -8   6 74.3074 152.529   1
   4   8  -6-192.178 183.086   3
  -4  -8   6-4.54776 132.631   6
  -4  -8   6 77.6173 126.093  14
   4  -8  -6 83.0516 101.135  13
   4   8  -6-76.2888 130.780   5
   4   8  -6-13.6954 118.346  12
   4  -8  -6 40.5697 104.928   1
  -4   8   6 110.188 172.636  19
   4   8  -6-84.2579 191.637  19
   4  -8  -6 83.0714 135.702   8
   4   8  -6 37.2991 162.446   4
   4  -8  -6 85.1104 226.903  18
  -4   8   7 46.9574 56.3039  17
   4  -8  -7 242.194 198.381   8
   4   8  -7 38.2606 82.4897   3
  -4  -8   7 326.879 245.995   6
  -4  -8   7 216.908 177.146  14
   4   8  -7 273.474 275.589   5
   4  -8  -7 425.427 210.372  13
   4   8  -7 56.3471 132.328  12
  -4  -8   7 426.241 237.263   1
   4  -8  -7 118.452 183.212   1
   4   8  -7 223.942 259.120   4
  -4   8   7 58.1858 143.465  19
   4   8  -7 47.6634 103.167  19
   4  -8  -7 210.558 225.499  18
  -4  -8   7 212.963 244.227   8
  -4   8   8 105.408 202.751  17
   4   8  -8-6.44600 109.350   3
  -4  -8   8 36.5168 97.9819   6
   4  -8  -8 50.4094 155.397   1
  -4  -8   8 99.8182 126.809   1
  -4  -8   8 26.9367 156.807  14
  -4   8   8-159.953 332.764   2
   4   8  -8 85.1719 156.817   5
   4  -8  -8-45.4985 121.631  13
   4   8  -8 35.7661 116.765  12
   4   8  -8 78.0424 230.723   4
  -4   8   8 26.4060 127.020  19
   4  -8  -8-16.6089 44.0295   8
   4   8  -8-199.736 172.540  19
   4  -8  -8 59.1927 214.340  18
  -4  -8   8-312.307 254.874   8
   4  -8  -9-6.57727 203.053   3
  -4   8   9 178.935 301.516  17
  -4  -8   9 174.469 152.715   1
   4   8  -9-72.4521 137.074   3
  -4  -8   9 135.941 146.895   6
  -8  -4   9-4.09394 134.914   6
  -4  -8   9 224.673 222.871  14
   4   8  -9 150.849 223.698   5
  -4   8   9 194.318 266.525   2
   4  -8  -9 209.740 168.981  13
   4   8  -9-0.90816 51.6005  12
   4  -8  -9 374.821 344.847  11
   4   8  -9 151.335 258.861   4
  -4   8   9 89.7067 90.5804  19
   4   8  -9 110.091 131.193  19
   4  -8  -9 53.7143 67.6129   1
   8  -4  -9-305.554 554.981  18
   4  -8  -9 280.394 252.055  18
  -4  -8   9 38.4750 102.219   8
   4  -8  -9 109.140 58.8135   8
   8   4 -10 413.736 295.961   3
   4  -8 -10 211.750 166.892   8
   4  -8 -10 787.716 290.519   3
  -4   8  10 127.919 275.705  17
  -4  -8  10 1242.32 467.960   6
   4   8 -10 104.326 99.5893   3
  -8  -4  10 96.4358 211.411   6
  -8   4  10-40.2416 94.7418   6
  -4  -8  10 880.682 355.755  14
   4   8 -10 499.555 318.509   5
   4   8 -10 345.001 278.227  19
  -4   8  10 695.888 415.001   2
   4  -8 -10 1102.14 404.223  13
   4   8 -10 288.452 227.768  12
   8   4 -10 208.934 320.443  12
   4   8 -10 390.308 233.632   4
   4  -8 -10 1078.76 527.279  11
  -4   8  10 370.307 190.727  19
   4  -8 -10 525.254 314.584   1
  -4  -8  10 1132.12 368.135   1
   4  -8 -10 745.601 403.647  18
  -4  -8  10 653.630 355.078   8
   8  -4 -10 563.820 331.987  18
  -8   4  11 625.147 525.837  17
   8   4 -11-63.5208 215.722   3
  -4   8  11 10.9346 122.686  17
   4  -8 -11 128.865 44.2468   3
  -4  -8  11 126.490 140.849   6
  -4  -8  11 0.37330 57.3132  16
  -4   8  11 144.259 166.281  16
   4   8 -11 130.745 219.415   3
  -8  -4  11 289.800 308.190   6
  -8   4  11 79.0591 148.335   6
  -4  -8  11 192.149 178.378  14
  -4   8  11-218.217 392.874   5
   4   8 -11-247.370 398.771   5
   8  -4 -11-203.301 413.816  13
  -4   8  11 396.262 358.981   2
   4  -8 -11 388.735 260.168  13
   4   8 -11 190.695 220.500  12
   4   8 -11-251.825 459.622   4
   8   4 -11-332.979 372.171  12
  -4  -8  11 52.5632 70.6039   1
   4  -8 -11 51.9995 168.016  11
   4   8 -11 78.0218 118.174  19
  -4   8  11 42.5759 127.520  19
   8  -4 -11 549.432 419.407  18
   8   4 -11-404.894 546.484   4
  -4  -8  11 73.5901 104.595   8
   4  -8 -11 73.0000 114.356   1
   4  -8 -11 15.5487 182.301  18
   4  -8 -12 1086.02 450.347   1
  -8   4  12 177.995 347.049  17
  -4  -8  12 2519.74 701.279   6
   8   4 -12 1360.99 592.884   3
  -4   8  12 248.771 253.664  17
  -4  -8  12 1078.27 518.860  16
  -4   8  12 1199.31 452.335  16
  -8   4  12 40.2505 76.1091   6
  -8  -4  12 448.530 337.299   6
   4   8 -12 397.322 286.361   3
  -4  -8  12 2773.86 651.514  14
  -4   8  12 13.8300 313.617   5
  -8  -4  12 324.719 241.787  14
   8  -4 -12 1726.28 567.632  13
   4  -8 -12 3072.87 656.624  13
  -4  -8  12 290.822 162.737   1
  -4   8  12 1926.90 682.752   2
   8   4 -12 1466.62 646.260  12
   4   8 -12 514.856 283.577  12
   8   4 -12 2124.72 630.891   4
   4  -8 -12 1405.46 631.890  11
   4   8 -12 633.929 343.947  19
  -4   8  12 609.555 309.361  19
   8  -4 -12 2303.60 753.029  18
   8  -4 -12 2080.04 728.402   3
  -4  -8  12 1456.08 537.895   8
   4  -8 -12 2847.10 570.164   3
   4  -8 -12 1227.78 536.884  18
  -8  -4  13 492.097 307.491  17
   8  -4 -13-70.0395 247.763   3
   4  -8 -13 163.399 169.136   1
  -4   8  13-182.615 228.701  17
   8   4 -13-36.3729 171.766   3
  -4  -8  13-168.154 238.115   6
  -4  -8  13 57.3342 61.2562  16
  -4   8  13-9.68436 69.5680  16
   4  -8 -13-152.722 177.059   3
  -8   4  13 88.9633 143.460   6
  -8  -4  13 55.8843 198.705   6
   4   8 -13-133.585 186.582   3
  -4  -8  13-43.7292 95.7607  14
  -8   4  13 291.110 330.663  17
   8   4 -13 49.2220 225.079   4
  -8  -4  13-60.2630 10.2149  14
   8  -4 -13-12.1910 155.202  13
   4   8 -13-260.681 181.448  13
   4  -8 -13 353.728 315.767  13
  -4   8  13 21.4299 52.0543   2
   4   8 -13 175.605 212.091  12
   8  -4 -13 49.6294 35.2012  18
   8   4 -13-39.2789 182.308  12
   4  -8 -13 61.0063 65.2028  11
  -4   8  13-88.4842 282.862  19
   4   8 -13-28.7521 20.8356  19
   8   4 -13-24.1033 151.744  18
  -4  -8  13-24.5846 159.116   8
   4  -8 -13 9.80829 78.3501  18
  -8  -4  14 1905.60 562.008  17
  -4  -8  14 2715.42 735.790   6
   4  -8 -14 856.129 396.010   1
  -4   8  14 1459.59 691.863  17
   8   4 -14 1605.85 600.659   3
  -4  -8  14 2380.62 887.059  16
  -4   8  14 1775.09 611.750  16
  -8   4  14 64.3960 136.774   6
  -8  -4  14 1086.46 525.438   6
  -4  -8  14 2510.38 648.768  14
   4   8 -14 601.116 397.412   3
  -4   8  14 438.366 218.725   5
  -8  -4  14 1212.53 412.408  14
   8  -4 -14 2215.93 632.821  13
   4   8 -14 541.744 327.534  13
   4   8 -14 2475.47 749.802  12
  -4   8  14 2252.02 762.727   2
   8   4 -14 3054.98 743.789   4
   8   4 -14 1206.02 544.576  12
   8  -4 -14 2581.88 833.875  18
   4  -8 -14 822.145 415.967  11
  -8   4  14 409.828 483.972  17
   4   8 -14 926.365 470.850  19
   8   4 -14 2650.52 657.750  18
   8  -4 -14 2274.82 731.031   3
  -4  -8  14 2235.92 656.638   8
   4  -8 -14 2780.48 521.182   3
   4  -8 -14 438.327 193.913  18
  -8  -4  15 459.525 308.961  17
  -8   4  15 133.877 259.516  17
   8  -4 -15-49.5616 168.874   3
  -4   8  15-327.987 413.083  17
   4  -8 -15-28.5874 54.4517   1
  -4  -8  15 83.1691 144.256   6
   8   4 -15-33.5663 108.756   3
  -8   4  15 67.0177 150.615   6
  -4  -8  15 61.2446 238.208  16
  -4   8  15-40.9104 169.887  16
  -8  -4  15 126.072 241.435   6
   4  -8 -15 41.1549 130.115   3
   4   8 -15 83.9880 229.895   3
  -4  -8  15 105.805 148.277  14
  -4   8  15 58.1148 22.8943   5
  -8  -4  15 128.108 196.753  14
   8  -4 -15 80.0567 62.9975  13
   4   8 -15-28.1166 37.1097  13
  -4   8  15-162.301 186.581   2
   4   8 -15 584.774 399.286  12
   8   4 -15 40.7550 48.0214  12
   8   4 -15 176.026 216.696   4
   4   8 -15 110.946 255.335  19
  -4  -8  15 40.8346 169.671   8
   8  -4 -15 46.0375 122.757  18
   5   8  -2 94.2738 260.986  19
   5  -8  -2 111.412 336.159  18
  -5   8   3 63.4314 268.776  17
  -5  -8   3 158.200 191.735   1
  -5  -8   3 103.622 108.580   6
   5  -8  -3-114.234 359.389   1
  -5  -8   3 52.6633 104.428  14
   5   8  -3 34.4029 203.672   5
   5   8  -3 189.442 213.258  19
   5  -8  -3 348.656 284.972  18
   5   8  -3-189.583 432.667   4
  -5   8   4-40.0011 105.648  17
  -5  -8   4 2.84754 133.002   1
  -5  -8   4 79.0547 172.847   6
   5  -8  -4-26.0548 211.027   1
  -5  -8   4 106.120 185.520  14
   5   8  -4-34.4385 138.096   5
   5  -8  -4-265.344 358.991   8
   5   8  -4-36.6602 163.870  19
   5   8  -4 60.6220 122.723   4
   5  -8  -4 181.759 306.329  18
  -5   8   5 24.5485 40.3488  17
   5  -8  -5-94.9722 172.432   8
  -5  -8   5-32.2837 94.1937   6
   5  -8  -5-160.851 187.866   1
  -5  -8   5 40.0123 75.1551  14
  -5  -8   5 66.2167 131.899   1
   5   8  -5 83.3360 95.2497   5
   5   8  -5-349.708 294.824  12
   5   8  -5-28.2555 171.988  19
   5   8  -5 68.7295 224.560   4
   5  -8  -5 223.400 272.363  18
   5   8  -6-288.760 247.117   3
  -5   8   6 545.485 510.805  17
  -5  -8   6-65.0575 224.053   8
  -5  -8   6-33.4962 68.5579   6
  -5  -8   6 125.936 130.862  14
   5  -8  -6-27.2321 161.445   1
   5   8  -6 118.141 167.241   5
   5   8  -6 123.272 191.556  12
  -5   8   6-136.813 254.954  19
   5  -8  -6 106.737 154.843   8
   5   8  -6 209.989 249.842   4
   5   8  -6-31.6698 101.215  19
  -5  -8   6 166.746 160.950   1
   5  -8  -6 73.8397 178.442  18
  -5  -8   7-35.4712 160.075   8
  -5   8   7 172.288 360.847  17
   5   8  -7-42.8464 138.015   3
  -5  -8   7 99.5430 181.865   6
  -5  -8   7 102.132 184.342   1
  -5  -8   7 62.6765 103.840  14
   5  -8  -7-44.4173 197.048  13
   5   8  -7 86.4314 104.168   5
   5  -8  -7 39.8033 132.670   1
   5   8  -7-43.1408 114.038  12
  -5   8   7 7.72649 90.7108  19
   5   8  -7-148.837 209.359  19
   5   8  -7 62.2766 127.783   4
   5  -8  -7 92.5671 127.119   8
   5  -8  -7 257.654 291.349  18
  -5  -8   8-44.9128 215.559   8
  -5   8   8 146.286 285.120  17
   5   8  -8 32.8570 20.8341   3
  -5  -8   8 60.3481 140.800   6
  -5  -8   8 44.5623 123.098  14
   5  -8  -8-9.11649 58.2700  13
   5   8  -8 108.318 219.251   5
   5  -8  -8 24.6999 35.6478   1
   5   8  -8 65.9583 156.661  12
  -5   8   8 210.589 249.078  19
   5   8  -8 91.6753 267.728   4
   5   8  -8 13.9622 97.7648  19
   5  -8  -8 149.398 204.874   8
   5  -8  -8 78.3910 168.511  18
  -5  -8   8 41.5804 127.430   1
   8  -5  -8-601.329 612.613  18
  -5  -8   9-64.4481 249.396   8
  -5   8   9-423.111 341.917  17
   5   8  -9-89.6214 178.290   3
  -5  -8   9 78.3686 42.2256   6
  -8  -5   9-115.116 122.091   6
  -5  -8   9 92.7503 101.276  14
   5   8  -9 140.034 254.737   5
   5  -8  -9 45.6897 93.6425  13
  -5  -8   9 10.2281 81.1338   1
   5  -8  -9 38.1360 41.2511   1
   5   8  -9 127.242 147.292  12
   5   8  -9-16.8386 233.130   4
  -5   8   9 24.7846 145.427  19
   5   8  -9-148.609 173.184  19
   8  -5  -9-186.547 432.144  18
   5  -8  -9 105.869 144.728   8
   5  -8  -9 58.1686 209.528  18
  -5  -8  10-31.7690 81.4941   8
  -8   5  10 442.966 439.721  17
   8   5 -10-59.5124 220.788   3
  -5   8  10-102.181 267.923  17
   5   8 -10 15.4639 122.784   3
  -5  -8  10 165.451 179.435   6
  -8  -5  10-130.643 184.883   6
  -5  -8  10 33.1500 157.126   1
  -8   5  10 13.4052 72.7631   6
  -5  -8  10 133.057 226.004  14
   5   8 -10 133.725 220.180   5
   5  -8 -10 18.6276 60.1875  13
   5   8 -10 40.4201 86.3578  12
   5  -8 -10 42.3033 126.546   1
   8   5 -10-508.693 384.667  12
   5  -8 -10 987.150 712.876  11
   5   8 -10 96.9010 138.828   4
  -5   8  10 109.667 210.129  19
   5   8 -10-57.8634 153.896  19
   8  -5 -10 70.4185 165.117  18
   5  -8 -10-5.08895 115.290  18
   5  -8 -10-11.8596 129.340   8
  -8   5  11-117.152 353.569  17
   5  -8 -11 823.006 364.839   3
   8   5 -11 658.627 446.552   3
  -5  -8  11 1678.63 605.599   6
  -5   8  11 257.627 417.000  17
   5   8 -11 402.985 282.678   3
  -5  -8  11 1584.81 435.075   1
  -8  -5  11 432.314 321.879   6
  -8   5  11 76.0969 175.003   6
  -5  -8  11 1433.30 486.048  14
   8  -5 -11 994.261 564.709  18
   5   8 -11 1051.93 473.205   5
  -5   8  11 418.891 130.894   2
   5  -8 -11 2010.91 514.061  13
   8  -5 -11 837.264 271.816  13
   5   8 -11 351.638 232.595  12
   8   5 -11 505.454 414.846  12
   5  -8 -11 2057.18 857.132  11
   5  -8 -11 496.235 283.225   1
   5   8 -11 1102.64 552.719   4
  -5   8  11 545.744 248.682  19
   5   8 -11 463.342 246.556  19
   8   5 -11 1069.56 421.439   4
   5  -8 -11 1204.77 516.092  18
  -5  -8  11 860.433 438.576   8
  -8   5  12 194.610 204.089  17
   8   5 -12-152.102 200.907   3
  -5   8  12-176.421 264.005  17
   5  -8 -12 66.3176 117.716   3
  -5  -8  12 108.613 174.775   6
   5   8 -12 103.104 109.119   3
  -8   5  12 5.16292 59.4577   6
  -8  -5  12 178.729 237.494   6
  -5  -8  12 99.6466 65.0561  14
   5   8 -12-205.701 393.168   5
  -8  -5  12-56.1034 140.774  14
  -5   8  12-13.3234 232.681   2
   8  -5 -12-163.069 249.429  13
   5  -8 -12-70.8039 109.462  13
   8   5 -12-187.252 292.587   5
   5   8 -12-0.80972 76.9812  12
   8   5 -12-8.55057 132.295  12
   5   8 -12-285.600 398.283   4
   5  -8 -12 247.427 286.177  11
   5  -8 -12 15.9261 117.807   1
  -5  -8  12-18.1863 121.285   1
  -5   8  12-132.189 266.278  19
   5   8 -12 37.5416 73.5896  19
   8   5 -12-31.8999 97.2429   4
   8  -5 -12 255.294 313.454  18
   5  -8 -12 32.1507 238.222  18
  -5  -8  12-10.7570 182.388   8
  -8  -5  13 271.641 150.346  17
   8  -5 -13 1130.94 486.013   3
  -8   5  13 1379.92 766.471  17
   8   5 -13 1067.67 483.099   3
   5   8 -13 399.717 287.682  19
  -5  -8  13 1962.92 618.408   6
  -8   5  13 20.7351 58.0256   6
   5   8 -13 423.472 338.070   3
  -8  -5  13 719.964 451.341   6
  -5  -8  13 1785.92 514.119  14
  -8  -5  13 635.200 343.154  14
  -5   8  13 2258.31 883.025   2
   8  -5 -13 1767.10 572.701  13
  -5  -8  13 147.185 96.1464   1
   5  -8 -13 2410.90 601.374  13
   5   8 -13 291.439 304.094  12
   8   5 -13 2089.44 684.449   4
   8   5 -13 901.927 510.866  12
   5  -8 -13 1895.69 752.391  11
  -5   8  13 2289.44 654.170  19
   5  -8 -13 972.000 471.672   1
   8  -5 -13 1656.82 726.838  18
   5  -8 -13 2163.60 550.981   3
   5  -8 -13 843.536 480.236  18
  -5  -8  13 787.074 377.966   8
   8  -5 -14-92.1066 274.485   3
  -8   5  14 742.820 560.519  17
  -5   8  14-229.175 358.939  17
   8   5 -14-19.7126 134.999   3
   5  -8 -14-8.96894 103.943   3
  -5  -8  14-95.9568 126.149   6
  -5  -8  14 59.6310 133.336  16
  -5   8  14 38.8021 118.156  16
  -8   5  14 4.81599 123.627   6
  -8  -5  14-79.1784 123.309   6
   5   8 -14-42.6100 152.744   3
  -5  -8  14-49.7785 198.663  14
  -8  -5  14 110.732 186.461  14
   5   8 -14-181.705 183.838  13
  -5   8  14-94.0764 211.693   2
   8  -5 -14-115.336 252.163  13
   5  -8 -14 100.411 162.323  13
   5   8 -14-74.0432 175.775  12
   8   5 -14 6.43417 78.8174  12
   8   5 -14 95.0993 138.002   4
   5  -8 -14-196.821 396.205  11
   5   8 -14-42.1968 89.3148  19
   5  -8 -14-1.17872 67.5708   1
   8  -5 -14 83.4515 142.248  18
  -5  -8  14-132.970 108.171   8
   5  -8 -14-9.87111 103.837  18
   6  -8  -3-88.9233 526.751  18
   6  -8  -4-110.956 189.650  18
  -6   8   5 101.815 256.971  17
  -6  -8   5 128.912 189.058   6
   6   8  -5-64.6700 444.447   4
  -6  -8   5 120.297 213.133  14
   6   8  -5-138.520 337.590   5
   6   8  -5-241.401 257.538  19
   6  -8  -5 309.956 297.088  18
  -6   8   6-661.300 454.100  17
  -6  -8   6 160.309 288.734   6
  -6  -8   6-27.3774 101.775   1
  -6  -8   6 200.071 249.058  14
   6   8  -6 114.206 73.0554   5
   6   8  -6-460.874 362.510  12
   6  -8  -6-372.859 436.926   8
   6   8  -6-57.5407 211.295  19
   6  -8  -6 252.654 346.666  18
   6   8  -6 155.949 236.739   4
  -6   8   7 251.783 337.243  17
  -6  -8   7 142.840 292.973   6
   6  -8  -7-114.737 333.855   1
  -6  -8   7 60.0130 67.7788  14
  -6  -8   7 60.5889 97.7671   1
   6   8  -7 121.577 180.678   5
   6   8  -7 37.0457 151.433  12
   6  -8  -7 82.1072 146.514   8
   6   8  -7 9.58832 165.432   4
   6   8  -7-254.651 252.503  19
   6  -8  -7 185.557 266.740  18
  -6   8   8 306.386 292.425  17
   6   8  -8-66.0922 171.012   3
   6   8  -8 75.5251 96.1168  19
  -6  -8   8 206.341 152.895   6
   6  -8  -8 181.124 229.577   1
  -6  -8   8 331.793 266.841  14
   6  -8  -8 198.460 201.528  13
   6   8  -8 272.738 262.478   5
   6  -8  -8 798.581 363.670   8
   6   8  -8 154.133 268.330  12
  -6   8   8-165.090 230.043  19
  -6  -8   8 112.118 56.8107   1
   6   8  -8 416.073 391.701   4
   8  -6  -8-243.133 354.587  18
  -8   6   9 524.407 512.197  17
  -6   8   9-169.289 201.164  17
  -6  -8   9-330.148 303.858   8
   6   8  -9 46.5381 74.2214   3
  -6  -8   9 287.062 214.609   6
  -6  -8   9 370.176 237.479   1
  -8  -6   9 41.1911 66.9593   6
  -6  -8   9 289.248 283.967  14
   6  -8  -9-41.2428 166.644   1
   6  -8  -9 349.269 129.868  13
   6   8  -9 169.706 175.951   5
   8  -6  -9 143.545 163.351  18
   6   8  -9 17.0921 89.0479  12
  -6   8   9 214.959 230.693  19
   6   8  -9 413.263 410.535   4
   6   8  -9 12.1388 155.274  19
   6  -8  -9 420.805 263.070   8
   6  -8  -9 582.559 430.068  18
  -8   6  10 178.285 368.633  17
   8   6 -10-75.5975 215.282   3
  -6  -8  10-44.1574 242.293   8
   8  -6 -10 340.094 372.587  18
   6   8 -10-53.3645 194.430   3
  -6  -8  10 180.859 211.953   1
  -6  -8  10 127.701 213.560   6
  -8  -6  10 42.8702 163.609   6
  -8   6  10-34.1476 92.2210   6
  -6  -8  10-13.3139 54.3724  14
   6  -8 -10-86.4926 184.543   1
   6   8 -10 112.427 275.287   5
   6  -8 -10-121.641 210.238  13
   6   8 -10-104.118 142.254  12
   8   6 -10-360.979 490.373  12
   6   8 -10-179.501 229.013   4
  -6   8  10-38.8217 132.275  19
   6   8 -10-68.0416 113.183  19
   8   6 -10-404.740 506.966   4
   6  -8 -10 40.7666 130.633  18
  -6   8  10 247.283 396.081  17
  -8   6  11 68.3345 296.180  17
  -6  -8  11-351.070 307.237   8
   8   6 -11 75.2936 95.6707   3
  -6   8  11 126.696 314.274  17
   6   8 -11-77.8572 255.604   3
  -6  -8  11 187.280 209.470   6
  -8   6  11 0.67680 10.4271   6
  -8  -6  11 153.432 183.818   6
  -6  -8  11 265.232 199.083   1
  -6  -8  11 96.5870 208.560  14
  -8  -6  11-18.8787 131.031  14
   6   8 -11 409.032 336.505   5
   6  -8 -11 335.680 211.342  13
   6  -8 -11 0.35704 71.7738   1
   8   6 -11-84.4652 297.747   5
   6   8 -11-12.5023 167.266  12
   8   6 -11-15.0762 269.697  12
   6   8 -11 320.250 305.653   4
  -6   8  11-1.03815 52.1917  19
   6   8 -11-15.0694 136.370  19
   8   6 -11 289.724 250.590   4
   8  -6 -11 112.948 160.733  18
   6  -8 -11 135.975 243.912  18
  -8   6  12 686.993 534.530  17
   8   6 -12 163.964 163.677   3
  -6  -8  12 950.956 359.244   1
   6   8 -12 178.148 187.092   3
  -6  -8  12 750.278 424.503   6
  -8   6  12 59.5232 129.079   6
  -8  -6  12 139.106 221.006   6
  -6  -8  12 671.021 359.200  14
   6   8 -12 691.531 411.964   5
  -8  -6  12 208.027 232.975  14
   8  -6 -12 301.575 124.734  13
  -6   8  12 391.864 186.165  19
   6  -8 -12 1121.15 522.037  13
   6  -8 -12 284.568 227.129   1
   8   6 -12 509.795 296.934   5
   6   8 -12 333.016 252.355  12
   8   6 -12 220.910 266.592  12
   6  -8 -12 1849.00 947.242  11
   6   8 -12 899.873 539.481   4
   8   6 -12 716.334 462.786   4
   6   8 -12 443.775 284.505  19
  -6  -8  12 69.5962 95.1885   8
   8  -6 -12 407.601 388.170  18
   6  -8 -12 462.414 384.347  18
  -6  -8  13 43.0115 142.980   8
   6  -8 -13 60.0739 150.676   3
  -8   6  13-417.500 377.666  17
  -6   8  13-267.959 361.249  17
   8   6 -13 249.465 273.859   3
   6   8 -13 8.06279 55.9459   3
  -6  -8  13 450.491 360.681   6
  -8  -6  13 175.729 311.706   6
  -6  -8  13 258.767 272.843  14
   6   8 -13-36.8415 243.710   5
  -8  -6  13 119.233 211.272  14
   8  -6 -13 535.576 324.315  13
   6  -8 -13 87.6382 162.529  13
   6  -8 -13 106.532 103.938   1
   6   8 -13-13.3961 150.011  12
   8   6 -13 113.034 150.083  12
   6   8 -13 162.240 54.5495   4
   6  -8 -13 445.899 403.775  11
   8   6 -13 399.118 362.952   4
   6   8 -13 64.4325 92.8202  19
   8  -6 -13 417.664 427.701  18
   6  -8 -13 355.260 340.680  18
   7  -8  -5 26.6529 352.089  18
  -7   8   6 278.158 469.631  17
  -7  -8   6 165.966 222.249   6
   7  -8  -6 141.956 246.612  18
  -7   8   7 223.722 411.736  17
  -7  -8   7 337.295 376.970   6
   7   8  -7 524.180 133.857   5
   7   8  -7 14.7137 194.634  12
   8  -7  -7 4.33243 392.520  18
   7   8  -7 866.907 463.668   4
   7  -8  -7 1056.73 569.275  18
  -8   7   8 495.101 405.750  17
  -7   8   8 478.671 458.588  17
  -7  -8   8-109.594 188.245   1
  -7  -8   8 188.974 253.100   6
  -7  -8   8 248.215 265.380  14
   7   8  -8 112.570 100.372   5
   7   8  -8-344.820 325.472  12
   7  -8  -8-344.167 429.269   8
   7   8  -8 442.722 416.261   4
   8  -7  -8 46.7618 123.075  18
   7  -8  -8 252.871 288.676  18
  -8   7   9 185.835 278.443  17
   7   8  -9-8.79124 178.484   3
  -7   8   9 359.400 448.269  17
  -7  -8   9 209.066 254.142   6
  -8  -7   9 24.6244 147.365   6
  -7  -8   9 232.260 150.353   1
   7   8  -9-204.060 233.000  19
  -7  -8   9 239.305 231.373  14
   7   8  -9 631.514 432.908   5
   7   8  -9 117.424 187.638  12
   8   7  -9-22.3004 310.915  12
  -7   8   9-352.256 426.205  19
   7  -8  -9 501.921 248.283   8
   7   8  -9 795.860 527.946   4
   8   7  -9 153.666 261.225   4
   8  -7  -9 572.615 505.979  18
   7  -8  -9 638.882 430.533  18
   8   7 -10-402.449 346.763   3
  -8   7  10-161.294 379.091  17
  -7   8  10 44.3390 230.320  17
   7   8 -10-19.0309 100.463   3
  -7  -8  10 91.3981 288.937   6
  -8  -7  10 215.384 334.620   6
  -7  -8  10 151.843 201.266  14
  -8  -7  10 10.6571 67.7037  14
   7  -8 -10-262.411 424.870  13
   7   8 -10 171.808 292.117   5
  -7  -8  10 123.563 141.010   1
   8   7 -10-123.933 243.981   5
   7   8 -10 88.3616 147.248  12
   8   7 -10-130.838 324.029  12
  -7   8  10 124.696 140.919  19
   7   8 -10 150.679 178.001   4
   7   8 -10-330.586 291.408  19
   8   7 -10 291.705 279.380   4
   8  -7 -10 191.163 326.361  18
   7  -8 -10 142.648 210.979  18
  -7  -8  11 172.976 189.006   1
  -8   7  11-13.7178 139.844  17
   8   7 -11 5.73358 115.743   4
   8   7 -11-6.66537 115.022   3
  -7   8  11-5.93132 610.437  17
  -8  -7  11-96.1764 129.365   1
   7   8 -11 77.1297 89.9365   3
  -7  -8  11 103.183 286.383   6
  -8  -7  11 29.5858 37.5881   6
  -7  -8  11 221.457 318.466  14
  -8  -7  11 82.4671 269.372  14
   7  -8 -11-161.411 284.741  13
   7   8 -11 122.482 185.571   5
   8   7 -11 119.789 211.552   5
   7   8 -11 172.078 260.126  12
   8   7 -11-226.731 414.755  12
  -7   8  11 11.8259 211.855  19
   7   8 -11 73.5025 213.545   4
   7   8 -11-169.876 205.780  19
   8  -7 -11 52.1690 207.870  18
   7  -8 -11-50.7469 112.652  18
  -8   7  12 324.463 449.464  17
  -7   8  12 717.596 572.069  17
   8   7 -12-5.11302 52.6678   3
   7   8 -12-4.34522 83.6181   3
  -7  -8  12 49.3765 174.972   6
  -8  -7  12 178.239 242.587   6
  -7  -8  12 111.120 240.583  14
  -8  -7  12 179.208 246.289  14
   7   8 -12 236.014 284.462   5
   8  -7 -12-204.691 372.895  13
   7  -8 -12 15.2029 110.715  13
   8   7 -12 166.455 238.685   5
   7   8 -12 84.9713 116.417  12
   8   7 -12-2.41490 109.999  12
   7   8 -12 41.4778 155.804   4
   8   7 -12 146.563 243.370   4
   7   8 -12-214.466 226.436  19
   8  -7 -12 55.8485 228.663  18
   7  -8 -12 100.993 70.5915  18
   8  -8  -6 335.218 226.066  18
  -8   8   7-116.720 272.126  17
   8  -8  -7 119.939 219.981  18
  -8   8   8 676.689 566.916  17
   8  -8  -8 1503.53 707.318  18
  -8   8   9-255.568 273.600  17
  -8  -8   9 365.016 443.418   6
   8   8  -9 77.7076 165.263   4
   8  -8  -9 449.787 485.326  18
   8   8 -10-84.5125 273.604   3
  -8   8  10-86.7651 129.265  17
  -8  -8  10 159.186 155.839   1
  -8  -8  10 198.641 268.363   6
  -8  -8  10 307.711 420.352  14
   8   8 -10 673.754 439.700   5
   8   8 -10 10.8424 242.514  12
   8   8 -10 745.278 487.668   4
   8  -8 -10 715.935 521.030  18
   0   9   0-87.9525 112.477  17
   0  -9   0-21.4802 55.2665   6
   0  -9   0-101.142 116.199   1
   0  -9   0-83.3449 95.8005  14
   0   9   0 67.7764 148.492   5
   0   9   0-54.7215 63.5289   2
   0   9   0-18.8281 83.8290  12
   0   9   0-64.3675 158.437   4
   0   9   0-19.1805 229.176  19
   0  -9   0-89.6762 170.684   8
   0  -9   0-104.235 201.031  18
   0   9  -1-70.4660 105.533   3
   0   9  -1 33.0374 85.2981  17
   0  -9   1 499.981 288.681   1
   0  -9   1 178.206 103.322   6
   0  -9  -1 329.521 145.725   6
   0  -9  -1 458.506 322.948   1
   0  -9   1 265.829 161.508  14
   0  -9  -1 273.967 167.937  14
   0   9  -1-321.544 448.946   2
   0   9  -1 103.965 127.690   5
   0   9   1 266.814 223.597   5
   0  -9  -1 623.049 148.316  13
   0   9   1 420.280 324.277   2
   0   9  -1-59.4429 143.614  12
   0   9   1 33.0363 110.511  17
   0   9   1-37.4649 101.228  12
   0   9  -1-78.2372 243.025   4
   0   9   1 214.571 209.222   4
   0   9   1 135.697 182.369  19
   0   9  -1 177.708 288.022  19
   0  -9   1 481.897 310.810   8
   0  -9  -1 434.250 334.938   8
   0  -9   1 25.7536 123.282  18
   0  -9   2-10.0883 78.8134   1
   0   9  -2-22.6435 103.205  17
   0   9   2-0.69581 68.8066  17
   0  -9   2-23.6447 74.9019   6
   0   9  -2-67.5153 94.5159   3
   0  -9  -2 47.9356 39.0461   6
   0  -9   2 5.85610 12.6106  14
   0  -9  -2 92.8155 101.973  14
   0   9  -2-47.5523 161.311   5
   0  -9  -2 24.9364 134.046   1
   0   9   2 97.6376 169.850   5
   0   9  -2-30.8594 60.8140  12
   0   9   2 64.0952 180.949   2
   0   9  -2-365.060 404.377   4
   0   9   2-13.4854 119.037   4
   0   9  -2 128.093 253.460  19
   0   9   2-182.729 241.831  19
   0  -9   2-31.0000 36.3290   8
   0  -9   2-18.3213 73.2447  18
   0  -9  -2-72.7614 154.461   8
   0   9  -3-121.702 128.261  17
   0   9   3-166.181 149.334  17
   0  -9   3 16.1019 80.6969   6
   0  -9  -3 217.104 134.092   6
   0   9  -3-19.9959 51.7385   3
   0  -9   3 105.050 87.2672  14
   0  -9  -3 168.509 129.463  14
   0   9  -3-207.606 366.879   5
   0   9   3 88.6864 126.745   5
   0  -9  -3 252.522 237.199   1
   0   9  -3 444.417 290.254  12
   0   9   3 246.871 224.173   2
   0  -9   3-185.998 180.886  11
   0   9   3 134.701 184.828   4
   0   9  -3-50.2462 158.480  19
   0   9   3 150.327 143.836  19
   0  -9   3 236.534 250.487   8
   0  -9   3 33.6945 58.4207  18
   0  -9   3 147.553 186.671   1
   0  -9  -3-23.6301 198.332   8
   0  -9  -4-99.6152 227.981   8
   0   9  -4 168.916 139.171  17
   0  -9   4-88.3754 152.177   6
   0   9   4-151.176 145.703  17
   0  -9   4-3.20453 51.5193  16
   0  -9  -4-1.40605 49.8335   6
   0   9  -4 588.414 252.062   3
   0  -9   4-22.8308 57.3395  14
   0  -9  -4 50.6798 93.2268  14
   0   9   4 128.007 201.618   5
   0  -9  -4 7.53199 65.9763   1
   0   9   4 51.4296 179.221   2
   0  -9   4 6.27526 37.2478  11
   0   9   4 4.19292 70.0472   4
   0   9  -4 66.4879 142.256  19
   0  -9   4 20.6555 10.7358   1
   0   9   4 7.29801 85.2422  19
   0  -9   4-41.5996 166.655   8
   0  -9   4 36.5465 59.7980  18
   0  -9  -5-37.7489 254.987   8
   0   9  -5 29.0565 33.5293  17
   0   9   5 276.038 249.540   4
   0  -9   5-58.1204 159.814   6
   0   9   5-167.389 156.788  17
   0  -9   5 270.653 165.584  16
   0   9   5 111.459 63.7802  16
   0  -9  -5 270.131 116.410   6
   0  -9   5 102.042 114.198  14
   0  -9  -5 181.870 141.295  14
   0   9   5 403.524 303.471   5
   0  -9   5 307.402 239.551   1
   0  -9   5 235.966 112.076  11
   0   9  -5-31.7194 107.147  19
   0   9   5 9.90515 70.8436  19
   0  -9   5 365.116 312.512   8
   0  -9   5 195.566 147.516  18
   0  -9  -5 322.143 264.149   1
   0   9   5 262.810 215.972   2
   0   9  -6-18.9605 14.5656  17
   0   9   6-2.79032 52.3497  17
   0  -9   6 104.391 149.056  16
   0   9   6-62.5773 81.1531  16
   0  -9  -6 28.1165 60.0006   6
   0  -9   6-29.5164 99.2940  14
   0  -9  -6 9.19726 64.6911  14
   0   9   6 37.5416 114.017   5
   0  -9   6-88.3683 222.611   1
   0  -9   6 291.663 151.980  11
   0   9  -6 262.010 285.254  19
   0   9   6 43.8043 122.996   2
   0   9   6-86.0262 219.655  19
   0   9   6 72.6654 137.296   4
   0  -9   6 193.231 283.372   8
   0  -9   6-12.9262 35.4407  18
   0  -9  -6 45.0870 83.5685   1
   0   9  -7 196.214 150.885  17
   0  -9  -7-7.23756 113.655   1
   0   9   7-3.18024 12.4009  17
   0  -9   7 90.5848 155.894  16
   0   9   7-158.134 149.801  16
   0  -9  -7 44.9544 41.4342   6
   0  -9   7-10.6212 72.9448  14
   0  -9  -7 21.0114 69.3836  14
   0  -9   7 17.6313 128.544   1
   0   9   7-40.7347 111.542   5
   0   9  -7 76.6871 218.579  19
   0   9   7 70.5695 75.7552   2
   0   9   7 104.707 160.994   4
   0   9   7-98.7110 192.746  19
   0  -9   7 89.5202 203.805   8
   0  -9   7 193.889 155.472  18
   0   9  -8 174.286 136.908  17
   0   9   8-12.4949 77.7481  17
   0  -9  -8 62.4090 148.519   1
   0  -9   8 28.5426 72.7363  16
   0  -9   8 6.55377 99.7429  14
   0  -9  -8 108.386 111.218  14
   0  -9   8 28.1984 86.5011   8
   0   9   8-82.2867 156.148   5
   0   9  -8 16.4201 76.2442  19
   0   9   8 97.7748 164.246   4
   0   9   8-32.9091 112.287   2
   0   9   8-32.3381 223.505  19
   0  -9   8-11.4344 90.4698  18
   0   9  -9 299.252 176.712  17
   0   9   9-6.06141 77.2749  17
   0  -9   9 43.2733 92.4887  16
   0  -9  -9 18.3505 73.8991   1
   0  -9   9-112.516 251.361  14
   0  -9  -9 38.6337 109.393  14
   0   9   9-29.6018 40.0817   5
   0   9  -9 97.9328 89.9662  19
   0   9   9 39.6451 81.4229   4
   0  -9   9 68.5330 197.387   8
   0   9   9 17.8070 146.775   2
   0  -9   9 99.7558 146.603  18
   0   9 -10 16.3210 102.264  17
   0   9  10-23.2811 92.1175  17
   0  -9  10 89.6623 200.954  16
   0  -9 -10 10.1657 51.8741  14
   0  -9 -10 6.22296 140.352   1
   0   9  10 31.9113 81.2993   5
   0   9 -10 127.275 142.750  19
   0  -9  10 77.3411 148.646   8
   0   9  10 79.3565 153.952   4
   0   9  10-106.289 187.918   2
   0  -9  10 10.8125 81.3480  18
   0   9  11-49.6535 159.202  17
   0  -9  11 625.453 368.582  16
  -9   0  11 73.0520 194.428   6
   0  -9 -11 119.259 113.914  14
   0  -9 -11 158.307 189.812   1
   0   9  11 306.005 227.294   5
   0   9 -11-403.773 426.424  19
   0  -9  11 605.060 416.332   8
   0   9  11 329.593 218.721   4
   0   9  11 255.236 157.951   2
   9   0 -12-125.871 341.466   3
   0   9  12-431.984 291.564  17
   0  -9  12 20.1614 142.414  16
  -9   0  12 113.867 158.513   6
   0  -9 -12-18.3162 43.4571  14
   0   9  12-6.37285 87.1952   5
   0  -9 -12-14.8611 119.229   1
   0   9 -12-546.398 449.395  19
   0  -9  12 168.106 273.884   8
   9   0 -12-529.087 579.723  18
   0   9  12-70.8755 187.146   4
   0   9  12-63.2691 84.9699   2
   9   0 -13 994.945 538.121   3
   0   9  13-316.611 254.571  17
   0  -9  13 1106.11 514.396  16
  -9   0  13 79.2940 182.792   6
   0  -9 -13 108.401 80.4861  14
   0   9  13 802.525 433.737   5
   0  -9 -13 232.702 216.389   1
   0   9 -13-1063.23 543.253  19
   0  -9  13 947.612 554.523   8
   9   0 -13 696.495 304.501  18
   0   9  13 471.667 87.0567   4
   0   9  13 855.733 451.861   2
  -9   0  14 195.816 292.239  17
   9   0 -14-42.7920 101.506   3
   0  -9  14 108.958 229.531   8
  -9   0  14 31.9775 153.442   6
   0  -9  14-17.7373 31.1770  16
   0  -9 -14 41.9085 110.055  14
   0   9  14 45.9905 94.2129   5
   0  -9 -14 3.11206 76.1961   1
   9   0 -14 174.429 346.592  18
   0   9  14 124.525 215.695   2
  -9   0  15 417.331 405.875  17
   9   0 -15 178.604 210.849   3
  -9   0  15 34.8803 171.619   6
   0  -9  15 212.304 181.410  16
   0  -9 -15 76.3177 130.723  14
   9   0 -15-106.319 368.981  13
   0   9  15 181.270 241.000   5
   0  -9 -15 68.8906 141.190   1
   0  -9  15 280.877 299.259   8
   9   0 -15 479.780 429.486  18
   0   9  15 320.708 332.018   2
  -1   9   0-32.4937 52.8832   3
  -1   9   0 246.374 251.304  17
  -1  -9   0 1167.69 327.289   6
   1   9   0-97.3795 97.4468  17
  -1   9   0 263.062 334.178  19
   1  -9   0 1751.38 604.645   1
  -1  -9   0 1449.00 491.122   1
  -1  -9   0 944.515 336.920  14
   1  -9   0 670.873 292.349  14
   1   9   0 1195.33 416.100   2
  -1   9   0-59.2289 230.540   5
   1   9   0 1209.15 508.396   5
  -1   9   0 48.9451 66.5002  12
   1   9   0 91.5560 45.9675  12
   1  -9   0 1339.34 421.871  11
   1   9   0 771.939 402.178   4
   1   9   0 665.907 402.207  19
   1  -9   0 1002.15 452.099   8
   1  -9   0 998.497 355.115  18
  -1  -9   0 558.994 340.528   8
   1  -9  -1 57.4104 83.2623   1
  -1   9  -1 253.793 216.569  17
  -1   9   1 315.144 276.561  17
   1  -9  -1-96.5552 136.701   6
   1   9  -1-104.793 124.669  17
   1   9   1-142.388 121.902  17
  -1  -9   1 130.862 106.782   6
  -1   9  -1-88.3615 70.0958   3
  -1  -9  -1 95.0356 102.981   6
   1  -9   1 65.6858 229.558   8
   1  -9   1-11.9153 128.387  14
   1  -9  -1-105.051 175.369  14
  -1   9  -1-393.406 451.560   5
  -1   9   1 168.388 285.857  19
  -1  -9   1 75.3290 66.6685  14
  -1  -9  -1 91.0515 104.421  14
  -1   9   1-49.8983 75.4306   5
  -1   9   1-190.083 289.919   2
  -1  -9   1 2.39625 72.1537   1
   1   9  -1 74.4645 195.259   5
   1   9   1 0.57350 165.534   5
   1   9  -1 231.372 219.508   2
  -1   9  -1 521.954 306.018  12
  -1   9   1-61.7237 82.6572  12
   1   9  -1-4.11916 138.552  12
   1  -9   1 558.131 299.095  11
   1   9   1 63.9387 79.7661   2
   1  -9  -1 61.6664 115.872  11
  -1  -9  -1 133.223 161.759   1
   1   9  -1 54.2266 172.079   4
   1   9   1 72.3033 148.478   4
  -1   9  -1 10.7205 172.899  19
   1   9  -1 45.1419 85.1806  19
   1   9   1 37.9758 138.517  19
   1  -9   1-3.26213 32.8589   1
   1  -9  -1 31.4041 18.0031   8
   1  -9   1 32.7643 49.8197  18
  -1  -9   1 12.5487 32.0476   8
   1  -9  -1-8.64817 31.1032  18
  -1  -9  -1 48.9807 141.597   8
  -1  -9  -2 160.951 99.4329   8
   1   9  -2-27.1785 83.0940   3
  -1   9  -2 98.0336 135.470  17
  -1   9   2 138.748 198.128  17
   1  -9  -2-16.3561 85.7684   6
   1   9  -2 54.6671 42.9638  17
   1   9   2-34.8621 67.8848  17
   1  -9  -2 497.773 302.576   1
  -1  -9   2 500.397 223.758   6
  -1  -9  -2 383.038 181.633   6
  -1  -9   2 658.122 342.219   1
   1  -9   2 202.273 141.128  14
   1  -9  -2 211.881 119.393  14
  -1  -9   2 401.319 216.691  14
  -1  -9  -2 297.359 188.146  14
  -1   9   2 151.042 183.214   5
   1   9  -2 460.859 340.045   5
   1   9  -2 404.968 229.608   2
  -1   9   2 311.452 253.853   2
   1  -9  -2 536.046 148.096  13
   1   9   2 369.475 273.904   5
   1  -9   2 633.987 325.845   1
   1   9  -2 72.2860 111.099  12
  -1   9   2-49.1147 121.370  12
  -1   9   2-131.821 274.561   4
   1   9  -2 282.966 228.198   4
   1  -9  -2 189.559 128.524  11
  -1   9  -2 154.611 260.515  19
   1   9   2 518.373 283.053   2
   1   9   2 298.726 219.976   4
  -1   9   2 274.616 279.082  19
   1   9  -2 168.794 88.0670  19
   1   9   2 253.997 165.627  19
   1  -9   2 534.318 333.340   8
  -1  -9  -2 386.440 258.001   1
   1  -9  -2 355.900 258.331   8
   1  -9   2 353.896 203.724  18
  -1  -9   2 258.911 215.945   8
   1  -9  -2 178.636 152.314  18
  -1  -9  -3-29.7839 238.890   8
  -1   9  -3-9.90728 50.9204  17
  -1   9   3-79.8651 111.578  17
   1  -9  -3 15.8079 28.9443   6
  -1  -9  -3 90.8607 174.092   1
   1   9  -3-46.0038 76.6315  17
   1   9  -3-130.773 112.059   3
   1   9   3-53.3202 92.7177  17
  -1  -9   3 147.735 126.791   6
  -1  -9   3 69.3213 108.531   1
   1  -9   3 109.288 86.7652  16
   1  -9  -3 126.036 159.457   1
  -1  -9  -3 172.422 155.845   6
   1  -9   3 23.7143 85.1414  14
   1  -9  -3 59.2927 84.6595  14
  -1   9   3-9.55011 40.4847  19
  -1  -9   3-1.65855 108.298  14
  -1  -9  -3 125.604 124.271  14
   1   9  -3 64.9016 202.516   5
  -1   9   3 18.4899 95.1026   5
   1  -9   3 174.524 205.169   8
   1   9   3 157.200 167.803   5
   1  -9  -3 191.845 108.475  13
  -1   9   3 28.2384 135.297   2
   1   9  -3 2.08284 56.8732  12
   1  -9   3 81.5079 70.6771   1
  -1   9   3 53.1714 47.0330   4
   1   9  -3-42.6143 232.870   4
   1  -9  -3-79.8271 174.451  11
  -1   9  -3 145.714 237.506  19
   1   9  -3-14.5970 173.214  19
   1   9   3 89.3684 178.737   4
   1   9   3 127.487 121.201   2
   1   9   3 29.2846 142.367  19
  -1  -9   3 53.4278 110.598   8
   1  -9   3 162.993 186.490  18
   1  -9  -3 31.3093 111.687   8
   1  -9  -3-55.3201 135.447  18
  -1   9  -4-78.2512 97.7995  17
  -1  -9   4-34.5758 93.0555   1
  -1   9   4 51.1910 96.4895  17
   1   9  -4-72.5462 97.9247  17
   1  -9  -4-28.1969 39.0392   6
   1   9   4-45.9868 99.8126  17
  -1  -9   4 13.3021 62.7485   6
   1   9  -4-98.6787 116.747   3
   1  -9   4-30.1393 63.5824  16
  -1  -9  -4 113.029 183.890   1
  -1  -9  -4 36.4879 95.9770   6
   1  -9   4-5.34886 76.1161  14
   1  -9  -4-2.39069 38.7140   1
   1  -9   4 70.8404 229.310   8
   1  -9  -4-36.0581 67.9812  14
  -1  -9   4-31.4179 89.3987  14
  -1  -9  -4 61.0700 110.973  14
   1   9  -4 103.848 186.886   5
  -1   9   4-0.31824 67.8263   5
   1   9   4 91.8274 161.382   5
   1  -9   4 18.3066 74.0118   1
  -1   9   4 146.197 228.826   2
   1   9  -4 95.6418 158.468  12
   1   9  -4-143.137 326.586   4
  -1   9   4-25.3248 43.9300   4
  -1   9  -4 7.41671 88.3201  19
   1   9  -4-98.2854 185.174  19
  -1   9   4-4.66921 84.0697  19
   1   9   4 28.0740 114.976   4
   1   9   4-143.504 251.437  19
   1   9   4 22.7961 86.3585   2
  -1  -9   4 69.6910 199.673   8
   1  -9   4 130.450 213.575  18
   1  -9  -4-53.0969 145.636   8
   1  -9  -4-103.519 217.250  18
   1  -9  -5-112.907 210.579   8
  -1   9  -5 212.921 177.942  17
  -1   9   5 4.73724 73.4187  17
   1   9  -5 201.081 138.731  17
  -1  -9   5-23.0572 43.2376   6
   1   9   5-223.720 172.112  17
   1  -9  -5 20.1263 38.7132   6
   1  -9   5 53.7130 135.113  16
   1   9  -5 55.3786 117.156   3
   1  -9   5-55.2551 166.995  14
  -1  -9  -5-40.1694 137.299   6
  -1  -9   5 25.3508 88.9070  14
   1  -9  -5-16.5887 54.4380  14
   1   9  -5-183.090 306.350   5
   1  -9  -5 168.878 174.799   1
  -1  -9  -5 9.39282 36.8466  14
  -1  -9  -5 4.16390 87.0651   1
  -1   9   5 82.4462 143.846   5
   1  -9   5-0.28098 137.013   1
   1   9   5 17.8452 94.1968   5
   1   9  -5 447.284 285.630  12
  -1   9   5 109.850 192.780   2
  -1   9   5 18.7897 88.7706   4
  -1   9  -5 81.6334 226.200  19
   1   9  -5 34.2646 152.414  19
  -1   9   5 70.6909 101.019  19
   1  -9   5-12.3156 134.028   8
   1   9   5 10.0429 127.226   4
   1   9   5-46.1772 142.381  19
  -1  -9   5 65.9860 133.933   8
   1  -9   5 83.2155 71.4176  18
  -1  -9   5 27.7531 125.066   1
   1   9   5-25.3118 188.018   2
   1  -9  -5-125.346 253.589  18
  -1   9  -6 49.8566 99.2721  17
   1  -9  -6 28.9839 180.251   8
   1   9  -6-34.4630 74.8162  17
  -1   9   6-129.178 172.223  17
  -1  -9   6 22.3119 24.6080   6
   1   9   6-256.307 189.188  17
   1  -9  -6 27.3698 38.2535   6
  -1  -9   6 112.956 116.100  16
  -1   9   6 133.324 107.801  16
   1  -9   6 24.4782 72.7225  16
   1   9  -6 384.446 242.779   3
   1  -9   6-63.1145 188.626  14
  -1  -9   6 59.1618 113.216  14
   1  -9  -6 43.2214 79.8458  14
   1  -9   6-13.0839 261.958   1
  -1  -9  -6 73.7454 108.798  14
  -1   9   6 75.7903 174.717   5
   1  -9  -6 190.768 217.263   1
   1   9   6 151.344 206.642   5
  -1  -9  -6 106.349 183.588   1
   1   9  -6 500.272 357.794  12
  -1   9   6 249.758 300.108   2
   1  -9   6 261.457 270.008   8
  -1   9   6 116.578 155.103   4
  -1   9  -6-93.5488 232.629  19
  -1  -9   6 162.785 141.028   1
   1   9  -6 292.717 309.820  19
  -1   9   6 119.376 176.092  19
   1   9   6-41.5699 196.103  19
   1   9   6 97.2187 135.234   4
  -1  -9   6 179.445 153.296   8
   1  -9   6 105.146 150.702  18
   1   9   6 28.4057 166.026   2
  -1   9  -7 172.017 188.787  17
   1   9  -7-41.2678 79.2936  17
  -1   9   7-113.063 202.306  17
  -1  -9   7 115.631 117.103   6
   1   9   7-282.677 203.839  17
  -1  -9   7 117.409 149.839  16
   1  -9  -7 72.7412 51.7258   6
  -1   9   7 230.732 151.831  16
   1  -9   7 55.9249 40.3542  16
  -1  -9   7 93.7170 91.1492  14
   1  -9  -7 31.2692 31.8481  14
  -1  -9  -7 81.5105 101.182  14
  -1   9   7 150.330 196.055   5
   1   9   7 67.6777 66.0131   5
   1  -9  -7-72.4140 186.858   1
  -1  -9   7 164.751 143.859   1
  -1   9   7 124.504 181.179   2
  -1  -9  -7 77.9875 152.588   1
  -1   9  -7-374.407 483.887  19
  -1   9   7 223.628 222.921   4
   1   9  -7 128.210 209.074  19
   1  -9   7 104.934 136.118   8
   1   9   7-231.306 340.095  19
   1   9   7 72.7341 40.8996   4
  -1  -9   7 242.145 254.453   8
   1  -9   7-4.81092 96.3554  18
  -1   9   7-37.5504 193.807  19
   1   9   7-24.8776 141.779   2
   1   9   8 120.845 150.448   2
   1   9  -8 15.4884 31.1930  17
  -1  -9   8-76.7799 204.573   6
  -1   9   8-0.79910 51.7942  17
   1   9   8-233.015 308.025   4
  -1  -9   8 223.020 240.150  16
  -1   9   8 99.5132 115.159  16
   1  -9  -8 46.9156 41.6098   6
   1  -9   8-42.1268 138.024  16
  -1   9   8 20.1168 72.5862   4
  -1  -9   8 93.8862 129.883  14
   1  -9  -8-0.38445 58.4754  14
  -1  -9  -8 100.878 126.160  14
  -1   9   8 30.5030 118.659   5
   1   9  -8-85.4478 56.6346  13
  -1  -9   8-25.8402 184.033   1
   1   9   8 80.8757 129.266   5
   1  -9  -8 73.9977 143.719   1
  -1   9   8 133.380 161.177   2
  -1   9  -8-436.439 519.615  19
   1   9  -8 177.062 281.423  19
   1  -9   8 336.426 309.438   8
  -1   9   8 57.7461 143.349  19
  -1  -9   8 128.923 197.639   8
  -1  -9  -8-13.4109 22.1681   1
   1   9   9 118.200 173.585   2
  -1  -9  -9 80.9434 14.1594   1
  -1  -9   9-72.6195 206.186   6
   1   9  -9 29.7450 23.2423  17
  -1   9   9-45.6165 108.969  17
  -1  -9   9 129.535 185.274  16
  -1   9   9 31.2622 91.4756  16
   1  -9   9-113.303 237.829  16
   1  -9  -9 42.6303 35.8380   6
  -1  -9   9 93.2018 13.3349  14
   1  -9  -9 57.2567 93.4621  14
  -1  -9   9-70.9716 201.725   1
  -1  -9  -9-14.8184 4.65863  14
  -1   9   9 67.0839 125.506   5
   1   9  -9 236.357 118.104  13
   1   9   9 9.85013 149.606   5
  -1   9   9 185.471 241.754   2
   1  -9  -9 55.3125 104.041   1
   1   9  -9 260.932 300.229  19
  -1   9   9 158.183 172.097   4
   1  -9   9 243.014 284.014   8
  -1   9   9 27.6439 95.9044  19
  -1  -9   9 226.198 334.094   8
   1   9   9-207.147 328.728   4
  -1  -9   9-52.7449 95.7026  18
   1   9  10 109.064 136.798   2
   1  -9  10 176.495 268.703   8
  -1   9  10 24.4794 97.9040  17
  -1  -9  10 341.436 321.811  16
  -1   9  10 228.684 130.904  16
  -1  -9 -10 22.8896 107.633   1
   1  -9  10 12.3141 208.779  16
  -1  -9  10 175.867 183.183  14
   1   9 -10-100.823 99.0302  19
   1  -9 -10 55.1638 56.6876  14
  -1  -9 -10 107.448 107.876  14
  -1   9  10 201.550 270.972   5
   1   9  10 139.081 211.883   5
  -1   9  10 254.907 192.982   2
  -1   9  10 304.802 217.914   4
   1  -9 -10 274.102 255.667   1
  -1   9  10-154.174 333.743  19
  -1  -9  10 270.181 338.060   8
  -1  -9  10 83.1502 18.7646  18
   1   9  11 129.249 190.010   2
  -1   9  11-45.7306 198.934  17
  -1  -9  11 271.632 297.072  16
  -1   9  11 262.959 187.061  16
   1  -9  11-156.515 293.314  16
  -9  -1  11 2.71311 74.8429   6
  -9   1  11-58.7939 48.9711   6
  -1  -9  11 36.9871 75.3062  14
  -1  -9 -11-18.7039 125.794   1
   1  -9 -11 62.1595 85.8365  14
  -1  -9 -11 88.6477 116.267  14
  -1   9  11 135.595 148.031   5
   1   9  11 97.0450 164.042   5
   1   9 -11 176.764 334.560  19
  -1   9  11 112.923 100.223   2
  -1   9  11 134.410 182.432   4
   1  -9  11-76.0564 291.962   8
  -1  -9  11 274.745 335.609   8
   1  -9 -11 191.676 213.626   1
   9  -1 -12 677.646 351.715   3
   9   1 -12 401.250 185.810   3
   1  -9 -12 453.725 324.430   1
  -1   9  12 79.1414 102.893  17
  -1  -9  12 993.903 489.472  16
  -1   9  12 759.122 304.986  16
   1  -9  12 151.630 165.404  16
  -9  -1  12-2.56011 97.7936   6
  -9   1  12 50.1844 89.5770   6
  -1  -9  12 216.214 134.281  14
   1  -9 -12 149.969 105.052  14
  -1   9  12 484.274 296.778   5
   1   9 -12 145.536 101.347  19
  -1   9  12 854.726 412.402   2
   1  -9  12 338.457 211.824   8
  -1  -9  12 1683.82 627.913   8
   9  -1 -12 1.38801 416.930  18
  -1   9  12 707.642 321.124   4
  -9   1  13 24.5119 138.974  17
   9  -1 -13-7.75742 270.284   3
   9   1 -13 157.665 20.7909   3
   1  -9 -13 13.4039 55.8352   1
  -1   9  13 60.0579 145.854  17
  -1  -9  13 225.681 328.516  16
  -1   9  13 97.2928 132.530  16
  -9  -1  13 56.1105 218.474   6
  -9   1  13-30.4264 159.847   6
   1  -9  13-216.690 289.752  16
   1  -9 -13 18.4444 42.9050  14
  -1   9  13 20.3688 136.280   5
   1   9 -13-184.727 213.356  19
  -1   9  13 281.289 225.583   2
  -1   9  13 116.484 166.547   4
  -1  -9  13 239.714 413.708   8
   9   1 -13 25.5042 233.664  18
   9  -1 -13-34.9254 61.7883  18
  -9  -1  14 113.853 341.697  17
  -9   1  14 3.19938 266.297  17
   9  -1 -14 902.831 509.379   3
   9   1 -14 861.290 485.586   3
  -1   9  14 67.8050 39.0927  17
   1  -9 -14 183.183 198.717   1
  -1  -9  14 1377.08 610.099  16
  -9  -1  14 70.6291 208.653   6
  -1   9  14 581.056 276.173  16
   1  -9  14 72.5711 244.705  16
   1  -9 -14 45.8627 73.9675  14
   9  -1 -14 239.451 348.685  13
  -1   9  14 718.847 336.716   5
   9   1 -14 63.1398 265.913  12
   1   9 -14 25.7493 132.152  19
   1  -9  14-413.903 687.932   8
  -1   9  14 895.719 461.536   2
  -1   9  14 888.649 350.256   4
  -1  -9  14 1231.04 673.459   8
   9   1 -14 835.911 404.820  18
   9  -1 -14 1254.31 578.523  18
  -9  -1  15 162.216 361.892  17
  -9   1  15 115.080 443.275  17
   9  -1 -15 36.1273 155.435   3
   9   1 -15 137.629 203.217   3
  -1   9  15-229.101 309.833  17
   1  -9 -15 103.700 194.205   1
  -9   1  15 283.941 290.445   6
  -9  -1  15 11.6585 142.346   6
  -1  -9  15 79.8520 190.606  16
  -1   9  15 149.090 175.415  16
   1  -9  15-291.652 448.058  16
   1  -9 -15-1.85538 81.1101  14
   9  -1 -15-211.484 361.974  13
  -1   9  15-16.0409 71.7407   5
   1   9 -15-228.981 334.449  19
  -1   9  15 179.233 240.012   2
  -1   9  15-45.0270 80.7220   4
  -1  -9  15 54.5344 244.724   8
   9   1 -15 66.0712 261.957  18
   9  -1 -15 528.537 399.984  18
  -2  -9   0 94.6564 70.7450   8
  -2   9   0 31.9043 141.149  17
  -2  -9   0 448.994 300.094   1
  -2  -9   0 515.392 242.442   6
   2  -9   0 5.41586 98.0241  14
  -2  -9   0 242.656 191.333  14
   2   9   0 214.895 149.037   5
   2  -9   0 520.869 307.598   1
  -2   9   0 317.851 303.091  19
   2   9   0 355.488 278.933   4
   2   9   0 268.181 221.045  19
   2   9   0 331.464 172.176   2
   2  -9   0 458.272 301.812   8
   2  -9   0 381.753 255.388  18
  -2  -9   1 1425.94 563.188   8
  -2  -9  -1 836.992 463.359   8
  -2   9  -1 173.780 244.935  17
  -2   9   1 297.374 265.029  17
  -2  -9   1 2986.83 590.199   6
  -2  -9  -1 2569.05 558.099   6
   2  -9   1 2840.61 766.367   1
   2  -9  -1 3372.71 821.953   1
   2  -9  -1 3113.73 739.673   8
  -2  -9   1 2784.24 670.872   1
  -2  -9   1 2153.42 510.421  14
  -2  -9  -1 1563.22 437.704  14
  -2  -9  -1 1936.10 579.388   1
   2  -9   1 504.296 227.177  14
   2  -9  -1 622.860 299.288  14
   2   9  -1 1989.49 691.011   5
   2   9   1 2140.47 653.391   5
   2   9  -1 2319.33 461.135   2
   2   9   1 1361.57 385.185   2
  -2   9   1 511.906 274.099  12
   2   9  -1 2524.56 718.820   4
   2   9   1 2515.46 708.332   4
   2   9  -1 397.054 232.858  12
   2   9   1 1544.77 611.296  19
  -2   9  -1 17.4776 180.917  19
   2  -9   1 2325.27 645.829   8
  -2   9   1 503.138 378.136  19
   2  -9  -1 2474.28 642.771  18
   2   9  -1 1552.45 577.477  19
   2  -9   1 2568.46 623.977  18
   2   9   2 88.0959 89.9361   2
  -2   9  -2 209.095 263.572  17
  -2   9   2 328.380 225.943  17
  -2  -9   2 188.337 198.321   6
  -2  -9  -2-49.1909 109.872   6
   2  -9   2-3.37656 144.341  14
   2  -9  -2 45.6764 82.7549  14
  -2   9   2-367.714 428.801   5
  -2  -9   2 87.7259 89.2307  14
  -2  -9  -2 7.18501 10.8187  14
   2   9  -2 103.375 182.653   5
  -2  -9  -2 52.2536 48.6550   1
   2   9   2 148.386 222.260   5
   2  -9   2 38.3882 156.350   1
  -2   9   2-27.1873 77.8330  12
   2   9  -2-95.8578 192.469  12
  -2  -9   2-26.2232 66.4331   1
   2   9  -2 175.087 192.375   2
   2  -9  -2 1204.73 548.052  11
  -2   9  -2-51.4339 194.633  19
   2   9  -2 90.3059 177.673   4
  -2   9   2 141.614 298.746  19
   2   9  -2 4.19952 74.0857  19
   2  -9   2 377.201 334.009   8
   2   9   2 116.658 165.396  19
   2   9   2 89.5140 181.922   4
   2  -9  -2 194.117 173.200   8
   2  -9  -2 160.137 158.988   1
   2  -9   2 256.022 233.305  18
   2  -9  -2 69.4328 150.911  18
  -2  -9   2 83.4515 109.995   8
  -2   9  -3 174.312 230.189  17
   2   9  -3-60.6631 109.476   3
   2   9   3 84.6174 74.8185   2
  -2   9   3 66.6181 109.962  17
  -2  -9   3 447.424 251.685   6
   2  -9   3 479.656 309.705  18
   2  -9   3-114.569 221.549  14
  -2  -9  -3 116.364 60.9661   6
   2  -9  -3 11.0368 57.5632  14
  -2   9   3-160.175 331.986   5
  -2  -9   3 437.871 232.056  14
  -2   9   3-282.736 409.356   2
  -2  -9  -3 169.460 153.604  14
   2   9  -3 442.316 351.650   5
   2  -9   3 311.316 269.671   1
   2  -9  -3 353.705 126.858  13
  -2  -9   3 392.718 236.840   1
   2   9  -3 458.020 213.113   2
   2   9   3 243.298 232.736   5
  -2   9   3-50.5375 119.701  12
   2   9  -3 32.3571 103.025  12
   2  -9  -3 490.949 337.687  11
   2   9  -3 264.207 288.729   4
  -2   9  -3-249.439 373.728  19
  -2  -9  -3 138.287 144.807   1
  -2   9   3 44.3012 132.890  19
   2   9  -3 107.046 115.593  19
   2  -9   3 264.222 260.600   8
   2   9   3 194.307 214.368  19
   2   9   3 287.510 237.770   4
   2  -9  -3 323.377 219.631   8
   2  -9  -3 233.353 168.553  18
  -2  -9   3 329.032 263.078   8
   2  -9  -3 580.249 352.515   1
  -2   9  -4 212.569 228.883  17
  -2  -9  -4 32.7572 66.9645   1
   2  -9  -4 98.4466 207.120   1
  -2   9   4 15.2244 61.9034  17
   2   9   4-29.9928 125.196   2
   2   9  -4-189.302 154.616   3
  -2  -9   4-14.4516 39.4708   6
  -2  -9  -4-355.247 417.692   6
   2  -9  -4-34.1534 80.8162  14
  -2  -9   4 38.8439 94.0766   1
  -2  -9   4 28.4801 105.499  14
   2  -9   4-19.9075 180.985   1
  -2   9   4 29.4079 111.257   5
  -2  -9  -4-12.2397 31.2163  14
   2   9  -4 39.7066 113.409   5
  -2   9   4 97.7709 259.341   2
   2  -9  -4-76.9061 118.359  13
   2   9   4 48.9135 111.659   5
   2   9  -4 39.2095 107.683  12
   2  -9  -4 167.415 219.772  11
   2   9  -4 64.9523 170.777   4
  -2   9  -4-36.2477 420.653  19
  -2   9   4-33.2759 50.6977  19
   2   9  -4 20.4030 85.3070  19
   2  -9   4-69.5425 128.686   8
   2   9   4-102.931 264.128  19
   2   9   4-25.0293 186.471   4
   2  -9   4-46.3939 125.163  18
   2  -9  -4 42.6551 185.752   8
  -2  -9   4-42.3604 159.430   8
   2  -9  -4 17.8565 100.724  18
  -2   9   5 112.661 209.052  19
  -2   9   5 48.2045 191.833  17
   2   9   5-16.9191 114.699   2
   2  -9  -5-51.5376 141.005   1
   2   9  -5 78.0846 75.9402   3
  -2  -9   5 26.2288 45.5361   6
  -2  -9   5-54.5606 67.3718   1
  -2  -9  -5 46.4034 114.047   1
   2  -9  -5-34.9309 87.1062  14
  -2  -9   5-54.0305 94.2847  14
  -2   9   5 35.5308 132.261   5
  -2  -9  -5 0.03127 64.9402  14
   2   9  -5 103.300 128.397   5
  -2   9   5 17.4207 21.4686   2
   2  -9  -5-79.8563 96.1879  13
   2   9   5-77.4675 148.551   5
   2   9  -5-302.148 216.660  12
   2   9  -5-34.6879 47.7263   4
   2  -9  -5-47.0435 150.770  11
   2   9  -5 123.553 226.426  19
   2  -9   5 3.80796 54.6953   8
   2   9   5-112.248 219.108  19
   2  -9   5-190.560 316.144  18
   2   9   5-187.582 319.843   4
  -2  -9   5-166.656 217.641   8
   2  -9  -5 17.9616 100.802   8
   2  -9  -5 16.3537 58.6977  18
  -2  -9   6 737.514 348.150   1
  -2   9   6-31.8050 170.852  17
   2   9   6 86.0692 62.1129   2
  -2  -9   6 469.312 249.347   6
   2  -9  -6 431.571 301.637   1
   2   9  -6 87.8503 120.282   3
   2  -9  -6 59.0114 44.2384  14
  -2  -9   6 328.725 184.921  14
   2   9  -6 173.500 159.928   5
  -2   9   6 173.275 207.599   5
  -2  -9  -6 137.543 59.2895  14
  -2  -9  -6 112.942 167.362   1
   2  -9  -6 811.707 309.727  13
  -2   9   6 572.983 401.501   2
   2   9   6 200.178 202.053   5
   2   9  -6 68.0405 68.2132  12
  -2   9   6-45.2726 235.321   4
   2   9  -6-136.322 298.995   4
   2  -9  -6 210.474 73.4900  11
   2   9  -6 291.125 176.241  19
   2  -9   6 168.206 159.216   8
  -2   9   6 186.886 219.432  19
  -2  -9   6 281.249 255.075   8
   2  -9  -6 148.999 148.814  18
   2  -9  -6 250.902 163.940   8
   2  -9  -7-29.0549 169.099   8
  -2   9   7-194.071 196.818  17
   2   9   7-42.2638 162.150   2
  -2  -9   7 18.4697 50.6501   6
  -2   9   7-21.4832 118.735  16
   2   9  -7 47.2566 100.635   3
   2  -9  -7 4.03714 71.6330   1
   2  -9  -7-44.8160 78.8421  14
  -2  -9   7 3.56540 38.6464  14
   2   9  -7-154.127 279.428   5
  -2   9   7 24.4335 113.123   5
  -2  -9  -7 42.2540 95.0750  14
  -2   9   7-71.2509 66.1925   2
   2   9  -7 3.45153 93.2368  12
   2   9   7-86.4007 143.336   5
   2   9  -7 175.125 218.138  19
   2   9  -7-531.682 491.028   4
  -2   9   7-407.986 237.006   4
   2  -9  -7-78.3848 165.409  11
  -2  -9  -7 70.8582 142.352   1
   2  -9   7-259.046 461.535   8
  -2   9   7-77.8003 84.3160  19
  -2  -9   7 10.4755 71.1187   1
  -2  -9   7-65.3432 89.6903   8
   2  -9  -7-89.2866 175.819  18
  -2  -9  -8 8.24290 69.3865   1
  -2   9   8 0.05555 42.5113  17
   2  -9  -8 63.9394 11.2308   3
  -2  -9   8 137.790 137.345   6
  -2  -9   8 3.98807 89.6792  16
  -2   9   8 189.976 135.272  16
   2   9  -8 106.622 148.734   3
   2  -9  -8 37.1014 89.0690   1
   2  -9  -8 43.1693 86.0388  14
  -2  -9   8 207.298 168.840  14
  -2  -9  -8 156.556 159.970  14
  -2   9   8 108.159 217.262   5
   2   9  -8 321.292 328.223  12
   2   9   8-94.4931 235.683   5
  -2   9   8 366.942 299.894   2
  -2   9   8-16.7413 175.637   4
  -2  -9   8 207.136 188.206   1
   2  -9  -8-189.392 317.744  11
   2   9  -8 20.2107 93.9182  19
   2  -9   8-463.714 596.132   8
  -2   9   8 25.2354 69.8869  19
  -2  -9   8 31.7446 154.741   8
   2  -9  -8-116.617 277.867  18
  -2   9   9-114.065 154.752  17
  -2  -9   9 137.994 129.998   6
  -2  -9   9 149.762 161.326  16
  -2   9   9 214.998 171.202  16
   2  -9  -9 90.0512 71.5135   3
   2   9  -9 469.729 299.546   3
  -2  -9   9 162.874 113.522  14
   2  -9  -9-22.6202 98.2641  14
   2  -9  -9 178.965 231.869   1
  -2   9   9 165.183 181.241   5
   2   9  -9 461.999 351.470  12
  -2  -9   9 14.9991 58.4545   1
  -2   9   9 133.050 169.120   2
  -2   9   9 69.5748 118.298   4
   2   9  -9 32.5009 102.148  19
  -2   9   9-19.2172 195.987  19
  -2  -9   9 114.543 228.956   8
  -2   9  10-27.4036 33.3357  17
  -2  -9  10 199.553 151.828   6
  -2  -9  10 329.201 273.444  16
  -2   9  10 199.831 164.423  16
   2   9 -10 555.923 355.666   3
  -2  -9  10 323.985 180.659  14
   2  -9 -10-3.36976 30.7209  14
   2  -9 -10 299.238 269.327   1
  -2  -9  10-26.1979 196.136   1
  -2   9  10 208.495 213.312   5
   2   9 -10-9.07900 79.0996  13
  -2   9  10 383.275 331.289   2
  -2   9  10 164.872 165.098   4
   2   9 -10-38.7222 128.389  19
  -2   9  10 36.3989 102.070  19
  -2  -9  10 341.103 347.128   8
   2  -9 -10 436.777 209.511   3
   9   2 -11 667.770 380.869   3
  -2  -9  11 861.810 336.983   6
  -2   9  11 182.312 192.914  17
  -2  -9  11 983.910 462.331  16
  -2   9  11 989.538 371.164  16
  -9  -2  11 305.834 361.023   6
  -9   2  11-93.2901 97.9370   6
  -2  -9  11 1074.74 433.961  14
  -2  -9  11-225.828 322.949   1
   2  -9 -11 40.6838 68.0388  14
  -2   9  11 764.747 361.327   5
   2  -9 -11 678.939 372.047   1
   2   9 -11-19.8300 64.7279  13
  -2   9  11 1171.01 527.006   2
  -2   9  11 686.725 313.111   4
   2   9 -11 88.4074 137.661  19
  -2   9  11 165.988 18.2704  19
   9  -2 -11-441.016 541.444  18
  -2  -9  11 944.935 491.577   8
   9   2 -12 112.443 67.1256   3
  -2  -9  12-97.3779 271.959   6
  -2   9  12-14.5109 74.4171  17
  -2  -9  12 27.6571 97.9253  16
  -2   9  12 182.932 208.409  16
  -9  -2  12 208.491 284.329   6
  -9   2  12 59.9039 204.082   6
  -2  -9  12 7.47746 95.7450  14
   2  -9 -12 24.0578 52.5431  14
  -2   9  12 235.936 244.442   5
   2   9 -12 633.562 241.791  13
   2  -9 -12 142.857 199.613   1
  -2   9  12 144.339 114.812   2
  -2   9  12 216.698 188.150   4
   2   9 -12 157.217 265.305  19
  -2  -9  12 224.849 320.681   8
   9  -2 -12 12.7240 186.253  18
  -9   2  13 57.0392 158.895  17
   9  -2 -13 1264.50 570.487   3
   9   2 -13 1191.39 592.611   3
  -2   9  13 205.261 287.158  17
  -2  -9  13 1759.28 677.987  16
  -2   9  13 1215.59 424.696  16
  -9   2  13 188.940 207.878   6
  -9  -2  13 271.065 289.380   6
  -2  -9  13 1184.59 490.513  14
   2  -9 -13 92.5226 107.192  14
   9  -2 -13 444.176 297.241  13
  -2   9  13 1165.92 477.785   5
   2  -9 -13 438.392 318.019   1
  -2   9  13 1687.93 674.166   2
  -2   9  13 957.951 341.984   4
   2   9 -13 35.6150 225.840  19
  -2  -9  13 1719.16 595.471   8
   9   2 -13 557.097 115.940  18
   9  -2 -13 1325.96 572.358  18
  -9  -2  14 639.922 432.261  17
  -9   2  14 199.834 162.807  17
   9  -2 -14-18.1521 129.582   3
   9   2 -14-34.8867 180.440   3
  -2   9  14-66.5741 152.606  17
  -2  -9  14-73.9052 184.556  16
  -2   9  14 33.6778 67.2138  16
  -9   2  14 109.673 156.758   6
  -9  -2  14 74.1142 179.592   6
  -2  -9  14-100.862 363.692  14
   2  -9 -14 17.4881 22.4527  14
   9  -2 -14-134.136 348.575  13
  -2   9  14 40.0289 173.720   5
   2  -9 -14-6.35600 26.0718   1
   9   2 -14-220.746 393.655  12
  -2   9  14 218.040 293.831   2
   9  -2 -14 215.248 287.302  18
  -2   9  14 59.3240 123.691   4
   2   9 -14 224.028 264.563  19
  -2  -9  14 416.504 451.469   8
   9   2 -14 143.860 297.615  18
  -9  -2  15 439.354 403.427  17
  -9   2  15 491.135 543.675  17
   9  -2 -15 1053.56 529.054   3
   9   2 -15 939.481 517.952   3
  -9   2  15 197.057 286.165   6
  -9  -2  15 209.320 275.619   6
  -9  -2  15 242.786 178.024  14
   9  -2 -15 691.169 349.895  13
   2  -9 -15 138.492 89.5726   1
   9   2 -15 568.655 370.384  12
   2   9 -15 398.788 380.203  19
  -3   9   0 101.495 194.480  17
  -3  -9   0 922.328 452.059   8
  -3  -9   0 3315.88 727.927   6
   3   9   0 554.443 152.715   2
   3  -9   0 3561.95 880.940   1
  -3  -9   0 2641.16 601.102  14
  -3  -9   0 2785.17 700.082   1
   3   9   0 3305.50 836.125   5
   3   9   0 4726.01 1002.20   4
   3   9   0 3407.54 924.386  19
  -3   9   0-283.853 303.967  19
   3  -9   0 3485.80 781.621   8
   3  -9   0 4164.80 869.296  18
  -3   9  -1-80.5514 188.352  17
  -3   9   1 183.012 263.402  17
  -3  -9   1-120.983 307.637   8
   3   9  -1-17.1694 128.428   2
  -3  -9  -1-13.5334 126.028   1
  -3  -9   1 98.2392 194.892   6
  -3  -9  -1 43.7325 69.4646   6
  -3  -9   1 61.4818 104.528  14
  -3  -9  -1 122.195 162.164  14
   3  -9   1 28.0713 102.522   1
  -3  -9   1 37.6348 90.0606   1
   3   9  -1 63.8921 48.5465   5
   3   9   1 96.8357 155.040   5
   3  -9  -1-98.6017 239.665   1
   3   9  -1-47.0871 214.826  19
  -3   9  -1-661.374 536.935  19
  -3   9   1-98.0453 109.821  19
   3  -9   1 12.5721 140.861   8
   3   9  -1 113.590 136.707   4
   3  -9  -1 89.5225 68.7774   8
   3   9   1-17.6216 220.430  19
   3   9   1 15.4954 60.5115   4
   3  -9   1 34.9664 161.322  18
   3  -9  -1-7.69625 58.5989  18
  -3   9  -2 286.440 232.873  17
  -3  -9   2 1141.26 468.458   8
  -3   9   2 54.0442 166.600  17
  -3  -9   2 2974.10 657.882   6
   3  -9  -2 2851.93 767.994   1
  -3  -9   2 2019.11 524.498  14
  -3  -9   2 2562.01 662.027   1
  -3  -9  -2 368.838 185.054   6
   3   9  -2 2421.98 717.512   5
   3   9   2 2042.09 657.603   5
   3  -9   2 1080.96 460.821   1
   3   9  -2 1207.80 293.531   2
  -3  -9  -2 1017.90 377.981  14
  -3  -9  -2 814.193 359.936   1
   3   9  -2 2913.49 794.428   4
   3   9   2 1801.49 606.640   4
   3   9  -2 552.381 295.213  12
   3   9   2 1903.31 730.772  19
  -3   9   2-54.9289 61.5585  19
   3  -9  -2 2681.75 629.723   8
   3  -9   2 982.236 415.664   8
   3   9  -2 1493.82 584.372  19
   3  -9   2 1798.22 571.855  18
   3  -9  -2 2878.05 692.401  18
  -3  -9   3-101.812 194.004   8
  -3  -9   3-22.1246 69.8996   1
  -3   9   3 7.15830 92.5156  17
  -3  -9   3-39.8471 21.0134   6
   3  -9   3-212.967 366.536   1
  -3  -9   3 50.3180 26.1950  14
  -3  -9  -3 96.7630 135.513  14
   3   9  -3 12.2853 127.301   5
  -3   9   3 195.460 144.082  12
   3   9   3-45.5208 137.913   5
   3   9  -3-3.33314 105.217  12
   3  -9  -3 7.56983 107.389   1
  -3   9   3 65.9366 181.188  19
   3   9  -3 66.5507 190.774   4
   3  -9   3-233.612 465.637   8
   3   9  -3-120.197 264.663  19
  -3  -9  -3 37.2965 110.822   1
   3   9   3-15.5669 227.828  19
   3  -9  -3 91.0210 67.3111   8
   3   9  -3 27.3562 51.8649   2
   3  -9   3-153.853 365.281  18
   3   9   3-277.045 474.832   4
   3  -9  -3 47.1342 101.143  18
   3   9  -4-70.7523 133.109   3
   3  -9   4-470.687 546.347   8
  -3   9   4 162.686 211.885  17
  -3  -9   4 436.898 268.532   6
  -3  -9  -4 6.36764 55.9712   1
   3  -9  -4-79.9658 173.027  14
  -3  -9   4 279.066 208.529  14
  -3  -9  -4 114.437 137.723  14
   3  -9  -4 205.614 49.0268  13
   3   9  -4 292.024 268.165   5
   3   9   4 0.17176 250.194   5
  -3   9   4-15.1030 49.9559  12
   3   9  -4-175.365 182.439  12
   3   9  -4 288.225 134.346   2
  -3  -9   4 351.742 230.908   1
   3   9  -4 407.085 333.695   4
  -3   9   4 119.813 212.481  19
   3  -9  -4 264.514 163.392   1
   3   9  -4 217.219 232.870  19
   3  -9  -4 362.731 264.059   8
   3  -9  -4 220.142 231.103  18
  -3  -9   4 129.458 91.1925   8
  -3   9   5-73.2662 220.974  17
   3   9  -5-51.9251 89.9991   3
  -3  -9   5 6.66435 130.507   6
   3  -9  -5-83.7274 142.976  14
  -3  -9   5 100.193 140.020  14
  -3   9   5-376.327 451.898   2
   3   9  -5 112.199 220.436   5
   3  -9  -5 5.64631 124.715  13
  -3  -9   5 67.7150 131.228   1
   3   9  -5-94.1767 154.067  12
   3  -9  -5 323.176 387.529  11
   3   9  -5 185.235 289.467   4
   3   9  -5-162.446 161.019  19
  -3   9   5 213.813 188.054  19
   3  -9  -5 14.8822 113.289   1
   3  -9  -5 33.8533 87.1159   8
   3  -9  -5-12.5929 36.4995  18
  -3  -9   5-84.8929 159.185   8
  -3   9   6 123.501 178.113  17
   3   9  -6-53.5959 139.383   3
  -3  -9   6 103.026 155.701   6
   3  -9  -6-46.2394 94.7413  14
  -3  -9   6 151.720 186.527   1
  -3   9   6-204.932 385.254   5
  -3  -9   6 159.587 165.669  14
  -3   9   6-56.5521 295.983   2
   3   9  -6-17.5346 95.6251   5
   3  -9  -6 6.20381 34.5950  13
   3   9  -6-11.1073 74.1765  12
   3  -9  -6 233.366 278.224  11
   3   9  -6 107.063 216.895   4
   3   9  -6 40.3049 141.417  19
   3  -9  -6 28.4341 75.5728   8
   3  -9  -6 353.320 246.795   1
   3  -9  -6 44.1657 113.437  18
  -3  -9   6-171.891 193.514   8
   3   9  -7-27.8985 117.954   3
  -3  -9   7 345.809 245.034   1
  -3  -9   7 234.978 191.155   6
   3  -9  -7-3.29226 19.4953  14
  -3  -9   7 242.331 176.429  14
  -3   9   7-507.286 322.552   5
   3   9  -7 267.889 335.762   5
  -3   9   7 407.736 330.274   2
   3  -9  -7 416.230 245.376  13
   3   9  -7 11.9699 76.6643  12
   3   9  -7 197.422 274.039   4
   3  -9  -7 172.710 220.121  11
  -3   9   7 177.225 256.568  19
   3   9  -7 45.1946 113.507  19
  -3  -9   7 96.2331 119.989   8
   3  -9  -7 88.5371 156.572  18
   3  -9  -7 216.893 184.554   8
   3  -9  -7 82.8014 189.362   1
  -3  -9   8 379.361 278.009   1
   3  -9  -8-52.1709 204.489   8
   3  -9  -8 216.289 254.170   1
  -3   9   8-261.426 244.811  17
  -3  -9   8 237.785 226.555   6
   3   9  -8-32.4640 128.946   3
   3  -9  -8 15.5023 57.6762  14
  -3  -9   8 200.585 170.035  14
  -3   9   8-102.473 193.338   5
   3   9  -8 51.2423 84.1285   5
  -3   9   8 102.888 215.310   2
   3  -9  -8 175.751 190.218  13
   3   9  -8-174.533 176.732  12
   3   9  -8-128.839 311.498   4
   3  -9  -8 86.6616 138.096  11
   3   9  -8 177.751 193.212  19
  -3   9   8-44.3872 160.293  19
  -3  -9   8-11.1349 126.480   8
   3  -9  -8 7.29237 113.429  18
  -3   9   9-94.1987 170.635  19
   3  -9  -9-33.4696 110.861   3
   3  -9  -9-29.5974 259.137   8
  -3   9   9-167.207 289.065  17
   3  -9  -9 70.6402 161.839   1
  -3  -9   9 81.8071 85.2848   6
   3   9  -9-65.2323 82.3047   3
   3  -9  -9-37.1019 108.500  14
  -3  -9   9 141.709 137.925  14
   3   9  -9-254.957 386.360   5
  -3   9   9-8.74931 124.599   5
  -3   9   9 228.612 302.873   2
   3  -9  -9 492.032 323.537  13
   3   9  -9-160.292 170.980  12
   3   9  -9-381.005 516.351   4
   3  -9  -9 82.3920 76.4812  11
   3   9  -9-3.64367 56.3631  19
  -3  -9   9 230.292 185.153   1
  -3  -9   9 58.0027 153.336   8
   3  -9  -9-12.2967 115.621  18
   3  -9 -10 368.393 263.635  11
  -3   9  10 426.791 311.641  17
  -3  -9  10 966.190 401.143   6
   3  -9 -10 767.985 411.648   1
  -3  -9  10 432.734 332.325  16
  -3   9  10 530.509 251.783  16
   3   9 -10 215.535 161.282   3
   3  -9 -10-11.5296 78.0707  14
  -3  -9  10 1123.75 405.818  14
  -3   9  10 249.630 218.743   5
  -3   9  10 585.402 436.817   2
   3   9 -10 125.407 248.181  12
  -3  -9  10 700.425 332.497   1
   3   9 -10 323.541 324.241  19
  -3   9  10 143.455 37.6071  19
  -3  -9  10 804.470 413.352   8
   3  -9 -10 924.577 273.004   3
   3  -9 -10 241.463 249.352  18
   9   3 -11-205.857 395.842   3
  -3   9  11-134.583 336.787  17
  -3  -9  11-121.716 177.700   6
  -3  -9  11 50.2208 93.2605  16
   3  -9 -11-27.0033 87.4679   3
  -3   9  11 131.534 186.259  16
   3  -9 -11-55.7898 122.731   1
   3   9 -11 222.490 244.575   3
  -9  -3  11 83.2777 295.130   6
  -9   3  11 55.1871 141.802   6
   3  -9 -11-43.6957 116.004  14
  -3  -9  11 30.5224 113.272  14
  -3   9  11-17.1725 99.1071   5
  -3  -9  11-32.1241 145.509   1
  -3   9  11 199.677 303.404   2
   3   9 -11 97.2669 204.009  12
   3  -9 -11-90.4097 253.496  11
   3   9 -11 82.4274 181.709  19
  -3   9  11-142.431 254.358  19
   9  -3 -11-385.387 497.548  18
  -3  -9  11 93.2593 80.6291   8
  -9   3  12-246.936 257.062  17
   9   3 -12 1610.72 661.096   3
  -3  -9  12 2309.06 661.045   6
  -3   9  12 615.015 305.093  17
  -3   9  12 1671.52 552.861  16
  -3  -9  12 1835.75 683.095  16
   3  -9 -12 1339.60 508.224   1
  -9  -3  12 53.3372 109.997   6
  -3  -9  12 2754.06 707.908  14
  -9   3  12 86.7714 170.372   6
   3   9 -12 157.301 260.814   3
   3  -9 -12-33.2984 95.0767  14
  -3   9  12 1282.25 502.775   5
   3   9 -12 118.058 82.8179  13
   3   9 -12 407.762 462.453  12
  -3   9  12 1806.28 691.400   2
   3  -9 -12-18.9398 414.293  11
   3   9 -12 26.7053 179.545  19
  -3   9  12 433.035 247.977  19
   9  -3 -12 1272.53 551.871  18
  -3  -9  12 1987.11 666.848   8
   3  -9 -12 2553.86 452.258   3
   3  -9 -12 120.746 357.449  18
  -9   3  13 127.294 153.635  17
   9   3 -13-54.4364 187.772   3
  -3   9  13 455.357 436.307  17
  -3  -9  13 602.260 474.123   6
  -3  -9  13 540.047 457.685  16
  -3   9  13 410.868 321.395  16
  -9   3  13-60.9353 96.0494   6
  -9  -3  13 152.915 284.509   6
   3  -9 -13 208.773 204.895   3
   3  -9 -13 98.8834 128.811   1
   3  -9 -13-15.9412 74.2794  14
  -3  -9  13 357.579 325.966  14
  -3   9  13 87.4471 236.091   5
   3   9 -13 1070.91 408.087  13
   3   9 -13 3100.58 927.420  12
  -3   9  13 496.486 460.558   2
  -3   9  13-128.300 254.378   4
   3   9 -13 2196.30 781.852  19
   9   3 -13-422.083 510.258   4
   9  -3 -13 144.373 351.213  18
  -3  -9  13 1737.28 704.742   8
   3   9 -13 2609.70 784.152   3
  -9  -3  14 271.157 266.223  17
  -9   3  14-187.069 228.030  17
   9   3 -14 1613.63 669.895   3
  -3  -9  14 1541.18 515.465   6
  -3   9  14 557.434 339.982  17
  -3   9  14 1679.37 574.674  16
  -3  -9  14 1850.67 740.715  16
  -9  -3  14 159.724 91.6505   6
  -3  -9  14 1829.83 625.653  14
   3  -9 -14 873.852 426.573   1
   3   9 -14 690.110 473.370   3
  -3   9  14 1320.16 489.816   5
   9  -3 -14 1429.36 522.062  13
   3   9 -14-102.881 142.071  13
   3   9 -14 1584.72 695.777  12
  -3   9  14 2344.21 770.978   2
   9   3 -14 2658.34 700.866   4
  -3   9  14 444.616 86.1573   4
   9   3 -14 982.007 500.698  12
   3   9 -14 77.4850 186.810  19
   9   3 -14 2009.53 630.198  18
   9  -3 -14 2298.32 828.120  18
  -3  -9  14 2285.31 710.018   8
   9  -3 -14 1909.32 742.160   3
   3  -9 -14 2187.24 464.009   3
  -4   9   0 130.186 310.470  17
  -4  -9   0 90.0240 198.693   1
  -4  -9   0 63.0096 31.8750   6
   4  -9   0 122.000 200.312   1
  -4  -9   0 189.266 187.989  14
   4   9   0 206.942 183.436   5
   4  -9   0-97.1730 383.217   8
   4   9   0 201.749 49.6233  19
   4  -9   0 237.298 192.094  18
   4   9   0 29.3583 308.970   4
  -4   9   1 172.850 260.446  17
  -4  -9   1 1646.28 594.187   6
   4  -9  -1 2391.35 724.846   1
  -4  -9   1 1770.01 552.967  14
   4   9  -1 3501.45 882.444   5
   4   9   1 2395.50 724.892   5
  -4  -9  -1 1221.82 452.780  14
  -4  -9  -1 751.696 391.396   1
  -4  -9   1 1349.78 474.705   1
   4   9  -1 3725.20 960.338   4
   4   9  -1 2429.58 811.314  19
   4   9   1 2252.08 839.829  19
   4  -9  -1 2196.52 590.352   8
   4  -9   1 668.073 390.094   8
   4  -9   1 2111.26 554.891  18
   4  -9  -1 3428.73 849.466  18
   4   9   1 2315.66 679.236   4
  -4   9   2 25.9027 143.796  17
  -4  -9   2 106.038 197.908   1
  -4  -9   2 172.920 186.107   6
  -4  -9   2 14.2214 89.9874  14
   4  -9  -2-37.7754 131.270   1
   4   9  -2 121.932 206.985   5
   4  -9  -2 105.777 73.7477   8
   4   9  -2-93.0708 255.411  19
   4   9  -2-12.8400 129.310   4
   4  -9  -2 81.6799 221.008  18
  -4   9   3 336.908 382.017  17
  -4  -9   3 365.519 135.067   8
  -4  -9   3 1177.90 477.289   6
  -4  -9   3 1061.26 402.847  14
   4  -9  -3 1161.96 499.919   1
   4   9  -3 1294.89 524.974   5
   4   9  -3 59.3211 171.236  12
  -4  -9   3 1086.87 438.835   1
  -4   9   3-288.207 240.300  19
   4  -9  -3 1388.67 468.230   8
   4   9  -3 1641.77 652.743   4
   4   9  -3 899.537 446.805  19
   4  -9  -3 1420.56 557.100  18
  -4  -9   4 202.968 74.0797   8
  -4   9   4 202.284 365.050  17
  -4  -9   4 634.820 347.350   6
  -4  -9   4 701.981 350.467   1
  -4  -9   4 537.444 277.084  14
   4   9  -4 603.839 345.440   5
   4  -9  -4 277.211 237.653   1
   4   9  -4 32.9908 91.5726  12
  -4   9   4 92.2196 131.794  19
   4   9  -4 795.204 471.022   4
   4   9  -4 482.454 317.629  19
   4  -9  -4 544.013 289.897   8
   4  -9  -4 639.915 360.789  18
  -4  -9   5-35.8975 133.245   8
   4   9  -5-261.982 223.557   3
  -4   9   5 222.856 343.021  17
  -4  -9   5 190.908 237.148   1
   4   9  -5-40.6591 99.4673   2
  -4  -9   5 280.793 275.294   6
  -4   9   5 256.953 291.463  19
  -4  -9   5 119.182 155.398  14
   4   9  -5 25.7579 87.3550   5
   4  -9  -5-25.1825 175.377   1
   4   9  -5-16.6304 115.249  12
   4   9  -5 249.933 253.169   4
   4   9  -5 124.375 74.9178  19
   4  -9  -5 209.994 194.451   8
   4  -9  -5 137.361 234.958  18
  -4  -9   6 51.9273 136.978   8
  -4   9   6-0.62437 210.343  17
   4   9  -6-35.9394 154.464   3
  -4  -9   6 143.021 185.584   6
  -4  -9   6-2.75748 62.5700  14
   4  -9  -6-15.3782 129.662  13
   4   9  -6 358.075 347.289   5
   4   9  -6-214.710 214.046  12
   4  -9  -6-110.847 191.495   1
  -4  -9   6 127.189 150.990   1
   4   9  -6 151.918 251.389   4
  -4   9   6-2.34498 90.5489  19
   4   9  -6 18.0269 34.6320  19
   4  -9  -6 39.8208 32.9777   8
   4  -9  -6 101.151 211.901  18
  -4   9   7-76.3090 178.433  17
   4   9  -7-165.354 217.195   3
  -4  -9   7 47.8013 138.184   6
  -4  -9   7 32.6202 88.0533  14
  -4   9   7-599.759 655.492   2
   4   9  -7 16.5942 142.063   5
  -4  -9   7 128.429 174.521   1
   4  -9  -7-67.0682 140.615  13
   4   9  -7-72.0316 145.650  12
   4   9  -7-74.3831 133.766   4
   4  -9  -7-0.49487 64.2746   1
  -4   9   7-20.2347 115.736  19
   4   9  -7-197.956 232.766  19
   4  -9  -7 69.0442 190.587   8
   4  -9  -7 133.587 220.168  18
  -4  -9   7-54.1473 216.507   8
  -4   9   8-46.7854 126.144  17
   4   9  -8 15.8450 89.0541   3
  -4  -9   8 166.731 201.619   6
  -4  -9   8 261.882 206.719   1
  -4  -9   8 173.905 150.120  14
  -4   9   8-659.363 408.600   2
   4   9  -8 104.974 203.584   5
   4  -9  -8 139.295 132.597  13
   4   9  -8 11.5849 120.851  12
   4  -9  -8 320.754 385.867  11
   4   9  -8 192.638 326.490   4
  -4   9   8 215.754 172.408  19
   4  -9  -8 80.7164 84.4606   1
   4   9  -8-283.769 243.769  19
   4  -9  -8 52.4390 84.7504   8
   4  -9  -8-5.64814 121.928  18
  -4  -9   8 115.501 230.979   8
  -4   9   9 79.3822 129.721  17
  -4  -9   9 1133.73 401.960   1
   4   9  -9 75.7326 53.3204   3
  -4  -9   9 926.464 416.358   6
  -4  -9   9 626.185 308.644  14
   4   9  -9 457.263 332.371   5
  -4   9   9 144.299 40.7608   2
   4  -9  -9 800.854 322.257  13
   4   9  -9 166.575 248.416  12
   4   9  -9 398.036 327.268   4
   4  -9  -9 662.497 481.585  11
  -4   9   9 278.958 262.770  19
   4   9  -9 370.629 283.299  19
   4  -9  -9 378.876 288.265   1
   4  -9  -9 453.155 345.831  18
  -4  -9   9 278.005 259.744   8
   4  -9  -9 365.129 216.179   8
   4  -9 -10-78.4892 261.054   8
  -4   9  10 128.468 236.151  17
  -4  -9  10 55.2259 55.0947   6
   4   9 -10 109.183 155.720   3
  -4  -9  10 45.5847 116.384  14
   4   9 -10-67.9693 176.327   5
  -4   9  10 202.879 260.948   2
   4  -9 -10 70.3855 139.992  13
   4   9 -10-127.739 189.958  12
   4   9 -10-215.072 372.129   4
   4  -9 -10 83.6029 102.595  11
  -4   9  10 27.4345 51.8161  19
   4   9 -10 102.978 117.212  19
   9  -4 -10-522.854 618.507  18
   4  -9 -10 5.05953 63.5687   1
  -4  -9  10 127.311 180.791   1
  -4  -9  10 24.8880 34.5018   8
   4  -9 -10-13.3542 147.748  18
   9   4 -11 960.618 464.255   3
  -4  -9  11 2292.98 652.323   6
  -4   9  11 60.5980 128.334  17
   4   9 -11 105.444 111.081   3
  -4  -9  11 2177.04 572.563  14
  -9  -4  11 46.3947 260.034   6
  -9   4  11-13.3367 53.1855   6
  -4   9  11-201.557 433.260   5
   4   9 -11-180.434 521.850   5
   4  -9 -11 2122.68 511.380  13
  -4   9  11 1068.73 514.821   2
   4   9 -11 49.9786 108.469  12
   4   9 -11-136.839 495.053   4
  -4  -9  11 1562.97 463.418   1
   4  -9 -11 1038.80 512.067  11
   4   9 -11 518.123 341.655  19
  -4   9  11 508.878 281.830  19
   9  -4 -11 967.386 438.938  18
   4  -9 -11 1227.06 390.293   3
   4  -9 -11 891.268 442.174   1
  -4  -9  11 1213.22 495.056   8
   4  -9 -11 906.087 432.382  18
  -9   4  12-196.173 241.655  17
   9   4 -12-83.6992 241.980   3
  -4   9  12 191.345 334.628  17
   4  -9 -12 33.5642 54.3195   3
  -4  -9  12 233.517 315.697   6
  -4  -9  12-33.8149 279.481  16
  -4   9  12 37.4504 183.822  16
   4   9 -12 258.913 141.566   3
  -9  -4  12 262.585 310.600   6
  -9   4  12-55.7949 83.4574   6
  -4  -9  12 11.3893 188.483  14
  -4   9  12-326.711 392.689   5
  -4   9  12 13.3140 339.996   2
  -4  -9  12-48.2841 75.5513   1
   4  -9 -12 134.315 76.3595  13
   4  -9 -12-91.7417 242.177  11
   4   9 -12 695.795 510.978  19
  -4   9  12 294.313 252.394  19
   9  -4 -12 159.770 204.692  18
  -4  -9  12 84.9093 123.696   8
   4  -9 -12 20.1670 62.4414  18
   4  -9 -12 116.274 190.447   1
  -9   4  13 346.168 354.871  17
   4  -9 -13 1237.17 482.699   1
  -4  -9  13 2505.62 700.823   6
  -4   9  13 82.4068 130.786  17
  -4  -9  13 1528.13 711.624  16
  -4   9  13 1160.05 497.357  16
  -9   4  13-54.3378 125.612   6
   4   9 -13 138.000 249.462   3
  -9  -4  13 155.530 234.966   6
  -4  -9  13 2887.91 717.878  14
  -4   9  13 131.094 217.001   5
   4  -9 -13 2872.05 644.205  13
   9  -4 -13 1533.35 511.157  13
  -4   9  13 1760.13 658.907   2
   4   9 -13 180.262 192.328  12
   9   4 -13 2740.86 753.553   4
   4  -9 -13 909.665 362.329  11
   9   4 -13 1282.76 534.416  12
   4   9 -13 585.075 358.799  19
  -4   9  13 357.645 187.057  19
   9   4 -13 613.643 284.944  18
   9  -4 -13 1740.58 770.741  18
   9   4 -13 1621.30 719.847   3
  -4  -9  13 2016.20 684.844   8
   4  -9 -13 2696.89 528.016   3
   4  -9 -13 654.704 353.013  18
   5  -9   0 66.1153 364.250  18
   5   9  -1 258.352 51.3613  19
   5  -9  -1 185.735 233.985  18
   5   9  -1-61.9898 463.170   4
  -5   9   2 73.2654 199.475  17
  -5  -9   2 367.960 341.155   6
   5  -9  -2 261.079 89.6458   1
  -5  -9   2 243.994 174.337   1
  -5  -9   2 563.131 352.620  14
   5   9  -2 949.638 431.738   5
   5  -9  -2-277.100 485.795   8
   5   9  -2 845.517 439.557  19
   5  -9  -2 1134.96 501.681  18
   5   9  -2 791.718 385.263   4
  -5   9   3 228.861 325.499  17
   5  -9  -3 539.855 120.376   8
  -5  -9   3 699.516 431.431   6
   5  -9  -3 589.983 323.453   1
  -5  -9   3 596.220 338.683  14
   5   9  -3 863.985 483.636   5
  -5  -9   3 498.788 310.001   1
   5   9  -3 474.499 343.568  19
   5   9  -3 1051.83 550.227   4
   5  -9  -3 1156.19 522.570  18
  -5   9   4 179.626 310.449  17
  -5  -9   4 1.50239 80.1359   1
  -5  -9   4 135.926 193.759   6
   5  -9  -4 8.65713 177.600   1
  -5  -9   4 148.347 180.435  14
   5   9  -4 318.505 305.210   5
   5   9  -4-571.436 403.743  12
  -5   9   4-864.338 536.545  19
   5  -9  -4 211.659 234.591   8
   5   9  -4 93.5140 108.018  19
   5   9  -4 288.819 292.895   4
   5  -9  -4 485.945 390.680  18
  -5   9   5 141.091 306.441  17
  -5  -9   5-117.489 390.636   8
  -5  -9   5 784.080 437.291   6
  -5  -9   5 687.516 334.522  14
   5  -9  -5 578.968 356.700   1
   5   9  -5 812.080 430.383   5
   5   9  -5-11.3829 193.252  12
  -5   9   5-148.456 286.840  19
  -5  -9   5 473.547 264.197   1
   5  -9  -5 884.004 374.289   8
   5   9  -5 1003.37 544.487   4
   5   9  -5 412.745 323.893  19
   5  -9  -5 909.840 465.493  18
  -5   9   6 150.373 310.499  17
  -5  -9   6-128.500 193.934   8
  -5  -9   6 117.332 192.641   6
  -5  -9   6 243.306 212.007   1
  -5  -9   6 9.35463 88.0120  14
   5  -9  -6 1.86885 44.0889   1
   5   9  -6 150.622 226.582   5
   5   9  -6-80.4619 189.687  12
  -5   9   6 198.867 205.437  19
   5   9  -6 104.764 186.986   4
   5   9  -6 3.34990 222.035  19
   5  -9  -6 136.116 114.174   8
   5  -9  -6 139.157 192.830  18
  -5  -9   7 103.134 126.864   8
  -5   9   7-3.55204 194.999  17
   5   9  -7-138.986 175.764   3
  -5  -9   7 744.827 364.227   1
  -5  -9   7 645.134 410.414   6
  -5  -9   7 537.705 324.435  14
   5  -9  -7 586.060 207.742  13
   5   9  -7 647.835 399.932   5
   5  -9  -7 283.677 235.140   1
   5   9  -7 57.7199 147.156  12
  -5   9   7 243.888 295.507  19
   5   9  -7 941.631 536.094   4
   5   9  -7 245.086 260.958  19
   5  -9  -7 865.629 373.416   8
   5  -9  -7 559.672 426.748  18
  -5  -9   8-218.325 241.907   8
  -5   9   8 91.8855 252.659  17
   5   9  -8-36.7327 150.165   3
  -5  -9   8 157.138 227.812   6
  -5  -9   8 128.206 198.919  14
   5   9  -8 18.6862 138.567   5
   5  -9  -8-64.2008 184.373  13
   5  -9  -8 2.26964 90.7638   1
   5   9  -8-74.8629 218.023  12
  -5  -9   8 32.4446 120.282   1
   5   9  -8 51.9000 245.542   4
  -5   9   8 105.785 202.711  19
   5   9  -8-80.8465 209.232  19
   5  -9  -8 85.6513 209.181   8
   5  -9  -8-69.4841 216.042  18
  -5  -9   9 277.045 166.864   8
  -5   9   9 200.428 274.796  17
   5   9  -9-233.046 226.414   3
  -5  -9   9 661.384 385.459   6
  -5  -9   9 722.086 356.586  14
  -5  -9   9 1021.59 392.598   1
   5   9  -9 597.977 387.531   5
   5  -9  -9 703.923 289.891  13
   5  -9  -9 412.018 280.333   1
   5   9  -9 239.480 229.242  12
   5   9  -9 671.797 455.320   4
  -5   9   9 161.668 124.779  19
   5   9  -9 74.6186 152.894  19
   5  -9  -9 525.862 283.107   8
   5  -9  -9 447.260 339.009  18
  -5  -9  10 200.238 12.2318   8
  -5   9  10-115.177 181.096  17
   5   9 -10 22.0042 104.660   3
  -5  -9  10 963.768 470.386   6
  -5  -9  10 1097.92 384.090   1
  -5  -9  10 558.830 307.644  14
  -5   9  10-511.963 683.003   2
   5   9 -10 661.104 395.397   5
   5  -9 -10 933.643 421.386  13
   5   9 -10 147.745 188.004  12
   5  -9 -10 203.824 221.915   1
   5  -9 -10 1441.57 704.275  11
   5   9 -10 719.210 502.786   4
  -5   9  10-36.0077 184.151  19
   5   9 -10 209.619 77.5081  19
   9  -5 -10 313.602 191.533  18
   5  -9 -10 411.985 333.711  18
   5  -9 -10 360.406 119.823   8
   9   5 -11 22.5492 221.339   3
  -9   5  11 540.522 545.708  17
  -5   9  11 2042.89 939.278  17
   5   9 -11 128.702 163.167   3
  -5  -9  11 1309.70 564.309   6
  -9  -5  11 56.3253 311.740   6
  -9   5  11 17.3870 80.0692   6
  -5  -9  11 711.694 339.135  14
   5   9 -11 453.858 353.966   5
  -5   9  11 568.552 320.687   2
   5  -9 -11 2808.25 767.456  13
   5   9 -11 476.556 380.519  12
   5   9 -11 814.167 489.746   4
   5  -9 -11 1536.40 747.830  11
   5  -9 -11 910.382 509.918   1
  -5   9  11 2138.49 682.066  19
   5   9 -11 372.726 277.138  19
   9  -5 -11 435.241 356.475  18
   5  -9 -11 846.935 484.065  18
  -5  -9  11 934.287 362.208   1
  -5  -9  11 501.868 368.113   8
  -9   5  12-204.626 275.062  17
   5  -9 -12 686.126 227.748   3
   9   5 -12 329.325 323.678   3
  -5   9  12 7.11869 160.664  17
  -5  -9  12 1633.94 577.100   6
   5   9 -12-15.5989 200.644   3
  -9  -5  12 68.8474 200.588   6
  -9   5  12 145.711 192.557   6
  -5  -9  12 1523.39 521.175  14
   5   9 -12 14.9649 339.718   5
  -5   9  12 310.367 341.608   2
   5  -9 -12 1847.85 545.435  13
   5   9 -12 24.9732 62.6545  12
   5   9 -12 131.753 467.895   4
   9   5 -12 499.557 77.3678  12
   5  -9 -12 1323.04 692.436  11
   5  -9 -12 573.996 261.145   1
  -5  -9  12 1151.67 389.469   1
  -5   9  12 190.426 189.868  19
   5   9 -12 349.412 153.579  19
   9   5 -12 1255.09 483.936   4
   9  -5 -12 1476.38 715.683  18
   5  -9 -12 974.065 515.969  18
  -5  -9  12 962.528 480.338   8
  -9   5  13 607.195 603.990  17
   5  -9 -13 263.187 118.775   3
  -9   5  13-12.8483 24.8877   6
  -9  -5  13 264.452 360.118   6
   9  -5 -13-474.616 534.681  13
   5   9 -13-87.1442 214.570  19
   6  -9  -2 250.210 289.687  18
   6  -9  -3-11.9419 213.085  18
  -6   9   4 285.259 385.325  17
  -6  -9   4 369.101 370.728   6
   6   9  -4 810.994 444.701   5
   6   9  -4 609.270 398.597  19
   6   9  -4 956.927 418.716   4
   6  -9  -4 1574.93 667.480  18
  -6   9   5-112.281 266.070  17
  -6  -9   5 46.4099 131.086   6
  -6  -9   5 194.064 265.141  14
   6   9  -5 237.193 285.643   5
   6  -9  -5-142.613 363.345   8
   6   9  -5 42.3603 84.2142  19
   6   9  -5 214.657 133.945   4
   6  -9  -5 196.561 278.010  18
  -6  -9   5 166.547 188.910   1
  -6   9   6 140.750 315.105  17
  -6  -9   6 506.451 404.895   6
  -6  -9   6 437.252 246.638   1
   6  -9  -6 86.7196 180.345   1
  -6  -9   6 487.837 300.161  14
   6   9  -6 969.272 506.931   5
   6   9  -6-129.903 323.181  12
  -6   9   6-493.831 477.410  19
   6   9  -6 880.848 504.390   4
   6   9  -6 578.233 383.588  19
   6  -9  -6 878.242 514.769  18
   6  -9  -6 746.819 363.118   8
  -6   9   7 139.180 310.774  17
  -6  -9   7 245.457 177.665   6
   6  -9  -7-6.78054 276.498   1
  -6  -9   7 386.168 313.097  14
   6   9  -7 373.982 362.673   5
   6   9  -7 92.7451 115.665  12
  -6  -9   7 266.485 188.506   1
  -6   9   7-136.336 311.056  19
   6   9  -7 677.138 509.752   4
   6  -9  -7 418.132 241.908   8
   6   9  -7 233.784 239.049  19
   6  -9  -7 572.431 438.370  18
   6   9  -8-112.761 312.801   3
  -6   9   8 55.3223 184.995  17
  -6  -9   8-103.662 374.700   8
  -6  -9   8 692.245 443.984   6
  -6  -9   8 699.624 352.585   1
  -6  -9   8 411.560 300.093  14
   6  -9  -8 234.749 201.025   1
   6  -9  -8 465.088 234.320  13
   6   9  -8 914.355 440.667   5
   6   9  -8 283.015 243.552  12
  -6   9   8 181.412 119.980  19
   6   9  -8 1022.88 567.994   4
   6   9  -8 276.135 306.157  19
   6  -9  -8 812.870 349.506   8
   6  -9  -8 662.893 462.178  18
  -6  -9   9-67.8810 273.687   8
  -6   9   9 297.230 459.648  17
   6   9  -9-15.1854 110.379   3
  -6  -9   9 202.813 303.083   6
  -6  -9   9 19.4773 71.7763  14
   6  -9  -9-132.360 284.242   1
   6  -9  -9-76.5372 135.488  13
   6   9  -9 284.872 274.140   5
   6   9  -9-44.7245 97.3265  12
  -6   9   9-18.7309 103.950  19
   6   9  -9 261.935 359.407   4
   6   9  -9-176.141 210.740  19
   6  -9  -9 102.814 233.002   8
  -6  -9   9 363.478 303.647   1
   6  -9  -9 49.5867 276.250  18
  -9   6  10 235.221 308.812  17
  -6  -9  10 252.949 220.691   8
  -6   9  10 655.119 556.042  17
   6   9 -10 185.238 169.463   3
  -6  -9  10 1197.00 537.864   6
  -6  -9  10 903.544 409.941  14
   6   9 -10 990.705 494.651   5
   6  -9 -10 1597.67 534.443  13
   6  -9 -10 496.118 344.747   1
  -6  -9  10 1241.41 421.864   1
   6   9 -10 225.204 310.295  12
   6   9 -10 968.889 508.787   4
  -6   9  10 252.095 312.591  19
   6   9 -10 487.183 329.883  19
   9  -6 -10 642.888 484.927  18
   6  -9 -10 1241.60 661.601  18
  -9   6  11 239.012 506.615  17
  -6  -9  11-276.427 285.529   8
  -6   9  11-19.5995 89.2537  17
   6   9 -11-318.857 284.696   3
  -6  -9  11 148.878 222.485   6
  -9  -6  11 200.707 396.373   6
  -9   6  11-88.9632 94.7753   6
  -6  -9  11 206.746 178.787   1
  -6  -9  11 274.322 275.249  14
   6   9 -11 361.072 296.498   5
   6  -9 -11 182.994 49.2636  13
   6  -9 -11 33.1822 8.62633   1
   6   9 -11-161.767 285.271  12
   6   9 -11 106.907 232.255   4
  -6   9  11 169.846 214.866  19
   6   9 -11-19.8694 144.609  19
   9  -6 -11 438.918 457.249  18
   6  -9 -11 274.825 312.083  18
   7  -9  -3-346.966 688.607  18
   7  -9  -4 43.5979 337.286  18
  -7   9   5 308.666 408.862  17
   7  -9  -5 541.675 452.565  18
  -7   9   6 221.243 371.204  17
  -7  -9   6 479.305 452.645   6
   7   9  -6 1016.20 590.544   4
   7  -9  -6 1115.67 557.626  18
  -7   9   7 164.699 355.497  17
  -7  -9   7 69.5021 47.3397   6
  -7  -9   7 307.413 278.621  14
   7   9  -7 685.757 442.944   5
   7  -9  -7-14.8267 317.391   8
  -7  -9   7 110.786 173.229   1
   7   9  -7 747.546 520.259   4
   7  -9  -7 516.277 405.886  18
  -7   9   8 297.895 449.786  17
   7   9  -8 22.1584 132.509  19
  -7  -9   8 407.102 264.365   1
  -7  -9   8 83.9096 225.203   6
  -7  -9   8 568.621 374.269  14
   7   9  -8 1304.40 601.293   5
   7   9  -8-186.752 246.968  12
  -7   9   8-556.857 459.179  19
   7  -9  -8 815.505 363.235   8
   7   9  -8 1477.19 753.203   4
   7  -9  -8 1101.43 595.108  18
  -9   7   9-17.4397 241.830  17
  -7   9   9 586.253 561.253  17
  -7  -9   9 350.424 405.348   6
  -7  -9   9 304.767 319.785  14
   7   9  -9 448.736 356.262   5
  -7  -9   9 568.587 355.448   1
   7   9  -9 189.749 195.852  12
  -7   9   9 55.2448 201.994  19
   7   9  -9 835.440 588.000   4
   7   9  -9 122.221 168.874  19
   9  -7  -9 343.034 373.696  18
   7  -9  -9 574.059 450.291  18
  -9   7  10 505.807 523.327  17
   7   9 -10-247.869 268.279   3
  -7   9  10 450.672 548.442  17
  -7  -9  10 482.739 277.993   1
  -7  -9  10 360.556 369.672   6
  -7  -9  10 259.263 294.921  14
   7   9 -10 40.4622 152.653   5
   7   9 -10-341.327 323.705  12
  -7   9  10 185.969 277.896  19
   7   9 -10-41.8616 177.531  19
   9  -7 -10 234.122 269.048  18
   7  -9 -10 375.260 438.676  18
  -8   9   6 364.700 397.380  17
   8  -9  -6 63.8919 165.394  18
  -8   9   7 26.1830 189.866  17
   8  -9  -7 2100.76 857.993  18
  -9   8   8-54.7805 104.293  17
  -8   9   8-114.319 251.837  17
   0  10   0 76.7251 97.1738  17
   0 -10   0 11.9949 22.9272   6
   0 -10   0 66.8147 106.891   1
   0 -10   0 76.5731 119.394  14
   0  10   0 36.6087 82.2960   5
   0  10   0 37.2397 56.2800   2
   0  10   0-116.651 124.449  12
   0  10   0-139.354 329.647   4
   0  10   0 147.244 250.207  19
   0 -10   0-27.3930 81.6557   8
   0 -10   1-45.9421 116.204   1
   0  10  -1 18.5382 40.2588  17
   0  10   1-89.0900 121.496  17
   0 -10   1-5.17623 35.5613   6
   0 -10  -1 3.62159 17.2091   6
   0 -10  -1-11.4298 122.306   1
   0 -10   1-5.53656 27.2531  14
   0 -10  -1-19.5456 47.6966  14
   0  10  -1 7.27598 98.4198   5
   0  10   1 55.9157 223.843   5
   0 -10  -1-62.7800 88.6826  13
   0  10   1 163.509 262.414   2
   0  10  -1-121.014 171.689  12
   0  10   1-7.61455 65.8487  12
   0  10  -1-325.181 402.104   4
   0  10   1-65.1025 149.451   4
   0  10  -1 32.4663 147.588  19
   0  10   1-126.197 199.619  19
   0 -10   1 165.819 276.435   8
   0 -10  -1 70.4803 167.136   8
   0  10  -2 21.0820 19.0635  17
   0  10  -2-206.688 129.021   3
   0  10   2-74.5313 121.710  17
   0 -10   2 34.7449 45.8991   6
   0 -10  -2 51.5527 63.8775   6
   0 -10   2-70.6186 144.362  14
   0 -10  -2 56.3623 122.925  14
   0 -10  -2 98.9011 165.667   1
   0  10  -2-150.496 233.971   5
   0  10   2 52.9109 171.210   5
   0 -10  -2 368.891 185.714  13
   0  10   2 15.6876 184.329   2
   0  10  -2-24.6006 101.952  12
   0  10   2 30.8160 198.566   4
   0  10  -2 42.7111 171.326  19
   0  10   2-96.9280 190.217  19
   0 -10   2 103.306 148.617   8
   0 -10  -2-40.4960 230.079   8
   0 -10   2-3.84169 143.066   1
   0 -10   2-86.0877 169.424  18
   0 -10  -3-23.1381 187.868   8
   0  10  -3 38.2371 54.6274  17
   0 -10   3-32.5115 118.946   6
   0  10   3-37.2326 134.119  17
   0 -10  -3-8.96759 25.8352   6
   0  10  -3 2.51807 58.9340   3
   0 -10   3-57.4109 121.422  14
   0 -10  -3 23.2271 110.782  14
   0  10  -3-435.384 442.924   5
   0  10   3 74.8443 119.492   5
   0 -10  -3-23.8508 63.9611   1
   0  10  -3-5.87609 44.0741  12
   0  10   3 57.3468 177.532   2
   0  10   3 20.1630 122.538   4
   0  10  -3-48.0656 101.900  19
   0  10   3 185.031 145.969  19
   0 -10   3 24.6416 100.022   1
   0 -10   3 96.1950 182.047   8
   0 -10   3-38.4437 104.002  18
   0 -10  -4 352.162 307.637   8
   0 -10  -4 804.893 210.681   6
   0  10  -4-74.7868 118.291  17
   0 -10   4 208.701 66.0010   6
   0  10   4-47.0314 132.092  17
   0 -10   4 1394.25 550.118   1
   0  10  -4 1.21789 62.3394   3
   0 -10   4 749.563 345.203  14
   0 -10  -4 525.689 258.872  14
   0  10   4 576.058 355.754   5
   0 -10  -4 943.103 423.323   1
   0  10  -4 597.630 354.416  12
   0  10   4 1279.87 513.591   2
   0  10   4 682.315 343.352   4
   0  10  -4 113.195 319.128  19
   0  10   4 347.510 292.464  19
   0 -10   4 1339.93 511.594   8
   0 -10   4 583.869 215.314  18
   0 -10  -5-120.949 340.659   8
   0  10  -5 7.71704 61.6607  17
   0 -10   5-123.460 219.348   6
   0  10   5-49.7221 135.141  17
   0 -10   5-25.3035 102.698  16
   0  10   5-9.89825 26.4515  16
   0 -10  -5 82.5668 89.8635   6
   0  10  -5 717.961 293.757   3
   0 -10   5-20.1453 62.8145  14
   0 -10  -5 61.8494 106.364  14
   0  10   5 101.533 192.355   5
   0 -10  -5-28.8279 42.8555   1
   0 -10   5-47.7032 227.036   1
   0  10   5 206.229 261.742   2
   0 -10   5-272.191 178.112  11
   0  10   5-33.9796 100.419   4
   0  10  -5 173.540 261.254  19
   0  10   5 9.02575 130.786  19
   0 -10   5 358.861 355.744   8
   0 -10   5-49.0293 104.224  18
   0  10  -6 291.965 160.321  17
   0 -10  -6 1143.00 254.159   6
   0  10   6 2.77354 77.5085  17
   0 -10   6 1168.63 397.956  16
   0  10   6 595.615 174.952  16
   0 -10   6 919.805 393.226  14
   0 -10  -6 611.004 262.047  14
   0  10   6 887.851 467.557   5
   0 -10   6 1254.09 526.023   1
   0 -10   6 662.329 167.697  11
   0  10   6 1100.45 446.961   2
   0 -10  -6 956.173 454.146   1
   0  10  -6 119.134 228.004  19
   0  10   6 1031.14 426.043   4
   0  10   6 873.554 420.646  19
   0 -10   6 1577.71 605.042   8
   0 -10   6 890.299 277.098  18
   0  10  -7 166.759 120.304  17
   0  10   7 7.77895 95.6896  17
   0 -10   7 62.1096 135.257  16
   0  10   7 27.6562 62.3231  16
   0 -10  -7-18.2990 15.5920   6
   0 -10   7-70.3185 132.742  14
   0 -10  -7 94.8802 130.515  14
   0 -10   7 4.94302 179.649   1
   0  10   7 186.860 267.629   5
   0 -10   7 21.3839 10.5193  11
   0  10   7-57.6544 97.9674   2
   0  10  -7 176.753 201.257  19
   0  10   7 14.1982 113.546   4
   0  10   7-64.4928 174.884  19
   0 -10   7 155.049 330.443   8
   0 -10  -7 85.1035 209.894   1
   0 -10   7 0.17699 89.3034  18
   0 -10  -8 500.022 368.199   1
   0  10  -8 60.8826 16.2369  17
   0  10   8 14.9003 73.0386  17
   0 -10   8 973.371 415.236  16
   0  10   8 341.198 143.373  16
   0 -10  -8 558.565 190.133   6
   0 -10   8 395.282 217.349  14
   0 -10   8 261.720 125.286   1
   0 -10  -8 364.140 212.347  14
   0  10   8 627.865 385.012   5
   0 -10   8 847.055 200.142  11
   0  10  -8 226.264 278.235  19
   0  10   8 1055.47 499.719   2
   0  10   8 741.781 395.956   4
   0  10   8 269.033 288.441  19
   0 -10   8 749.592 438.944   8
   0 -10   8 752.160 249.076  18
   0  10  -9 209.121 140.146  17
   0 -10  -9-16.5730 193.580   1
   0  10   9 99.8630 192.035  17
   0 -10   9 111.789 186.002  16
   0  10   9-112.345 115.519  16
   0 -10   9-125.438 181.201  14
   0 -10  -9 11.1318 21.2173  14
   0  10   9-62.9811 52.2357   5
   0  10  -9-37.0725 54.3484  19
   0  10   9 47.5208 250.584   2
   0  10   9 198.772 258.524   4
   0 -10   9 151.317 147.602   8
   0  10   9-640.746 476.384  19
   0 -10   9-4.45528 9.19825  18
   0  10  10-232.626 213.684  17
   0 -10 -10 60.2350 180.998   1
   0 -10  10 58.9552 69.1197  16
   0  10  10-56.5898 123.972  16
   0 -10  10-180.106 319.618  14
   0 -10 -10 46.5554 76.5202  14
   0  10  10 90.9610 135.857   5
   0  10 -10-381.670 305.497  19
   0  10  10 237.096 267.152   2
   0  10  10 191.738 182.779   4
   0 -10  10 61.1500 129.977   8
   0 -10  10 201.377 128.744  18
   0  10  11-176.346 189.605  17
   0 -10  11 91.3778 206.548  16
   0 -10 -11 112.387 200.377   1
   0  10  11-222.878 214.821  16
   0 -10 -11-2.27686 43.3819  14
   0  10  11 149.309 152.048   5
   0  10 -11-51.5100 199.916  19
   0  10  11 65.2351 140.316   4
   0  10  11 36.5853 48.5343   2
   0 -10  11-276.317 334.382   8
   0  10  12-225.946 218.678  17
   0 -10  12 97.3284 197.207  16
   0  10  12-146.690 203.985  16
   0 -10 -12 164.683 215.203   1
   0 -10 -12 66.5477 129.833  14
   0  10  12-24.0507 112.833   5
   0  10 -12 125.821 158.499  19
   0 -10  12 77.4275 130.766   8
   0  10  12 145.086 188.603   4
   0  10  12 90.4281 27.3182   2
   0  10  13-462.490 318.726  17
   0 -10  13-8.83275 78.7718  16
   0  10  13-228.665 246.485  16
 -10   0  13 181.940 256.707   6
   0 -10 -13 102.240 222.866   1
   0 -10 -13 68.9351 130.296  14
   0  10  13 158.584 258.176   5
   0  10 -13 76.4446 292.337  19
   0 -10  13-85.8877 76.3020   8
   0  10  13 7.94220 102.931   4
   0  10  13 83.9526 171.735   2
  -1  10   0 250.004 236.433  17
   1  10   0 20.2450 16.1068  17
  -1 -10   0 19.0092 87.8857   6
   1 -10   0 23.1112 87.4269  14
  -1 -10   0-20.5841 51.2059  14
  -1  10   0-212.961 390.626   5
  -1 -10   0 28.6316 74.9925   1
   1  10   0-5.71333 59.5674   5
  -1 -10   0 15.5101 25.4433  13
   1  10   0 47.4134 196.167   2
  -1  10   0-46.9390 42.5333  12
   1  10   0-0.74438 39.3263  12
   1 -10   0-95.1460 162.261  11
   1  10   0-39.9708 113.729   4
  -1  10   0 100.192 177.111  19
   1  10   0-57.1872 163.402  19
   1 -10   0-0.81455 175.783   8
   1 -10   0 16.3509 69.0668   1
   1 -10   0-5.33916 86.2144  18
  -1 -10   0-142.857 219.749   8
  -1 -10  -1 6.85067 18.9895   8
   1 -10  -1 312.782 283.389   1
  -1  10  -1 73.5850 134.076  17
  -1  10   1 132.444 161.767  17
   1  10  -1-7.43568 69.7823  17
  -1  10  -1-8.37001 55.0571   3
   1  10   1 2.00154 67.6211  17
  -1 -10   1 173.682 161.646   6
  -1 -10  -1 137.830 128.301   6
   1 -10   1 77.0427 100.129  14
   1 -10  -1 119.515 119.405  14
  -1 -10   1 183.701 212.924   1
  -1  10  -1-362.528 446.425   5
  -1 -10   1 123.309 124.406  14
  -1 -10  -1 93.1300 155.244  14
  -1  10   1-93.7277 235.170   5
  -1  10   1-417.505 562.078   2
   1  10  -1 249.214 262.133   5
   1  10   1 177.847 254.508   5
   1  10  -1 95.8170 200.703   2
  -1  10  -1 109.405 178.241  12
  -1 -10  -1 217.754 190.221   1
  -1  10   1-21.0775 106.263  12
   1  10  -1-83.9547 158.524  12
   1  10   1 156.601 210.960   2
   1 -10   1 93.5070 32.0133  11
   1  10  -1 36.5609 97.8691   4
   1 -10  -1 36.4996 126.901  11
   1  10   1 54.4293 137.810   4
  -1  10  -1 92.3496 220.223  19
  -1  10   1-42.9545 83.7011  19
   1  10  -1 183.580 258.412  19
   1  10   1-14.4961 108.350  19
   1 -10   1 87.1142 98.2481   1
   1 -10   1 189.696 233.289   8
   1 -10  -1 55.1125 128.725   8
   1 -10   1 135.071 163.394  18
  -1 -10   1 27.3127 171.762   8
   1 -10  -1 35.2212 118.140  18
  -1 -10  -2-22.6497 243.963   8
  -1  10  -2 215.905 189.033  17
  -1  10   2-42.5404 131.490  17
   1 -10  -2-19.6659 57.0318   1
   1  10  -2-58.3397 78.2843  17
   1  10   2-74.0832 95.8767  17
  -1 -10   2-24.3210 13.3558   6
  -1 -10  -2 9.22581 28.5096   6
  -1  10  -2 75.5272 75.7792   3
  -1 -10   2 92.8421 190.113   1
   1 -10   2 81.3177 147.436  14
   1 -10  -2-2.01870 21.4153  14
  -1 -10   2 32.8610 86.1827  14
  -1 -10  -2 60.4585 98.0857  14
   1  10  -2-36.5785 217.479   2
  -1  10   2 8.75092 60.8828   5
   1  10  -2-9.56164 99.5458   5
  -1  10   2 9.65604 187.344   2
   1 -10  -2-87.7760 137.220  13
   1  10   2 121.085 249.763   5
  -1  10  -2 898.108 359.410  12
   1  10  -2-138.700 144.443  12
  -1  10   2-38.9337 106.009  12
  -1  10   2-299.281 421.473   4
   1  10  -2 72.0568 165.943   4
   1 -10   2 234.313 178.098  11
   1  10   2-10.3773 110.145   2
  -1 -10  -2 134.019 191.759   1
   1 -10  -2-167.545 224.705  11
   1 -10   2 79.9571 112.125   1
   1  10   2-41.7900 87.3466   4
  -1  10  -2 71.7424 310.424  19
  -1  10   2-58.0934 153.735  19
   1  10  -2 39.0905 126.637  19
   1  10   2-127.053 264.265  19
   1 -10   2 305.486 343.758   8
   1 -10  -2-28.0238 72.9051   8
   1 -10   2 97.4495 166.226  18
  -1 -10   2-49.0897 180.854   8
   1 -10  -2-46.6815 121.745  18
  -1 -10  -3 83.5882 74.2809   8
  -1  10  -3 74.4269 129.220  17
   1  10  -3-127.629 141.869   3
  -1  10   3-183.826 190.403  17
   1 -10  -3-19.1841 79.3499   6
   1  10  -3-14.2286 64.7190  17
  -1 -10   3 302.676 298.829   1
   1  10   3-157.987 143.973  17
  -1 -10   3 178.884 136.838   6
   1 -10   3 65.3401 57.8100  16
   1 -10  -3 351.567 287.352   1
  -1 -10  -3 132.698 102.733   6
   1 -10   3 41.3296 57.9845  14
   1 -10  -3 50.2331 30.9855  14
  -1 -10   3 271.443 227.035  14
  -1 -10  -3 175.650 157.605  14
   1  10  -3 106.184 204.062   5
  -1  10   3 166.502 171.890   5
   1  10   3 382.734 320.244   5
  -1  10   3 218.034 259.060   2
   1 -10  -3 357.234 148.344  13
   1  10  -3-45.8805 107.813  12
   1 -10   3 262.636 187.069   1
  -1  10   3-174.204 279.914   4
   1  10  -3-141.437 340.709   4
   1 -10   3 1451.67 471.655  11
   1  10   3 135.446 183.147   2
  -1  10  -3 132.021 196.933  19
   1  10   3 254.656 304.364   4
   1  10  -3 103.454 203.194  19
  -1  10   3 18.3060 95.0971  19
  -1 -10  -3 207.592 239.143   1
   1 -10   3 364.488 303.936   8
   1  10   3 83.5832 165.403  19
  -1 -10   3 207.855 201.378   8
   1 -10   3 262.803 228.169  18
   1 -10  -3 171.566 194.216   8
   1 -10  -3-57.2856 226.302  18
  -1 -10   4-20.1234 160.988   1
  -1 -10  -4 84.6735 122.477   1
  -1  10  -4 64.9499 86.8546  17
  -1  10   4 106.080 151.792  17
   1 -10  -4-28.9625 61.1246   6
   1  10  -4-92.0121 106.341  17
  -1 -10   4 28.5311 8.76304   6
   1  10   4-184.153 176.885  17
   1  10  -4-96.2361 128.246   3
   1 -10   4-27.8092 45.3396  16
   1 -10  -4 68.8813 67.0254   1
  -1 -10  -4 103.274 125.437   6
   1 -10   4-50.9297 166.627  14
   1 -10  -4 10.5183 28.8407  14
  -1 -10   4 7.73364 135.924  14
  -1 -10  -4-13.8937 31.6350  14
   1  10  -4-31.6370 200.401   5
  -1  10   4 17.7664 160.230   5
   1  10   4-27.0903 113.162   5
   1 -10  -4 3.88183 124.563  13
  -1  10   4-31.8997 185.035   2
   1 -10   4-67.4258 220.852   1
   1  10  -4-164.286 156.629  12
   1  10  -4-213.869 435.434   4
  -1  10   4-391.352 259.573   4
  -1  10  -4-3.69718 379.451  19
   1  10  -4 58.6528 239.130  19
   1  10   4 85.5192 139.146   4
   1  10   4 0.19750 21.8396   2
  -1  10   4-147.328 164.515  19
   1  10   4 88.2139 209.738  19
   1 -10   4 110.003 190.784   8
  -1 -10   4 120.687 244.612   8
   1 -10   4 29.4633 81.1952  18
   1 -10  -4-202.577 270.476   8
   1 -10  -4-220.475 248.748  18
   1 -10  -5 346.543 231.933   8
  -1  10  -5 315.286 212.495  17
  -1  10   5-23.7279 96.9122  17
   1  10  -5-161.415 126.472  17
   1 -10  -5 180.657 81.4356   6
  -1 -10   5 745.733 291.995   6
   1  10   5-84.3570 140.177  17
  -1 -10  -5 560.453 307.225   1
   1  10  -5 83.7984 95.0571   3
   1 -10   5 835.424 299.441  16
  -1 -10  -5 677.834 244.158   6
   1 -10   5 422.472 266.000  14
   1 -10  -5 865.316 421.823   1
  -1 -10   5 769.412 337.090  14
   1 -10  -5 365.289 212.060  14
   1  10  -5-69.3039 356.008   5
  -1 -10  -5 454.851 219.372  14
  -1  10   5 558.671 387.506   5
   1 -10   5 917.300 472.641   1
   1  10   5 396.749 315.543   5
  -1  10   5 879.073 449.069   2
   1  10  -5 211.398 186.432  12
  -1  10   5 370.359 210.975   4
  -1  10  -5 144.163 204.711  19
   1  10  -5 267.133 222.744  19
  -1  10   5 433.952 383.978  19
   1  10   5 756.547 356.772   4
   1  10   5 693.378 318.378   2
   1  10   5 456.573 369.791  19
   1 -10   5 1058.34 476.067   8
  -1 -10   5 1207.65 472.563   1
  -1 -10   5 949.619 441.921   8
   1 -10   5 854.964 343.149  18
   1 -10  -5-89.4569 337.098  18
   1 -10  -6-64.8925 208.515   8
  -1  10  -6 272.132 243.317  17
  -1  10   6-56.2439 91.0665  17
   1  10  -6-39.1741 88.8409  17
  -1 -10   6-22.1971 95.2414   6
   1 -10  -6-8.90396 12.1290   6
   1  10   6-238.405 191.004  17
  -1  10   6-37.8878 68.5339  16
   1 -10   6 19.6589 77.5339  16
   1  10  -6 37.3962 63.1857   3
  -1 -10  -6 45.1245 182.506   1
   1 -10   6-45.0885 215.512  14
  -1 -10  -6-28.0344 17.0821   6
  -1 -10   6-42.3421 144.119  14
   1 -10  -6 32.2668 87.7461  14
   1 -10  -6 101.010 207.836   1
  -1 -10  -6 4.04396 24.8942  14
   1 -10   6-63.7009 263.191   1
  -1  10   6 138.705 221.350   5
   1  10   6-18.4151 109.176   5
   1  10  -6 360.278 313.526  12
  -1  10   6 88.2318 228.810   2
  -1  10   6 170.642 209.485   4
  -1  10  -6 9.12004 117.468  19
  -1 -10   6-28.5106 117.613   1
   1  10  -6-31.9866 177.048  19
  -1  10   6 18.8513 25.7787  19
   1  10   6 145.370 215.795   4
   1 -10   6-9.70756 52.6473   8
   1  10   6-242.075 270.992  19
   1  10   6-24.1401 116.476   2
  -1 -10   6-85.1264 118.743   8
   1 -10   6 140.040 185.569  18
  -1  10  -7 313.803 254.406  17
   1 -10  -7-37.6376 344.661   8
   1 -10  -7 356.295 109.863   6
   1  10  -7-139.045 90.9410  17
  -1 -10   7 719.556 288.534   6
  -1  10   7 169.014 205.455  17
   1  10   7-324.355 228.167  17
  -1  10   7 869.439 260.894  16
  -1 -10   7 710.100 333.061  16
   1 -10   7 928.487 355.475  16
   1  10  -7 531.221 313.340   3
   1 -10   7 126.282 65.6114  14
  -1 -10  -7-36.9064 294.214   6
  -1 -10   7 1010.76 396.715  14
   1 -10   7 320.816 226.640   1
   1 -10  -7 273.196 194.364  14
  -1 -10  -7 426.536 336.668   1
  -1 -10  -7 437.456 221.016  14
  -1  10   7 767.852 436.576   5
   1 -10  -7 1065.43 475.104   1
   1  10   7 840.949 437.315   5
   1  10  -7 978.511 463.192  12
  -1  10   7 1108.83 477.931   2
  -1 -10   7 1471.25 527.420   1
  -1  10   7 631.352 351.732   4
  -1  10  -7-16.3511 99.9332  19
   1  10  -7 16.0398 49.1835  19
  -1  10   7 647.147 389.095  19
   1 -10   7 907.641 491.540   8
   1  10   7 794.488 418.608   4
   1  10   7 527.635 249.902  19
  -1 -10   7 689.748 409.199   8
   1 -10   7 1009.02 383.322  18
   1  10   7 489.002 252.654   2
  -1  10  -8 50.7490 166.900  17
  -1 -10   8-138.436 190.599   6
   1  10  -8-51.9343 81.5488  17
  -1  10   8-85.1907 151.210  17
  -1 -10   8-17.9186 117.683  16
  -1  10   8 107.847 104.342  16
   1 -10   8 14.6787 85.3483  16
   1  10  -8 773.938 367.498   3
  -1 -10   8 32.4348 48.0202  14
   1 -10  -8 28.2264 70.9392  14
  -1 -10  -8 41.6675 135.218  14
  -1  10   8 26.0714 178.417   5
  -1 -10  -8 41.0526 50.9439   1
   1 -10  -8 100.920 164.372   1
  -1 -10   8-52.5391 193.169   1
   1  10   8 31.4849 110.420   5
  -1  10   8 264.990 319.028   2
  -1  10   8 75.0191 111.811   4
  -1  10  -8-18.7231 89.9007  19
   1  10  -8 157.907 233.405  19
   1 -10   8 146.914 311.627   8
  -1  10   8 2.32807 75.7054  19
   1  10   8 143.719 165.878   4
  -1 -10   8 15.2207 125.954   8
   1 -10   8 174.414 237.023  18
   1  10   8-101.153 195.497   2
  -1  10  -9 554.340 280.350  17
  -1 -10   9-56.7355 280.534   6
  -1  10   9-25.1436 147.752  17
  -1 -10   9 395.514 262.629  16
  -1  10   9 458.344 214.148  16
   1 -10   9 288.492 214.576  16
  -1 -10   9 225.252 186.105  14
   1 -10  -9 141.605 139.814  14
  -1 -10  -9 195.060 183.077  14
  -1 -10   9 184.998 81.4944   1
  -1  10   9 471.973 341.398   5
   1  10   9 302.693 271.356   5
  -1 -10  -9 80.3259 109.753   1
   1 -10  -9 186.117 151.182   1
  -1  10   9 325.318 281.842   2
  -1  10  -9-855.714 497.898  19
  -1  10   9 133.355 168.372   4
   1  10  -9 15.9118 129.117  19
   1 -10   9 378.517 354.539   8
  -1  10   9 111.652 114.351  19
   1  10   9 108.035 86.8025   4
  -1 -10   9 522.080 391.026   8
   1 -10   9 312.382 165.677  18
   1  10   9 204.735 215.405   2
  -1  10  10-87.0409 162.670  17
  -1 -10  10 7.88915 123.414  16
  -1  10  10 101.253 109.448  16
   1 -10  10-36.6268 83.1188  16
  -1 -10  10 46.2490 90.9043  14
   1 -10 -10-19.3656 23.1012  14
  -1 -10 -10 15.1630 70.5543  14
  -1  10  10 95.2744 206.205   5
   1  10  10-47.4862 60.7444   5
   1 -10 -10 67.4327 150.234   1
  -1  10  10 56.5524 163.343   2
  -1 -10 -10-47.8153 125.337   1
  -1  10  10 112.282 156.204   4
   1 -10  10-15.1252 52.0296   8
  -1  10  10-95.4558 318.558  19
  -1 -10  10-85.2153 78.1621   8
   1 -10  10-325.578 431.298  18
   1  10  10-115.054 200.935   4
   1  10 -10 307.353 365.833  19
   1  10  10 38.2666 57.9738   2
  -1  10  11 19.6638 56.0230  17
  -1 -10  11 202.687 300.601  16
  -1  10  11 39.1844 99.5223  16
   1 -10  11 141.560 214.521  16
  -1 -10  11-36.8427 116.114  14
   1 -10 -11 2.69896 28.8908  14
  -1 -10 -11 217.727 166.536  14
  -1  10  11 185.744 213.198   5
   1  10  11 214.802 277.316   5
  -1  10  11 264.538 323.271   2
   1 -10 -11 10.9542 107.495   1
   1  10 -11 274.251 446.955  19
  -1  10  11 152.758 208.317   4
   1 -10  11 172.631 245.287   8
  -1 -10  11 28.9768 317.868   8
  -1 -10 -11 8.13093 50.1899   1
   1  10  11-225.988 321.894   4
   1  10  11 173.055 256.166   2
  -1  10  12-180.079 202.037  17
  -1 -10  12 165.178 266.726  16
  -1  10  12 74.5401 127.211  16
   1 -10  12 26.2024 217.634  16
  -1 -10  12-228.846 387.062  14
   1 -10 -12 46.8860 110.785  14
  -1 -10 -12 12.8304 95.0698  14
  -1  10  12 166.920 263.605   5
   1  10  12 231.462 236.622   5
  -1  10  12 242.183 313.147   2
   1  10 -12 1474.87 717.633  19
  -1  10  12 161.504 204.837   4
   1 -10  12 104.894 337.222   8
   1 -10 -12 119.085 249.401   1
  -1 -10  12 321.591 459.302   8
   1  10  12 121.788 293.280   2
  -1 -10 -12 129.541 220.992   1
  -1  10  13 176.054 179.305   4
  -1  10  13-63.5075 138.137  17
  -1 -10  13 163.238 330.427  16
  -1  10  13 185.201 184.797  16
   1 -10  13 104.084 118.824  16
 -10  -1  13 141.079 208.352   6
 -10   1  13 13.4748 163.937   6
   1 -10 -13 131.868 172.877  14
  -1  10  13 379.268 319.926   5
   1  10 -13 503.081 430.321  19
  -1  10  13 292.162 374.086   2
   1 -10  13 445.908 418.562   8
  -1 -10  13 418.097 325.065   8
   1 -10 -13 126.121 206.988   1
  10  -1 -13-336.849 475.008  18
  -2 -10   0 730.118 405.892   8
  -2  10   0 46.8273 162.257  17
  -2 -10   0 1960.15 491.939   6
   2 -10   0 2336.19 709.633   1
  -2 -10   0 1851.08 605.331   1
  -2 -10   0 1438.84 458.321  14
   2 -10   0 323.553 222.041  14
   2  10   0 1647.17 453.253   2
   2  10   0 1609.63 608.675   5
  -2  10   0 204.210 264.274  19
   2  10   0 1465.71 602.081   4
   2  10   0 851.626 481.061  19
   2 -10   0 1802.12 598.963   8
   2 -10   0 1598.13 529.704  18
  -2 -10   1-119.221 297.019   8
  -2 -10  -1 8.98084 188.529   8
  -2  10  -1 306.116 295.793  17
  -2  10   1 115.871 262.052  17
  -2 -10  -1 5.67501 154.390   1
  -2 -10   1 90.9077 141.907   6
  -2 -10  -1 39.8916 63.9949   6
   2 -10   1-54.7918 156.483  14
   2 -10  -1-24.9152 87.4569  14
  -2 -10   1 103.821 139.646  14
  -2 -10  -1 66.4483 70.2374  14
   2  10  -1 40.0227 123.213   5
   2  10   1 92.8094 83.3806   5
  -2  10   1 40.8890 61.4805  12
   2 -10   1 64.6763 143.306   1
   2  10  -1-316.541 252.900  12
  -2 -10   1 1.30914 61.6541   1
   2  10  -1 182.271 192.940   2
   2 -10  -1 921.601 501.421  11
  -2  10  -1 109.375 273.760  19
   2  10  -1 60.6757 180.111   4
  -2  10   1 159.520 256.780  19
   2 -10  -1 95.3719 93.4328   1
   2  10   1 86.4692 214.971   4
   2  10  -1 54.1455 150.976  19
   2  10   1 27.3145 31.5668   2
   2  10   1-54.7703 248.630  19
   2 -10   1 53.8438 253.394   8
   2 -10  -1 247.674 296.215   8
   2 -10   1 88.3273 145.823  18
   2 -10  -1 138.815 155.560  18
  -2  10  -2 366.705 321.449  17
  -2 -10  -2-76.9473 448.389   8
  -2  10   2-122.454 167.306  17
  -2 -10   2 388.999 230.416   6
  -2 -10  -2 257.762 261.226   1
  -2 -10  -2 346.082 238.804   6
   2 -10   2-41.1780 221.501  14
   2 -10  -2 67.8080 74.6363  14
  -2 -10   2 356.590 239.238  14
  -2 -10  -2 242.901 207.430  14
   2  10  -2 266.914 336.212   5
   2  10   2 241.580 229.777   5
  -2 -10   2 359.115 303.595   1
   2 -10   2 366.562 264.868   1
   2  10  -2 425.601 266.941   2
  -2  10   2-2.15510 76.6219  12
   2  10  -2-92.3285 162.428  12
   2 -10  -2 253.735 235.127  11
   2  10  -2 201.094 249.417   4
  -2  10  -2-43.1517 87.5300  19
  -2  10   2 31.1737 193.650  19
   2  10  -2 154.016 122.242  19
   2  10   2 601.833 371.628   4
   2  10   2 197.228 253.532  19
   2 -10   2 345.323 345.793   8
   2 -10  -2 419.128 327.329   1
   2  10   2 55.9446 110.632   2
   2 -10  -2 380.412 320.782   8
   2 -10   2 374.224 286.090  18
   2 -10  -2 378.893 262.888  18
  -2 -10   2 34.3301 154.590   8
  -2  10  -3 297.866 314.663  17
  -2  10   3 118.968 155.533  17
  -2 -10   3 68.7722 112.587   6
   2 -10   3 40.4166 70.0925  16
  -2 -10  -3 107.644 122.032   6
   2 -10   3-98.7413 281.791  14
   2 -10  -3-85.2624 125.227  14
  -2  10   3-301.320 423.566   5
  -2 -10   3-30.1483 84.5338  14
  -2 -10   3 158.987 221.762   1
  -2 -10  -3 148.231 245.169   1
  -2  10   3-568.284 631.178   2
  -2 -10  -3 34.4200 80.3033  14
   2  10  -3 96.5988 247.427   5
   2  10  -3 19.1318 139.710   2
   2 -10   3 28.0323 62.0440   1
   2  10   3 83.9033 231.172   5
   2  10  -3-202.637 191.684  12
  -2  10   3-20.9661 86.0164  12
   2 -10  -3 0.05464 22.2457  11
   2  10  -3-68.3071 148.778   4
  -2  10  -3-38.3788 193.827  19
  -2  10   3-76.5545 27.4009  19
   2  10  -3-93.0051 217.876  19
   2  10   3 95.4220 173.388   4
   2  10   3 71.7727 19.1668  19
   2 -10   3-10.2158 159.627   8
   2 -10   3 60.1817 205.314  18
   2 -10  -3 188.526 259.602   8
   2 -10  -3 31.4092 99.6541   1
   2  10   3-24.5116 31.8967   2
   2 -10  -3-15.8382 110.508  18
  -2 -10   3-134.739 251.282   8
   2 -10  -4 113.632 161.087   1
  -2  10  -4 433.624 338.324  17
   2  10  -4-7.04142 73.4092   3
  -2  10   4-28.0715 69.4450  17
  -2 -10   4 188.999 184.502   6
   2 -10   4-39.8270 103.446  16
  -2 -10   4 187.558 219.723   1
  -2 -10  -4 40.4108 55.8169   6
   2 -10  -4-2.73394 45.0450  14
  -2 -10   4 163.602 164.095  14
  -2  10   4-19.1422 151.060   5
  -2 -10  -4 83.0182 161.131  14
   2 -10   4 22.2839 188.012   1
   2  10  -4 80.3083 213.314   5
  -2  10   4 102.464 69.8535   2
   2 -10  -4 145.684 26.9258  13
   2  10   4 103.026 118.236   5
  -2 -10  -4-25.4925 99.6097   1
   2  10  -4 75.3654 119.174  12
   2  10  -4 143.470 236.618   4
   2 -10  -4 57.8082 105.685  11
  -2  10  -4-0.98648 144.131  19
  -2  10   4 158.662 226.498  19
   2  10  -4 5.74598 139.583  19
   2 -10   4 275.019 313.343   8
   2  10   4 65.6449 44.3564   4
   2  10   4-56.1583 220.092  19
   2 -10   4 283.369 273.782  18
   2 -10  -4 146.980 175.223   8
  -2 -10   4 58.2598 157.517   8
   2 -10  -4 1.61072 75.5219  18
   2  10   4 136.877 188.793   2
  -2  10  -5-39.8660 91.5302  17
   2  10   5-42.8165 128.457   2
  -2  10   5-85.3049 185.272  17
   2 -10  -5-75.7562 146.824   1
   2  10  -5-71.1449 123.443   3
  -2 -10   5-47.1385 151.899   1
  -2 -10   5 57.3655 120.691   6
   2 -10  -5-6.75945 37.6656  14
   2 -10   5-210.946 365.348   1
  -2 -10   5 31.8532 36.7275  14
  -2  10   5-21.0213 106.161   5
  -2 -10  -5 56.0938 93.3779  14
   2  10  -5 7.78922 54.3409   5
  -2  10   5 117.007 241.787   2
   2 -10  -5 107.500 112.559  13
   2  10   5 16.0200 151.929   5
   2  10  -5-12.5316 65.5107  12
   2  10  -5-92.5196 242.489   4
   2 -10  -5-20.8007 102.879  11
  -2 -10  -5 2.95304 55.3605   1
  -2  10  -5-445.106 467.177  19
  -2  10   5 17.9621 123.939  19
   2  10  -5-9.96515 12.1563  19
   2 -10   5 157.920 243.402   8
   2  10   5-81.4041 341.346  19
   2  10   5 15.5822 130.601   4
   2 -10   5 322.836 344.987  18
  -2 -10   5 42.6233 93.4895   8
   2 -10  -5 33.4837 112.674   8
   2 -10  -5 50.4832 121.156  18
  -2  10  -6 258.399 247.684  17
  -2 -10   6 554.858 301.487   1
   2  10   6-17.9460 150.643   2
  -2  10   6-180.448 194.565  17
   2 -10  -6 271.401 260.328   1
  -2 -10   6 292.638 186.630   6
   2  10  -6-76.1054 136.289   3
   2 -10  -6 73.7705 63.9217  14
  -2 -10   6 233.460 182.686  14
   2  10  -6 59.1228 111.960   5
  -2  10   6 84.6902 171.797   5
  -2 -10  -6 188.689 172.863  14
  -2  10   6 450.476 382.284   2
   2 -10  -6 661.404 273.817  13
   2  10   6 230.641 207.968   5
   2  10  -6-119.821 176.041  12
   2  10  -6-95.6685 410.310   4
   2 -10  -6 87.7382 46.8304  11
  -2  10  -6-446.422 603.389  19
   2  10  -6 161.958 248.614  19
  -2  10   6 162.073 160.753  19
   2 -10   6 300.200 236.105   8
   2  10   6-262.987 438.327  19
   2  10   6 164.143 78.4659   4
   2 -10   6 154.029 30.6725  18
  -2 -10   6 224.399 269.571   8
  -2 -10  -6 192.404 219.613   1
   2 -10  -6 74.5514 107.156  18
   2 -10  -6 91.8351 145.657   8
   2 -10  -7-118.640 235.847   8
   2  10   7-31.3406 143.002   2
  -2  10   7-129.259 240.629  17
  -2 -10  -7 72.6561 111.710   1
  -2 -10   7 36.2328 52.2058   6
   2 -10  -7 66.7743 75.5766   1
   2  10  -7 63.4646 122.907   3
   2 -10  -7-22.8923 88.6523  14
  -2 -10   7 6.64305 116.240  14
   2  10  -7-231.039 367.256   5
  -2  10   7-10.4021 71.4675   5
  -2 -10  -7 111.717 142.525  14
   2 -10  -7 465.157 316.575  13
  -2  10   7 179.264 328.440   2
   2  10   7-65.8747 77.7220   5
   2  10  -7-96.4916 164.072  12
   2 -10  -7-227.608 283.966  11
   2  10  -7 191.344 244.377  19
   2 -10   7-16.4499 161.024   8
  -2  10   7-98.1188 193.088  19
  -2 -10   7 24.7279 126.138   1
   2 -10   7-225.999 373.957  18
  -2 -10   7 196.396 274.032   8
   2 -10  -7-196.265 240.322  18
   2 -10  -8-68.2976 347.383   8
   2  10   8 168.941 173.380   2
  -2  10   8-60.0507 190.801  17
  -2 -10   8 266.791 197.071   6
  -2  10   8 82.3466 12.9931  16
   2  10  -8-55.0982 107.022   3
   2 -10  -8 225.952 174.329   1
  -2 -10  -8-16.0142 22.8284   1
   2 -10  -8-43.5402 111.252  14
  -2 -10   8 419.590 256.191  14
  -2 -10  -8 134.433 172.313  14
  -2  10   8 244.885 272.155   5
  -2  10   8 507.661 411.271   2
   2  10   8 125.835 183.441   5
   2  10  -8-119.158 147.728  12
  -2  10   8-56.2104 223.217   4
  -2 -10   8 580.934 306.323   1
   2  10  -8-295.480 259.451  19
   2 -10   8 192.972 178.865   8
  -2  10   8 157.189 145.693  19
   2  10   8-203.972 444.725   4
  -2 -10   8 502.804 360.294   8
   2 -10  -8-110.193 373.817  18
  -2  10   9 42.9024 109.994  17
  -2 -10   9 54.4244 115.941   6
  -2 -10   9 33.6350 223.179  16
  -2  10   9-36.4509 48.6345  16
   2  10  -9-7.68195 43.5919   3
   2 -10  -9 77.8284 178.971   1
  -2 -10   9-58.0819 174.191  14
   2 -10  -9-48.9231 79.7340  14
  -2  10   9 168.404 271.879   5
   2  10  -9 119.687 239.162  12
  -2  10   9 156.006 266.488   2
  -2 -10   9-88.1076 125.973   1
  -2  10   9-77.3633 191.756   4
   2  10  -9 77.1726 186.461  19
   2 -10   9-218.181 362.670   8
  -2  10   9 20.9742 50.6326  19
  -2 -10   9 45.5105 185.148   8
  -2  10  10-18.3661 43.3545  17
  -2 -10  10 39.1579 63.2437   6
  -2 -10  10-59.9891 186.565  16
  -2  10  10 24.6724 95.4708  16
   2  10 -10 217.113 248.142   3
  -2 -10  10 65.3867 151.847  14
   2 -10 -10-37.2912 72.8724  14
   2 -10 -10 112.279 193.136   1
  -2  10  10 105.548 139.005   5
  -2 -10  10-52.7100 131.654   1
  -2  10  10 10.4953 154.568   2
  -2  10  10 65.7562 20.3008   4
   2  10 -10 54.3753 243.627  19
  -2  10  10 19.1173 195.641  19
  -2 -10  10 84.4600 212.808   8
  -2 -10  11 178.649 205.703   6
  -2  10  11-15.3031 100.137  17
  -2 -10  11 220.542 475.067  16
  -2  10  11 43.4748 27.5881  16
  -2 -10  11 1421.82 840.803  14
   2 -10 -11-63.1746 125.766  14
   2 -10 -11 53.4968 90.0102   1
  -2  10  11-15.4887 118.316   5
  -2  10  11 238.299 282.324   2
  -2  10  11 167.386 207.006   4
  -2 -10  11 2168.29 1146.02   8
   2 -10  11-816.214 781.200   8
  -2  10  11-83.9081 263.144  19
   2  10 -11 2927.50 847.679   3
  -2 -10  12-92.4554 447.335   6
  -2  10  12-42.3172 177.617  17
  -2 -10  12 305.807 301.176  16
  -2  10  12 477.358 253.094  16
  -2 -10  12 564.708 352.987  14
   2 -10 -12-17.8154 82.7057  14
   2 -10 -12 232.403 214.978   1
  -2  10  12 385.313 304.378   5
  -2  10  12 681.419 447.050   2
  -2  10  12 241.789 191.442   4
   2  10 -12 1008.15 647.945  19
  -2 -10  12 1068.55 640.428   8
  -2  10  13-92.1708 205.581  17
  -2 -10  13 97.3374 288.463  16
  -2  10  13 114.875 147.913  16
 -10  -2  13 298.078 406.773   6
 -10   2  13-14.1089 104.302   6
  -2 -10  13-111.142 229.695  14
   2 -10 -13 22.5931 81.5244  14
  -2  10  13-34.6287 16.2904   5
   2 -10 -13 146.478 159.994   1
  -2  10  13 220.864 376.666   2
  -2  10  13 53.3222 149.648   4
   2  10 -13 249.225 343.333  19
  -2 -10  13 59.1090 274.194   8
  10  -2 -13-181.605 239.089  18
   3  10   0-34.5411 121.880   2
  -3  10   0 187.156 158.389  17
  -3 -10   0-147.695 429.327   8
  -3 -10   0 145.537 201.294   6
  -3 -10   0-47.2739 79.2556  14
  -3 -10   0 67.2772 85.1681   1
   3  10   0 25.1689 98.8970   5
   3 -10   0-28.8764 29.9799   1
  -3  10   0 298.434 251.307  19
   3  10   0 116.170 179.230   4
   3  10   0-70.1149 144.613  19
   3 -10   0 4.47302 76.6865   8
   3 -10   0 193.831 207.870  18
  -3  10  -1-191.822 237.114  17
  -3 -10   1 1056.16 520.059   8
  -3  10   1 531.912 385.714  17
  -3 -10  -1 202.146 447.797   8
   3  10   1 910.958 316.548   2
  -3 -10   1 3011.49 670.756   6
  -3 -10  -1 2045.86 598.133   6
   3 -10   1 2156.78 738.443   1
   3 -10  -1 2819.34 805.275   1
  -3 -10   1 2323.79 678.055   1
  -3 -10   1 1897.33 537.404  14
  -3 -10  -1 1446.36 459.787  14
  -3 -10  -1 1511.82 558.389   1
   3  10  -1 2389.38 760.471   5
   3  10   1 2494.16 778.495   5
   3  10  -1 1786.23 416.575   2
   3  10  -1 2869.93 842.655   4
   3  10   1 1970.36 703.720   4
   3  10   1 2307.06 801.983  19
  -3  10  -1-94.3360 227.413  19
   3 -10   1 2448.99 738.085   8
  -3  10   1 300.232 317.670  19
   3 -10  -1 2397.27 693.450   8
   3  10  -1 1405.90 620.677  19
   3 -10   1 2507.83 697.111  18
   3 -10  -1 2746.44 753.192  18
  -3 -10   2 150.837 180.897   1
  -3  10  -2 272.608 344.247  17
  -3 -10   2-27.3362 185.290   8
  -3  10   2 145.757 261.380  17
   3  10   2-36.4766 182.517   2
  -3 -10   2 130.401 169.482   6
  -3 -10  -2-6.78877 114.507   6
  -3 -10   2 149.014 139.705  14
   3 -10   2 1.71090 184.341   1
  -3 -10  -2 71.7676 144.634  14
   3  10  -2 182.290 268.081   5
   3  10   2 119.874 227.374   5
   3 -10  -2 77.5970 68.6123   1
   3  10  -2-310.057 269.667  12
  -3  10  -2-177.600 495.157  19
  -3  10   2 58.9602 253.933  19
   3  10  -2 294.277 279.693   4
   3 -10   2-27.7609 173.399   8
   3  10  -2 106.497 42.4591   2
   3  10  -2-9.97426 176.476  19
   3  10   2 70.4603 172.830  19
   3  10   2 157.442 188.001   4
   3 -10  -2 259.038 248.015   8
   3 -10   2 161.549 225.477  18
  -3 -10  -2 103.993 252.480   1
   3 -10  -2 33.6797 112.010  18
  -3  10  -3-2.79015 184.956  17
  -3 -10   3 76.7082 155.174   8
  -3  10   3 73.6913 99.7494  17
   3  10   3-36.8834 170.521   2
  -3 -10  -3 129.981 147.425   1
  -3 -10   3 431.306 301.026   6
  -3 -10  -3 13.2935 214.469   6
   3 -10   3-49.8028 243.930   1
  -3 -10   3 332.519 239.532  14
  -3 -10  -3 139.773 163.362  14
   3  10  -3 414.528 343.301   5
   3  10   3 520.864 370.978   5
  -3  10   3 8.73145 82.4622  12
   3  10  -3 32.3131 127.807  12
   3  10  -3 403.815 218.257   2
   3 -10  -3 349.194 280.853   1
  -3  10  -3-1118.41 554.009  19
  -3 -10   3 347.914 259.280   1
   3  10  -3 351.065 314.745   4
  -3  10   3 222.130 227.838  19
   3 -10   3 247.140 179.709   8
   3  10  -3 101.524 70.0557  19
   3  10   3 204.660 40.7530  19
   3  10   3 242.115 225.004   4
   3 -10  -3 413.592 291.565   8
   3 -10   3 429.914 308.670  18
   3 -10  -3 316.180 282.907  18
  -3  10  -4-73.9253 85.1763  17
  -3  10   4 94.7462 211.582  17
  -3 -10   4 163.135 181.204   6
   3 -10  -4-78.4881 174.923  14
  -3 -10  -4 27.0232 69.6850   1
  -3 -10   4 126.437 147.860  14
  -3 -10  -4-11.8920 13.8659  14
   3  10  -4 215.480 275.131   5
  -3 -10   4 120.475 111.056   1
   3  10  -4 261.637 196.024   2
   3  10   4 46.6863 76.8280   5
  -3  10   4-15.0649 61.5176  12
   3  10  -4-329.068 262.680  12
   3 -10  -4 649.479 495.345  11
   3  10  -4 273.293 333.168   4
  -3  10   4 133.829 280.949  19
   3 -10  -4 97.9943 125.358   1
   3 -10   4-122.682 311.192   8
   3  10  -4-31.7496 125.129  19
   3  10   4-46.5377 367.225  19
   3 -10   4-114.726 293.610  18
   3  10   4-225.343 381.478   4
   3 -10  -4 187.606 168.884   8
   3 -10  -4 225.916 242.202  18
  -3 -10   4 164.786 238.728   8
   3  10  -5-133.635 150.059   3
  -3  10   5 114.324 226.023  17
  -3 -10   5 26.8124 135.621   6
   3 -10  -5-61.0323 152.393  14
  -3 -10   5 21.3526 27.9193  14
  -3  10   5-458.790 628.519   2
  -3 -10   5 222.672 254.175   1
  -3 -10  -5 201.347 228.841  14
   3  10  -5 232.443 290.388   5
   3 -10  -5-4.11714 124.432  13
   3  10   5-6.02214 59.4747   5
  -3 -10  -5 230.136 269.986   1
   3  10  -5-7.91448 118.195  12
   3 -10  -5 53.3381 234.608  11
   3  10  -5 33.7497 213.014   4
  -3  10   5 205.862 192.700  19
   3 -10   5-268.931 434.760   8
   3  10  -5-39.3259 192.786  19
   3 -10  -5-119.403 196.012   1
   3 -10   5-361.401 488.647  18
   3  10   5-257.379 514.521   4
   3 -10  -5 167.860 215.599   8
   3 -10  -5-139.263 220.051  18
  -3 -10   5-144.916 286.024   8
  -3  10   6 2.25466 136.553  17
   3  10  -6-66.1263 148.210   3
  -3 -10   6 639.047 317.489   6
   3 -10  -6 1402.42 607.277   1
  -3 -10   6 706.042 329.446   1
   3 -10  -6-55.5349 120.022  14
  -3 -10   6 524.786 288.275  14
  -3  10   6 171.340 175.857   2
   3  10  -6 443.099 323.537   5
   3 -10  -6 758.747 283.897  13
   3  10  -6 132.509 214.512  12
   3  10  -6 295.637 296.740   4
   3 -10  -6 432.405 298.841  11
  -3  10   6 426.686 461.422  19
   3 -10   6-542.538 581.482   8
   3  10  -6 214.505 205.072  19
   3 -10  -6 455.692 271.703   8
   3 -10  -6 300.993 227.766  18
  -3 -10   6 356.492 269.930   8
  -3  10   7-42.9518 147.815  17
  -3 -10   7 34.7291 134.669   1
   3  10  -7-233.833 199.222   3
  -3 -10   7 98.4505 144.958   6
   3 -10  -7-82.1869 101.813  14
  -3 -10   7 37.5722 87.3732  14
  -3  10   7-336.490 448.906   5
   3  10  -7 158.845 281.223   5
  -3  10   7 49.9223 112.014   2
   3 -10  -7 32.4920 155.733  13
   3  10  -7-49.3565 158.853  12
   3  10  -7 117.829 101.399   4
   3 -10  -7-4.86994 41.7487  11
   3 -10   7-577.272 713.955   8
  -3  10   7 17.4351 146.335  19
   3  10  -7 72.3975 176.986  19
  -3 -10   7-56.8530 133.555   8
   3 -10  -7-13.3165 26.9637  18
   3 -10  -7-102.192 249.141   8
   3 -10  -7 100.135 178.303   1
   3 -10  -8-76.8785 220.196   8
   3 -10  -8 26.4244 82.6198   1
  -3  10   8-119.411 221.031  17
  -3 -10   8 61.7464 76.3196   6
   3  10  -8-118.035 150.977   3
   3 -10  -8-32.7584 99.0504  14
  -3 -10   8-89.5696 163.180  14
  -3  10   8-583.628 362.197   5
   3  10  -8-94.9251 206.470   5
  -3  10   8 84.8726 88.9797   2
   3 -10  -8 98.4980 113.975  13
   3  10  -8 11.3715 52.4177  12
   3  10  -8-260.451 511.931   4
   3 -10  -8-1.44426 137.123  11
   3 -10   8-647.817 928.258   8
   3  10  -8 120.898 236.264  19
  -3  10   8-35.4051 169.533  19
  -3 -10   8-48.9875 210.915   8
  -3 -10   8-37.6210 148.926   1
   3 -10  -8-10.7724 70.8411  18
   3 -10  -9-1.89722 243.299   8
   3 -10  -9 320.007 284.417   1
  -3  10   9 61.7820 235.628  17
  -3 -10   9-37.3872 123.993   6
   3  10  -9 14.3791 83.6376   3
   3 -10  -9 16.4288 76.4440  14
  -3 -10   9-18.4369 133.857  14
   3  10  -9-283.999 445.858   5
  -3  10   9-163.189 285.733   5
  -3  10   9 114.211 249.195   2
   3 -10  -9 216.711 275.050  13
   3  10  -9-176.612 241.464  12
   3 -10  -9 76.6640 136.511  11
   3  10  -9 95.2267 171.754  19
  -3 -10   9 190.659 141.729   1
  -3  10   9 50.5011 76.6570  19
  -3 -10   9 138.935 198.625   8
   3 -10  -9 77.5758 144.361  18
  -3  10  10 84.9828 175.274  17
   3 -10 -10 2.67476 119.771   1
  -3 -10  10-210.555 334.176   6
  -3 -10  10 632.587 900.083   1
  -3 -10  10 441.113 649.609  14
   3 -10 -10-14.0001 55.7338  14
  -3  10  10 87.7180 110.890   5
  -3  10  10 231.007 249.853   2
   3 -10 -10 232.541 350.253  13
   3  10 -10 1163.03 964.785  12
   3  10 -10 1714.54 1088.07  19
   3 -10 -10-240.378 426.139  11
  -3  10  10-176.456 314.849  19
  -3 -10  10 366.032 580.164   8
   3  10 -10 938.676 759.692   3
   3 -10 -10-282.084 366.485  18
  -3  10  11 101.942 252.407  17
  -3 -10  11 1130.66 566.202   6
   3 -10 -11 664.977 381.073   1
  -3 -10  11 2451.28 787.998   1
  -3 -10  11 599.076 519.099  16
  -3  10  11 423.277 229.477  16
  -3 -10  11 1635.90 710.756  14
   3 -10 -11-61.4081 132.308  14
  -3  10  11 239.502 248.475   5
   3  10 -11 6681.93 1428.73  12
  -3  10  11 479.017 398.970   2
   3 -10 -11-274.271 554.284  11
  -3 -10  11 4495.59 1233.80   8
  -3  10  11 185.837 149.459  19
   3  10 -11 1933.12 905.587   3
   3 -10 -11-140.399 468.497  18
  -3  10  12-217.799 240.206  17
  -3 -10  12-95.8077 220.678   6
  -3 -10  12 102.669 160.838  16
  -3  10  12 141.693 209.024  16
   3 -10 -12-0.37255 49.7238   1
   3  10 -12 37.4355 81.2801   3
   3 -10 -12-4.76216 71.1215  14
  -3 -10  12-147.113 251.716  14
  -3 -10  12-291.496 351.238   1
  -3  10  12 15.4688 100.196   5
  -3  10  12 225.111 360.991   2
   3  10 -12 25.7997 195.393  12
   3  10 -12 50.3036 225.326  19
  -3  10  12-116.574 363.832  19
  -3 -10  12 17.5240 212.356   8
  -4  10   0 318.544 292.619  17
   4 -10   0 1700.65 641.961   1
  -4 -10   0 1086.68 459.928   1
  -4 -10   0 1515.30 565.160   6
   4  10   0 2609.78 831.656   5
  -4 -10   0 1115.69 424.315  14
   4  10   0 3153.66 914.922   4
   4  10   0 2228.02 797.456  19
   4 -10   0 2391.41 707.685   8
   4 -10   0 3219.74 857.996  18
  -4  10  -1 119.693 346.301  17
  -4  10   1 452.083 359.439  17
  -4 -10   1 210.995 186.542   6
   4 -10   1 30.9888 364.431   1
  -4 -10   1 211.815 234.778  14
  -4 -10  -1 247.896 250.557  14
   4 -10  -1 252.629 279.157   1
  -4 -10  -1 80.1600 164.859   1
   4  10  -1 508.790 387.383   5
   4  10   1 239.117 262.186   5
   4 -10   1 206.448 185.913   8
   4 -10  -1 266.850 269.807   8
   4  10  -1 254.208 192.363  19
   4  10  -1 379.629 346.484   4
   4  10   1 222.521 225.855  19
  -4 -10   1 259.917 294.925   1
   4  10   1 258.279 214.284   4
   4 -10   1 353.958 275.067  18
   4 -10  -1 449.830 348.562  18
  -4  10   2 71.5652 168.348  17
  -4 -10   2 53.7693 290.728   8
   4  10  -2 76.8522 209.009   2
  -4 -10   2 1456.50 556.167   6
   4  10  -2 1753.10 682.211   5
  -4 -10   2 1256.63 478.680  14
  -4 -10  -2 445.490 254.001  14
   4 -10  -2 1237.56 557.250   1
  -4 -10   2 909.907 436.827   1
   4  10   2 1168.43 558.787   5
  -4  10   2-13.0811 98.8243  19
   4 -10   2 363.950 380.593   8
   4  10  -2 1901.71 727.097   4
   4 -10  -2 1965.70 591.469   8
   4  10  -2 1102.62 566.705  19
   4  10   2 692.881 402.516  19
  -4 -10  -2 289.275 273.464   1
   4 -10   2 1012.70 476.014  18
   4  10   2 842.801 328.378   4
   4 -10  -2 1909.44 651.069  18
  -4  10   3 78.9452 178.662  17
  -4 -10   3-3.73817 39.9381   8
   4  10  -3 74.7813 104.669   2
  -4 -10   3 496.774 332.430   6
  -4 -10   3 390.306 308.274   1
  -4 -10   3 379.652 268.542  14
   4  10  -3 382.797 349.992   5
   4 -10  -3 284.625 262.999   1
   4  10  -3-498.456 366.115  12
  -4  10   3-45.8557 61.6810  19
   4 -10   3-412.457 642.106   8
   4  10  -3 357.895 343.006   4
   4  10  -3 241.787 291.397  19
   4 -10  -3 561.670 318.399   8
   4 -10   3-266.260 571.508  18
   4 -10  -3 691.992 414.885  18
  -4 -10   4-38.9403 196.541   8
  -4  10   4 715.854 483.927  17
  -4 -10   4 89.2424 275.725   1
  -4 -10   4 256.251 259.528   6
  -4 -10   4 254.096 223.131  14
   4  10  -4 201.580 286.881   5
  -4  10   4 15.3108 42.2079  12
   4 -10  -4 89.5421 166.883   1
   4  10  -4-322.535 285.883  12
  -4  10   4 232.910 334.822  19
   4 -10   4-937.353 778.060   8
   4  10  -4 164.619 335.222   4
   4  10  -4-213.888 232.949  19
   4 -10  -4 400.218 313.620   8
   4 -10  -4 313.820 330.183  18
   4  10  -4 54.5621 79.6597   2
  -4 -10   5 457.745 343.728   8
  -4  10   5 145.604 252.891  17
  -4 -10   5 1229.65 487.779   6
  -4 -10   5 917.262 415.580  14
   4  10  -5 1049.67 538.930   5
   4 -10  -5 802.827 442.307   1
   4  10  -5 55.5309 151.036  12
  -4  10   5 266.938 277.106  19
   4  10  -5 950.563 527.008   4
  -4 -10   5 1435.53 482.879   1
   4  10  -5 544.516 354.105  19
   4 -10  -5 1354.16 464.764   8
   4 -10  -5 1011.83 487.659  18
  -4 -10   6-149.036 149.815   8
   4  10  -6-108.252 178.039   3
  -4  10   6-45.9934 210.804  17
  -4 -10   6-27.1167 52.3803   6
  -4 -10   6 90.5527 167.266  14
   4  10  -6 244.144 336.898   5
   4 -10  -6-176.887 271.695  13
  -4 -10   6-15.4801 117.574   1
   4  10  -6-63.1410 165.004  12
   4 -10  -6-58.3610 110.820   1
   4  10  -6 91.5174 217.889   4
  -4  10   6 8.79489 128.782  19
   4  10  -6-44.7705 136.622  19
   4 -10  -6 106.092 191.428   8
   4 -10  -6 72.3032 105.091  18
  -4  10   7-202.649 324.098  17
   4  10  -7-28.4238 81.9314   3
  -4 -10   7 656.722 370.479   6
  -4 -10   7 956.761 408.270   1
  -4 -10   7 536.124 292.426  14
   4  10  -7 364.105 315.392   5
   4 -10  -7 636.501 302.978  13
   4  10  -7 148.886 100.759  12
   4 -10  -7 951.165 584.551  11
   4  10  -7 252.311 345.718   4
   4 -10  -7 528.573 303.444   1
  -4  10   7-68.8248 123.294  19
   4  10  -7 157.861 232.431  19
   4 -10  -7 513.934 281.501   8
   4 -10  -7 476.041 357.594  18
  -4 -10   7 106.774 165.808   8
  -4  10   8 88.4624 226.475  17
   4  10  -8-98.7051 195.858   3
  -4 -10   8 141.907 166.621   6
  -4 -10   8-47.2803 151.951   1
  -4 -10   8-6.50104 70.1245  14
  -4  10   8-491.467 571.665   2
   4  10  -8-85.3719 211.180   5
   4 -10  -8-56.9406 175.448  13
   4  10  -8-75.1904 202.971  12
   4 -10  -8 160.027 300.914  11
   4  10  -8 181.745 231.122   4
  -4  10   8 155.119 247.818  19
   4 -10  -8-71.8265 53.8461   1
   4  10  -8-179.861 246.017  19
   4 -10  -8-53.9721 144.849   8
   4 -10  -8 179.758 239.165  18
  -4 -10   8-23.4109 167.310   8
  -4 -10   9 727.051 589.315   1
  -4  10   9 110.769 334.261  17
   4  10  -9 348.452 402.915   3
  -4 -10   9 185.867 302.927   6
  -4 -10   9 207.345 326.914  14
   4  10  -9 48.2903 121.484   5
  -4  10   9 91.2337 209.700   2
   4 -10  -9 359.998 314.455  13
   4  10  -9 401.444 517.227  12
   4  10  -9-9.77360 212.058   4
   4 -10  -9 524.965 435.897  11
  -4  10   9 40.6423 108.617  19
   4  10  -9 172.385 366.391  19
   4 -10  -9 288.294 275.163   1
   4 -10  -9 63.1065 157.323  18
  -4 -10   9 21.6611 263.148   8
   4 -10  -9 29.5648 204.685   8
   4 -10 -10 202.454 109.717   8
  -4  10  10 199.531 259.120  17
  -4 -10  10 1432.48 568.114   6
   4  10 -10 1351.79 597.988   3
  -4 -10  10 1250.55 561.938  14
   4  10 -10 169.743 134.189   5
  -4  10  10 574.894 344.146   2
   4 -10 -10 803.040 326.753  13
   4  10 -10 2186.11 771.244  12
   4  10 -10 224.668 264.042   4
   4 -10 -10 614.641 455.867  11
  -4  10  10 181.775 102.421  19
   4  10 -10 1800.73 735.981  19
  -4 -10  10 1690.70 519.236   1
   4 -10 -10 494.004 326.257   1
  -4 -10  10 1057.66 536.727   8
   4 -10 -10 310.570 267.897  18
  -4  10  11-314.922 423.305  17
  -4 -10  11 268.959 193.548   6
   4  10 -11-58.9591 124.549   3
  -4 -10  11 156.957 89.2682  14
  -4  10  11 84.2515 238.335   2
   4 -10 -11 378.735 232.020  13
   4  10 -11 17.8465 103.780  12
  -4 -10  11 242.450 167.702   1
   4 -10 -11 203.578 181.127  11
   4  10 -11-80.9433 183.182  19
  -4  10  11-14.0767 153.687  19
   4 -10 -11 188.940 131.288   1
  -4 -10  11 17.5787 71.3360   8
   4 -10 -11 154.422 23.8211  18
   5 -10   0-327.935 579.046   8
   5 -10   0 326.183 241.196  18
  -5  10   1 586.942 519.180  17
  -5 -10   1 607.810 431.769  14
   5  10  -1 1385.81 611.738   5
   5 -10  -1 546.706 180.720   8
  -5 -10   1 460.616 348.467   1
   5  10  -1 572.844 429.372  19
   5 -10   1 556.986 126.416  18
   5  10  -1 1274.07 544.877   4
   5 -10  -1 1530.01 627.947  18
  -5  10   2 459.891 414.866  17
  -5 -10   2 569.444 405.122   6
   5 -10  -2 338.497 226.847   1
  -5 -10   2 270.775 235.966   1
  -5 -10   2 618.994 347.584  14
   5  10  -2 1182.90 560.464   5
   5 -10  -2 882.658 386.153   8
   5  10  -2 753.679 419.680  19
   5  10  -2 1190.58 572.287   4
   5 -10  -2 1331.13 582.947  18
  -5 -10   3 264.180 276.876   1
  -5  10   3 513.919 460.353  17
  -5 -10   3 489.607 376.381   6
   5 -10  -3 121.860 162.283   1
  -5 -10   3 314.464 256.201  14
   5  10  -3 739.031 461.077   5
  -5  10   3-616.701 536.618  19
   5 -10  -3 306.662 271.877   8
   5  10  -3 413.753 388.802   4
   5  10  -3 140.183 149.316  19
   5 -10  -3 710.342 486.853  18
  -5  10   4 519.300 436.522  17
  -5 -10   4-320.107 445.151   8
  -5 -10   4 634.047 407.077   6
  -5 -10   4 588.714 341.576  14
   5 -10  -4 568.094 397.959   1
   5  10  -4 1229.78 588.485   5
  -5 -10   4 1010.53 485.539   1
  -5  10   4-41.7077 74.7932  19
   5  10  -4 1390.53 673.996   4
   5 -10  -4 1192.21 452.888   8
   5  10  -4 710.184 424.633  19
   5 -10  -4 1108.45 522.581  18
  -5  10   5 192.745 294.999  17
  -5 -10   5-443.824 382.529   8
  -5 -10   5 53.0787 173.091   6
  -5 -10   5 214.927 246.135   1
  -5 -10   5 33.8356 134.973  14
   5 -10  -5-41.1569 135.150   1
   5  10  -5 113.887 173.687   5
   5  10  -5-552.255 398.853  12
  -5  10   5 161.637 189.362  19
   5  10  -5 303.635 363.944   4
   5  10  -5-37.7978 175.239  19
   5 -10  -5 99.3945 214.620   8
   5 -10  -5 257.535 348.973  18
  -5 -10   6 206.874 173.527   8
  -5  10   6 22.7517 80.6285  17
  -5 -10   6 1428.77 490.618   1
  -5 -10   6 1524.22 598.767   6
  -5 -10   6 1136.17 460.079  14
   5  10  -6 1448.37 664.473   5
   5 -10  -6 901.688 452.905   1
   5  10  -6 283.819 340.577  12
   5 -10  -6 1896.54 592.621   8
  -5  10   6 357.456 335.960  19
   5  10  -6 1560.79 704.865   4
   5  10  -6 811.999 481.372  19
   5 -10  -6 1368.21 670.372  18
   5  10  -7-214.423 225.234   3
  -5 -10   7-27.4374 258.379   8
  -5  10   7-275.455 375.224  17
  -5 -10   7 272.051 257.965   6
  -5 -10   7-46.7933 80.3874  14
   5  10  -7 229.022 231.515   5
   5 -10  -7 8.41060 148.886   1
   5  10  -7-303.248 283.368  12
  -5 -10   7 426.749 336.396   1
   5  10  -7 334.416 362.325   4
  -5  10   7 43.9785 112.467  19
   5  10  -7-22.2580 165.579  19
   5 -10  -7 197.928 192.191   8
   5 -10  -7 257.697 350.300  18
  -5 -10   8 131.066 106.029   8
  -5  10   8-0.41609 99.7358  17
   5  10  -8-175.494 202.581   3
  -5 -10   8 1347.37 627.728   6
  -5 -10   8 1288.94 465.278  14
   5  10  -8 1095.47 575.041   5
   5 -10  -8 1617.32 520.262  13
  -5 -10   8 1346.36 453.834   1
   5 -10  -8 721.072 458.241   1
   5  10  -8 251.565 325.293  12
   5  10  -8 935.957 566.579   4
  -5  10   8 262.314 405.725  19
   5  10  -8 506.164 350.174  19
   5 -10  -8 1258.04 465.417   8
   5 -10  -8 1129.55 560.481  18
  -5 -10   9 54.0043 115.504   8
  -5  10   9-20.0476 114.963  17
   5  10  -9-72.3304 160.308   3
  -5 -10   9 39.6069 99.8664   6
  -5 -10   9 446.434 338.816   1
  -5 -10   9 52.5151 203.561  14
   5  10  -9 109.991 219.945   5
   5 -10  -9 81.5912 228.468  13
   5  10  -9-346.427 298.824  12
   5 -10  -9-54.5304 111.050   1
   5 -10  -9 610.169 601.640  11
   5  10  -9 136.119 211.004   4
  -5  10   9-120.802 61.4055  19
   5  10  -9-44.1953 90.2208  19
   5 -10  -9 59.0301 47.2007   8
   5 -10  -9-139.389 271.545  18
  -5 -10  10 236.242 166.200   8
  -5  10  10-184.032 312.579  17
   5  10 -10-187.063 258.905   3
  -5 -10  10 1304.38 485.163   1
  -5 -10  10 1026.78 470.992   6
  -5 -10  10 981.180 407.610  14
  -5  10  10-764.013 961.004   2
   5  10 -10 536.887 423.583   5
   5 -10 -10 1096.61 403.585  13
   5  10 -10 342.545 248.514  12
   5 -10 -10 309.762 285.861   1
   5 -10 -10 877.203 563.785  11
   5  10 -10 601.763 483.870   4
  -5  10  10 181.098 124.948  19
   5  10 -10 370.752 203.228  19
   5 -10 -10 556.422 354.106  18
   6 -10  -1 33.3562 302.590  18
  -6  10   2 187.448 317.126  17
   6 -10  -2-3.59920 82.9163  18
  -6  10   3-113.926 164.340  17
   6 -10  -3 243.626 317.354   8
   6  10  -3 1524.79 665.830   4
   6 -10  -3 1112.92 547.660  18
  -6  10   4-340.606 390.221  17
  -6 -10   4 109.016 249.867   6
  -6 -10   4 2.75630 193.247  14
  -6 -10   4 233.070 266.519   1
   6  10  -4 67.7557 157.807   5
   6 -10  -4-96.2370 227.500   8
   6  10  -4-15.5201 71.2005  19
   6  10  -4 86.4811 125.367   4
   6 -10  -4 174.087 349.343  18
  -6  10   5 229.552 330.389  17
  -6 -10   5 383.297 243.223   1
  -6 -10   5 807.328 535.200   6
   6 -10  -5 156.654 425.173   1
  -6 -10   5 743.947 442.587  14
   6  10  -5 1449.90 696.339   5
  -6  10   5-520.191 525.282  19
   6 -10  -5 1187.92 454.125   8
   6  10  -5 2037.60 894.918   4
   6  10  -5 1079.40 636.019  19
   6 -10  -5 1276.10 605.103  18
  -6  10   6 679.529 554.069  17
  -6 -10   6 241.268 20.2601   6
  -6 -10   6 436.381 318.980  14
   6  10  -6 585.812 404.729   5
  -6 -10   6 371.793 218.503   1
  -6  10   6 78.7911 109.337  19
   6  10  -6 565.542 471.818   4
   6 -10  -6 254.007 146.577   8
   6  10  -6 185.526 159.035  19
   6 -10  -6 400.418 307.029  18
  -6  10   7 724.832 604.508  17
  -6 -10   7 1130.22 597.445   6
  -6 -10   7 952.952 412.692   1
   6 -10  -7 96.3558 183.810   1
  -6 -10   7 860.834 451.780  14
   6  10  -7 1284.43 603.489   5
   6  10  -7 58.4168 80.9591  12
  -6  10   7-47.0419 176.722  19
   6  10  -7 1291.30 707.991   4
   6  10  -7 497.855 325.040  19
   6 -10  -7 1330.76 471.565   8
   6 -10  -7 1214.67 621.600  18
  -6  10   8 113.869 268.043  17
  -6 -10   8 107.936 178.245   6
  -6 -10   8 168.793 164.879  14
   6 -10  -8-41.9374 238.221   1
   6  10  -8 383.371 372.702   5
   6  10  -8-20.5734 177.481  12
  -6  10   8 171.504 313.636  19
   6  10  -8 438.484 444.358   4
   6  10  -8 101.214 16.1078  19
   6 -10  -8 422.484 310.468   8
   6 -10  -8 320.059 422.034  18
  -6 -10   8 605.948 374.665   1
   6  10  -9 153.066 194.273   3
  -6 -10   9 238.087 167.868   8
  -6  10   9 69.6569 228.031  17
  -6 -10   9 1382.66 638.052   6
  -6 -10   9 1577.75 578.094  14
   6 -10  -9 1811.21 518.013  13
   6 -10  -9 497.536 336.708   1
   6  10  -9 1684.80 702.913   5
  -6 -10   9 1936.87 557.007   1
   6  10  -9 397.721 411.845  12
   6  10  -9 1560.65 745.056   4
  -6  10   9 511.197 388.128  19
   6  10  -9 662.039 374.925  19
   6 -10  -9 1329.76 653.252  18
   7 -10  -3-250.715 441.663  18
  -7  10   4 281.653 512.574  17
   7 -10  -4 817.450 539.920  18
  -7  10   5-18.1784 130.886  17
   7 -10  -5-160.277 479.740   8
   7 -10  -5 853.660 553.611  18
  -7  10   6 562.193 567.481  17
  -7 -10   6 218.599 356.590   6
   7  10  -6 866.945 542.078   5
   7 -10  -6 200.074 81.3167   8
   7  10  -6 867.919 531.592   4
   7 -10  -6 802.784 523.450  18
  -7 -10   7 324.140 252.222   1
  -7  10   7 234.141 277.772  17
  -7 -10   7 345.944 373.075   6
  -7 -10   7 640.044 416.276  14
   7  10  -7 1099.06 594.754   5
  -7  10   7-41.6442 284.141  19
   7  10  -7 214.674 229.576  19
   7 -10  -7 1495.08 696.032  18
   0  11   0 55.6460 89.2716  17
   0 -11   0 1.78032 194.023   1
   0 -11   0-13.8723 50.9102   6
   0 -11   0-22.7741 56.5926  14
   0  11   0-183.492 381.818   2
   0  11   0 3.63420 62.4801   5
   0  11   0-116.365 133.175  12
   0  11   0-149.995 405.931   4
   0  11   0-24.3118 80.7986  19
   0 -11   0-26.0372 133.966   8
   0 -11   1 393.482 360.732   1
   0  11  -1-0.92307 42.5161  17
   0  11   1-62.7914 160.080  17
   0 -11   1 100.805 56.8528   6
   0 -11  -1 184.215 118.534   6
   0 -11  -1 375.417 251.202   1
   0 -11   1 220.407 196.413  14
   0 -11  -1 306.609 210.726  14
   0  11  -1-17.8558 140.296   5
   0  11   1 217.465 280.783   5
   0  11   1 61.8652 100.559   2
   0  11  -1 15.9137 28.6864  12
   0  11  -1-344.290 451.181   4
   0  11   1-193.527 177.607  12
   0  11   1 94.5466 121.117   4
   0  11  -1 112.121 111.707  19
   0  11   1 56.3378 80.5899  19
   0 -11   1 247.321 280.282   8
   0 -11  -1 274.291 270.076   8
   0  11  -2-47.8289 99.4539   3
   0  11  -2-20.4777 75.2614  17
   0 -11   2-32.9338 123.245   6
   0  11   2-18.5322 55.0604  17
   0 -11  -2 8.80942 26.2840   6
   0 -11  -2 8.44143 140.859   1
   0 -11   2 40.3656 132.695  14
   0 -11  -2 27.7040 74.8119  14
   0  11  -2-167.063 359.188   5
   0  11   2 36.1594 226.571   5
   0 -11  -2 67.7128 41.5295  13
   0  11   2 318.655 342.554   2
   0  11  -2 4.46899 41.7100  12
   0  11   2 83.9038 87.4887   4
   0  11  -2 205.619 322.859  19
   0  11   2 59.0945 254.474  19
   0 -11   2 117.217 177.205   8
   0 -11   2 14.3921 171.880   1
   0 -11  -2-85.1656 318.478   8
   0 -11  -3 279.325 238.794   8
   0 -11  -3 758.728 231.483   6
   0  11  -3-230.275 168.803  17
   0 -11   3 86.8207 121.680   6
   0  11   3 1.14102 50.3221  17
   0  11  -3-28.7911 97.2184   3
   0 -11   3 780.327 361.115  14
   0 -11  -3 610.702 278.095  14
   0 -11  -3 991.447 462.512   1
   0  11  -3-367.030 560.619   5
   0  11   3 656.740 419.327   5
   0 -11  -3 2064.63 385.880  13
   0  11   3 1123.00 502.510   2
   0  11  -3 77.6414 61.8895  12
   0  11   3 613.288 372.449   4
   0  11  -3 353.213 399.339  19
   0  11   3 475.339 323.371  19
   0 -11   3 1443.21 576.313   1
   0 -11   3 1033.11 514.827   8
   0 -11   3 134.225 156.677  18
   0 -11  -4-102.498 355.094   8
   0  11  -4 33.1265 60.0940  17
   0 -11   4-130.314 221.355   6
   0  11   4 71.1597 141.646  17
   0 -11  -4 51.3322 95.6518   6
   0  11  -4-63.6141 106.886   3
   0 -11   4-13.9939 146.498  14
   0 -11  -4 33.4627 78.1827  14
   0 -11  -4 168.991 243.615   1
   0  11   4 280.481 325.788   5
   0  11  -4 82.1353 134.191  12
   0  11   4 219.621 317.054   2
   0  11   4 257.894 317.873   4
   0 -11   4 19.7301 145.621   1
   0  11  -4 335.654 378.406  19
   0  11   4-160.352 306.468  19
   0 -11   4-75.3812 167.492   8
   0 -11   4-77.9618 188.489  18
   0 -11  -5 1190.67 565.747   8
   0 -11  -5 3733.37 467.218   6
   0  11  -5-319.987 189.245  17
   0  11   5 320.300 274.799  17
   0 -11   5 6278.75 1248.44   1
   0 -11  -5 3379.77 863.246   1
   0 -11   5 3274.91 789.773  14
   0 -11  -5 2023.99 497.857  14
   0  11   5 2747.25 855.736   5
   0  11   5 3877.42 858.300   2
   0  11  -5 630.857 382.560  12
   0  11   5 2649.13 729.501   4
   0  11   5 2306.95 831.981  19
   0 -11   5 4716.60 991.669   8
   0  11  -5 155.028 288.881  19
   0 -11   5 2046.20 446.358  18
   0  11  -6-50.2272 97.0247  17
   0  11   6-131.287 154.718  17
   0 -11   6-3.30171 95.7092  16
   0 -11  -6 62.9362 63.9385   6
   0 -11   6 20.5885 74.2680  14
   0 -11  -6 46.5328 72.3274  14
   0  11   6 25.6657 97.2197   5
   0 -11   6-72.6454 237.013   1
   0 -11  -6-62.8950 93.7996   1
   0  11   6-25.0058 200.413   2
   0  11   6 83.6197 167.606   4
   0  11  -6 26.4558 139.063  19
   0  11   6-63.6540 234.997  19
   0 -11   6 161.225 344.028   8
   0 -11   6 25.2345 65.7057  18
   0  11   7 267.958 232.756  17
   0 -11   7 3336.49 709.357  16
   0 -11   7 3617.49 958.827   1
   0 -11  -7 2223.51 678.017   1
   0 -11   7 2269.31 666.129  14
   0 -11  -7 1285.83 402.473  14
   0  11   7 2509.01 813.674   5
   0  11   7 3520.40 830.574   2
   0  11   7 2047.83 626.644   4
   0 -11   7 3574.10 923.492   8
   0  11  -7 337.924 462.049  19
   0  11   7 1756.20 755.368  19
   0 -11   7 2005.72 421.968  18
   0  11   8-31.4291 107.062  17
   0 -11   8 6.45721 146.063  16
   0 -11   8-123.206 202.849  14
   0 -11  -8 16.9025 41.2685  14
   0 -11   8-205.781 312.692   1
   0  11   8 134.619 212.780   5
   0  11   8 124.283 261.567   2
   0  11  -8 74.6567 409.566  19
   0  11   8 193.291 218.561   4
   0 -11  -8 97.0763 205.066   1
   0  11   8-111.637 313.716  19
   0 -11   8 129.017 302.025   8
   0 -11   8 18.3025 42.0268  18
   0  11   9 349.720 285.065  17
   0 -11   9 1874.36 563.919  16
   0 -11   9 794.637 298.308  14
   0 -11   9 14.2941 584.120   1
   0 -11  -9 592.577 251.798  14
   0  11   9 1191.87 573.988   5
   0 -11   9 2933.29 917.347   8
   0  11   9 1649.21 644.919   2
   0  11  -9 715.201 627.291  19
   0  11   9 1330.43 512.865   4
   0  11   9 335.202 251.614  19
   0 -11  -9 797.681 471.327   1
   0  11  10-200.079 205.657  17
   0 -11  10 38.8771 210.660  16
   0 -11 -10 89.2808 137.135  14
   0  11  10 201.751 264.865   5
   0  11 -10 211.618 378.140  19
   0  11  10 108.312 174.690   2
   0  11  10 125.845 204.011   4
   0 -11  10 455.239 431.775   8
   0 -11 -10 153.726 299.620   1
   0 -11 -11 249.615 270.365   1
   0  11  11-229.392 224.190  17
   0 -11  11 798.037 464.664  16
   0 -11 -11 198.647 153.326  14
   0  11  11 322.188 283.498   5
   0  11 -11-123.752 194.500  19
   0  11  11 647.425 410.298   2
   0  11  11 620.516 351.254   4
   0 -11  11 1012.84 514.434   8
  -1  11   0 62.0073 140.895  17
   1  11   0-128.817 146.719  17
  -1 -11   0 55.3774 42.2503   6
   1 -11   0 14.8931 74.1414  14
  -1 -11   0 43.5962 169.486   1
  -1 -11   0 41.4075 144.415  14
  -1  11   0-495.673 488.118   5
   1  11   0 332.458 350.895   5
   1  11   0 8.19709 208.136   2
  -1  11   0-28.9427 105.223  12
   1  11   0-48.8181 140.325  12
   1  11   0 110.786 200.232   4
   1 -11   0-179.028 222.325  11
  -1  11   0 38.8971 150.161  19
   1  11   0 66.5923 145.171  19
   1 -11   0-23.6796 158.140   1
   1 -11   0 165.877 301.143   8
   1 -11   0-70.2832 161.639  18
  -1 -11   0 46.8726 12.2837   8
  -1 -11  -1-99.9342 249.345   8
  -1  11  -1-42.1598 58.6932   3
  -1  11  -1-90.6962 165.250  17
  -1  11   1-175.183 174.359  17
   1  11  -1-82.0135 118.086  17
   1  11   1-19.8642 69.4178  17
  -1 -11   1 61.5622 58.4972   6
  -1 -11  -1 107.453 138.080   6
  -1 -11   1-13.7353 84.0958   1
   1 -11   1 21.7141 67.7609  14
   1 -11  -1-8.16130 89.2218  14
  -1 -11   1 106.421 131.159  14
  -1 -11  -1-67.2482 86.9279  14
  -1  11   1-203.347 399.127   5
   1  11  -1 78.2257 126.874   5
   1  11  -1 30.4476 202.395   2
   1  11   1 40.1072 159.626   5
  -1 -11  -1 431.635 175.488  13
  -1 -11  -1 52.9999 52.0114   1
  -1  11  -1-252.330 176.122  12
   1  11   1 170.438 321.611   2
  -1  11   1-84.2587 145.053  12
   1  11  -1-130.728 153.310  12
   1  11  -1 140.462 230.202   4
   1 -11   1-167.642 212.535  11
   1  11   1 115.887 227.967   4
  -1  11  -1 290.427 369.909  19
  -1  11   1 38.0789 188.464  19
   1  11  -1-41.7847 182.266  19
   1  11   1 113.784 195.159  19
   1 -11   1 120.890 202.745   1
   1 -11   1 30.8469 223.398   8
   1 -11  -1-29.1816 125.241   8
   1 -11   1 131.666 167.400  18
  -1 -11   1-79.4535 260.500   8
   1 -11  -1 14.8873 103.370  18
   1 -11  -1 63.0464 170.568   1
  -1 -11  -2-4.46513 116.916   8
   1 -11  -2 146.689 156.053   1
  -1  11  -2 129.890 99.4139  17
  -1  11   2-99.4499 149.991  17
   1  11  -2-149.665 135.242  17
   1  11   2-75.6343 106.658  17
  -1 -11   2 224.432 162.411   6
  -1  11  -2-40.5680 81.3198   3
  -1 -11   2 190.984 184.006   1
  -1 -11  -2 221.713 137.881   6
   1 -11   2 61.1702 106.998  14
   1 -11  -2 26.8856 76.7112  14
  -1 -11   2 192.822 141.342  14
  -1 -11  -2 146.766 132.829  14
  -1  11   2-22.3530 198.118   5
  -1  11   2-219.454 405.452   2
   1  11  -2 101.614 132.039   5
   1  11   2 224.497 305.726   5
  -1 -11  -2 224.039 194.898   1
  -1  11  -2 231.679 203.735  12
   1  11  -2-33.6747 126.500  12
   1  11   2 269.917 316.666   2
  -1  11   2-116.293 125.292  12
   1  11  -2-17.3334 180.989   4
   1 -11   2 298.460 207.766  11
   1 -11   2 248.576 213.439   1
   1  11   2 315.041 289.368   4
  -1  11  -2 301.968 341.756  19
  -1  11   2 131.076 257.058  19
   1  11  -2 141.508 178.455  19
   1  11   2 47.8088 130.934  19
   1 -11   2 166.827 265.022   8
   1 -11  -2 18.1158 82.5821   8
  -1 -11   2 214.140 208.080   8
   1 -11   2 142.759 177.332  18
   1 -11  -2-99.1497 232.972  18
  -1 -11  -3-100.906 343.562   8
   1  11  -3-98.2132 137.900   3
  -1  11  -3 215.167 162.145  17
  -1 -11   3-15.4938 67.1229   1
  -1  11   3-121.321 219.709  17
   1  11  -3-88.6221 121.489  17
   1 -11  -3-19.9365 136.253   1
   1  11   3-141.627 147.274  17
  -1 -11   3-4.08654 34.9822   6
  -1 -11  -3 82.9956 130.123   6
  -1  11  -3 166.897 124.579   3
   1 -11   3 23.2679 73.8721  14
   1 -11  -3-65.2568 133.818  14
  -1 -11   3 52.8693 131.549  14
  -1 -11  -3 67.7256 126.163  14
   1  11  -3 24.7728 95.0722   5
  -1  11   3 95.2474 197.848   5
  -1  11   3 185.744 196.816   2
   1  11   3 24.0019 117.052   5
   1 -11  -3-83.0222 122.507  13
  -1  11  -3 985.159 409.086  12
   1  11  -3 54.4928 28.8809  12
  -1 -11  -3 19.8413 185.223   1
  -1  11   3-308.273 424.821   4
   1 -11   3 58.0675 54.3296   1
   1  11  -3-407.516 522.094   4
   1  11   3 178.434 252.685   2
   1 -11   3 59.1899 144.785  11
   1  11   3-45.9584 120.750   4
  -1  11  -3-106.368 230.445  19
   1  11  -3-27.7838 103.802  19
  -1  11   3-27.1778 47.3385  19
   1  11   3-69.9992 292.994  19
   1 -11   3 145.050 327.794   8
  -1 -11   3-10.2654 135.927   8
   1 -11   3 81.8184 149.342  18
   1 -11  -3-57.9671 187.503   8
   1 -11  -3-156.370 265.801  18
  -1 -11  -4 66.0259 320.325   8
  -1 -11   4 1276.01 387.554   6
  -1  11  -4 181.950 216.128  17
  -1 -11  -4 1650.03 387.590   6
   1 -11  -4 69.4144 55.4131   6
  -1  11   4 123.288 213.380  17
   1  11  -4-76.8439 132.215   3
   1  11  -4-22.0708 78.7292  17
   1  11   4-157.459 154.652  17
   1 -11   4 642.139 230.096  16
   1 -11   4 1971.23 719.087   1
  -1 -11   4 2788.90 815.822   1
   1 -11  -4 2269.92 719.451   1
  -1 -11   4 1498.12 508.798  14
   1 -11   4 874.160 399.944  14
   1 -11  -4 590.068 278.526  14
  -1 -11  -4 766.667 320.693  14
   1  11  -4 274.466 197.960   5
  -1  11   4 581.878 396.057   5
   1 -11  -4 2841.67 466.810  13
   1  11   4 1207.37 591.805   5
  -1  11   4 1442.25 571.126   2
   1  11  -4-3.18479 91.4997  12
  -1  11   4 295.354 162.751   4
   1 -11   4 2165.28 504.640  11
   1  11   4 1419.54 511.083   2
  -1  11  -4 288.760 377.363  19
   1  11   4 1361.41 574.536   4
  -1 -11  -4 1400.98 556.128   1
   1  11  -4 432.811 322.113  19
  -1  11   4 828.847 466.435  19
   1  11   4 727.509 496.051  19
   1 -11   4 2152.18 724.002   8
   1 -11   4 1543.66 464.275  18
  -1 -11   4 1137.53 538.796   8
   1 -11  -4 771.414 389.334   8
   1 -11  -4 38.4678 301.272  18
   1 -11  -5-199.301 322.616   8
  -1  11  -5 197.855 194.545  17
   1 -11  -5-55.1219 79.4822   6
  -1  11   5-153.301 177.316  17
   1  11  -5-28.9690 83.9306  17
  -1 -11   5-5.61906 92.8857   6
   1  11   5-148.294 153.712  17
   1  11  -5-166.340 171.054   3
   1 -11   5-11.5869 66.4821  16
  -1 -11  -5 87.2638 119.519   6
   1 -11  -5 33.8278 121.561   1
   1 -11   5-122.302 231.218  14
  -1 -11   5-8.38866 98.0297  14
   1 -11  -5-73.9229 156.329  14
   1  11  -5-497.776 533.435   5
  -1 -11  -5-39.0015 111.439  14
  -1  11   5 210.471 289.176   5
   1  11   5 51.9973 211.001   5
   1 -11   5 55.1855 65.6398   1
   1 -11  -5 214.544 226.548  13
  -1  11   5 285.837 332.053   2
   1  11  -5-94.7504 127.251  12
   1 -11   5 1303.58 454.316  11
  -1  11   5-42.0115 220.993   4
  -1  11  -5 235.175 373.033  19
   1  11   5-86.6563 60.5456   2
   1  11  -5-7.71798 132.183  19
   1  11   5 99.3696 222.618   4
  -1  11   5-111.326 159.893  19
   1  11   5-88.9511 194.906  19
  -1 -11   5-22.4959 179.858   1
   1 -11   5 150.468 210.748   8
  -1 -11   5 343.954 340.144   8
  -1 -11  -5 39.4168 117.110   1
   1 -11   5-3.01637 80.1266  18
   1 -11  -6 1529.18 617.457   8
  -1  11  -6 446.994 267.181  17
  -1 -11   6 2272.72 551.580   6
  -1 -11  -6 1492.44 569.978   1
  -1 -11  -6 2846.63 516.044   6
  -1  11   6 358.699 253.265  17
   1  11  -6-24.9595 106.394  17
   1  11   6-242.684 231.450  17
   1 -11   6 3835.04 670.334  16
   1 -11   6 3315.23 945.370   1
  -1 -11   6 5946.54 1175.54   1
   1  11  -6-54.6892 92.2014   3
   1 -11  -6 3611.87 875.130   1
   1 -11   6 1624.30 536.824  14
  -1 -11   6 3802.15 845.080  14
   1 -11  -6 1268.24 380.897  14
  -1 -11  -6 1454.38 434.682  14
  -1  11   6 3297.36 799.689   2
   1  11   6 2594.29 766.741   5
   1  11   6 3094.18 746.836   2
  -1  11   6 1913.11 680.865   5
   1  11  -6 217.018 233.772  12
  -1  11   6 1731.23 558.639   4
   1  11   6 2805.82 761.429   4
   1  11   6 2507.57 908.911  19
   1 -11   6 3922.91 986.618   8
  -1  11  -6 309.834 406.209  19
  -1 -11   6 3463.85 890.267   8
   1  11  -6 45.6970 166.771  19
  -1  11   6 1741.95 700.323  19
   1 -11   6 3626.70 690.427  18
  -1  11  -7 307.031 233.372  17
   1 -11  -7-524.089 396.464   8
  -1 -11   7-116.032 234.545   6
  -1  11   7 94.7539 181.123  17
  -1 -11  -7 73.3704 195.063   1
   1 -11   7-13.6051 104.808  16
   1  11  -7-176.222 193.123   3
   1 -11   7-180.747 368.937  14
  -1 -11  -7-77.3737 123.626   6
  -1 -11   7-149.815 203.110  14
   1 -11  -7-115.384 146.861  14
   1 -11   7-115.452 417.112   1
   1 -11  -7-47.2731 87.7943   1
  -1 -11  -7-25.5117 52.4928  14
  -1  11   7 124.655 200.102   5
   1  11   7-36.3297 208.908   5
   1  11  -7 80.1937 164.420  12
  -1  11   7-61.8944 59.1851   2
  -1 -11   7 85.8370 225.672   1
  -1  11   7-33.0898 128.152   4
  -1  11  -7-67.2794 197.942  19
   1  11  -7 129.375 218.425  19
   1  11   7 70.5194 171.413   4
  -1  11   7-156.928 166.278  19
   1  11   7-33.1940 124.284   2
   1 -11   7 201.495 297.525   8
   1  11   7-51.7726 290.132  19
  -1 -11   7-364.131 370.536   8
   1 -11   7 69.8297 141.536  18
  -1  11  -8 400.719 258.630  17
  -1 -11   8 870.793 380.941   6
  -1  11   8 59.6506 140.914  17
   1  11   8-365.931 258.230  17
   1 -11   8 2206.99 574.663  16
  -1 -11   8 2706.00 896.017   1
  -1 -11   8 1163.49 435.406  16
  -1 -11  -8 606.446 375.870   1
  -1 -11   8 2264.35 732.417  14
   1  11  -8-174.533 119.908   3
  -1 -11  -8 757.370 263.329   6
   1 -11  -8 595.286 260.730  14
  -1 -11  -8 566.589 267.240  14
   1 -11  -8 1724.77 604.707   1
  -1  11   8 1260.31 571.362   5
   1  11   8 1433.17 597.859   5
   1  11  -8 202.867 406.645  12
  -1  11   8 2136.69 668.815   2
   1  11   8 1655.01 594.572   4
  -1  11   8 1242.59 477.542   4
  -1  11  -8-129.250 308.311  19
   1  11  -8 271.799 447.322  19
  -1  11   8 720.342 478.112  19
   1 -11   8 1988.38 773.700   8
   1  11   8 1405.91 518.921   2
   1  11   8 967.085 579.379  19
   1 -11   8 2215.29 540.903  18
  -1 -11   8 2356.56 834.487   8
  -1  11   9-65.7041 194.840  17
  -1 -11   9 463.511 391.609  16
   1 -11   9 46.1672 155.137  16
  -1 -11   9 1771.23 675.149  14
   1  11  -9-0.41155 216.386   3
  -1 -11  -9 127.444 187.747   1
   1 -11  -9 33.4916 94.7178  14
  -1 -11  -9 83.5998 134.770  14
  -1 -11   9 1268.83 678.361   1
  -1  11   9 337.814 291.627   5
   1 -11  -9 45.7901 227.577   1
   1  11   9 90.7654 256.285   5
   1  11  -9 3084.29 868.662  12
  -1  11   9 101.247 345.645   2
   1  11  -9 5095.60 1297.57  19
  -1  11   9-66.2517 153.406   4
  -1  11  -9-197.594 366.041  19
  -1 -11   9 4768.37 1336.15   8
   1  11   9 86.7057 167.803   4
   1 -11   9-49.6067 162.429   8
  -1  11   9-79.2710 279.721  19
   1  11   9 9.97924 104.654   2
   1 -11   9 95.5187 197.729  18
  -1  11  10 105.812 189.338  17
  -1 -11  10 633.042 349.536  16
   1 -11  10 775.473 400.245  16
  -1 -11  10 712.433 363.308  14
   1 -11 -10 175.407 156.361  14
  -1 -11 -10 71.1603 131.705  14
  -1 -11 -10 224.260 270.757   1
  -1  11  10 595.544 398.290   5
   1  11  10 667.323 425.542   5
   1 -11 -10 314.222 184.943   1
  -1  11  10 730.081 435.283   2
  -1  11  10 578.880 334.778   4
  -1  11 -10-288.862 404.150  19
   1  11 -10 462.198 502.155  19
   1 -11  10 805.899 470.449   8
   1  11  10 526.002 303.895   4
  -1  11  10 161.443 107.479  19
  -1 -11  10 1093.61 622.512   8
   1  11  10 395.651 282.812   2
  -1  11  11-63.1724 180.162  17
  -1 -11  11 148.603 229.152  16
   1 -11  11 34.0713 145.233  16
  -1 -11  11-386.781 293.369  14
   1 -11 -11 83.4872 124.226  14
  -1 -11 -11 78.2136 129.557  14
  -1  11  11 128.185 262.731   5
  -1 -11 -11 146.037 272.796   1
   1  11  11-24.9948 27.6080   5
   1 -11 -11 135.881 254.980   1
  -1  11  11-1.08607 202.505   2
  -1  11 -11 16.2492 33.8896  19
  -1  11  11-53.2556 142.411   4
   1  11 -11 147.463 307.658  19
  -1  11  11-401.155 501.416  19
   1  11  11 42.4790 119.477   2
  -2 -11   0-95.5658 278.410   8
  -2  11   0 15.2252 192.602  17
  -2 -11   0 94.5704 132.969   6
   2 -11   0-73.2561 181.677  14
  -2 -11   0-99.8662 164.781  14
   2  11   0 90.7068 162.810   5
  -2  11   0 309.271 218.466  12
  -2 -11   0 69.2360 91.8855   1
   2  11   0 133.389 242.116   2
   2 -11   0 635.858 410.959  11
   2 -11   0 42.0552 19.3853   1
   2  11   0 27.1177 205.222   4
  -2  11   0 53.2346 144.136  19
   2  11   0-90.0391 274.884  19
   2 -11   0 125.631 314.894   8
   2 -11   0-32.9071 64.1414  18
  -2 -11   1 79.8981 90.4734   8
  -2 -11  -1-31.3646 200.808   8
  -2  11  -1 354.590 356.502  17
  -2  11   1 33.0202 138.305  17
  -2 -11   1 166.845 151.017   6
  -2 -11  -1 146.635 168.744   6
   2 -11   1-37.8099 151.493  14
   2 -11  -1 46.8225 44.7822  14
  -2 -11   1 131.911 132.246  14
  -2 -11  -1 153.926 150.845  14
   2  11  -1 182.024 222.995   5
   2  11   1 218.902 281.187   5
  -2 -11   1 305.976 261.015   1
  -2  11   1-141.235 119.392  12
   2  11  -1 236.259 248.159   2
   2 -11   1 240.751 203.197   1
   2  11  -1-308.352 262.633  12
   2 -11  -1 371.060 339.555  11
   2  11   1 224.020 224.991   2
   2  11  -1 300.999 300.498   4
  -2  11  -1-29.7771 159.524  19
   2 -11  -1 184.159 197.588   1
   2  11   1 305.985 329.407   4
  -2  11   1-47.5574 156.059  19
  -2 -11  -1 236.774 323.137   1
   2  11  -1 124.854 246.611  19
   2  11   1 118.031 207.438  19
   2 -11   1 440.914 385.354   8
   2 -11  -1 123.352 214.062   8
   2 -11   1 222.631 218.282  18
   2 -11  -1 88.3506 193.126  18
  -2  11  -2 177.133 168.732  17
  -2  11   2 112.115 211.635  17
  -2 -11   2-46.1565 107.674   6
  -2 -11  -2-19.8145 51.4636   6
   2 -11   2-37.6231 216.560  14
   2 -11  -2-47.8871 156.709  14
  -2 -11   2-35.4896 123.623  14
  -2 -11  -2 10.2364 29.4653  14
  -2 -11   2 223.886 294.712   1
   2  11  -2 63.4090 137.249   5
   2  11   2-19.4697 132.635   5
   2  11  -2 104.517 260.388   2
   2 -11   2-55.2117 160.201   1
  -2  11   2-146.898 166.732  12
   2  11  -2-142.139 173.464  12
   2 -11  -2-52.0945 126.281  11
   2  11  -2 293.066 344.140   4
  -2  11  -2 247.516 364.931  19
  -2  11   2 281.229 292.784  19
   2  11   2-19.9795 121.145   4
   2  11   2 20.6530 87.2308   2
   2  11  -2-56.7583 177.485  19
   2  11   2-75.2391 217.662  19
   2 -11  -2 28.5779 118.468   1
   2 -11   2 316.281 389.435   8
   2 -11  -2 41.4234 137.604   8
   2 -11   2 30.9611 80.7743  18
   2 -11  -2-17.1702 37.0524  18
  -2 -11  -2 82.6854 189.676   1
  -2 -11   2 40.1905 146.449   8
  -2  11  -3 449.295 337.557  17
  -2  11   3-103.923 202.384  17
  -2 -11  -3 22.1748 64.9771   1
  -2 -11   3 182.965 172.312   6
   2 -11   3 97.9216 73.2626  16
  -2 -11  -3 96.4388 137.919   6
   2 -11   3-92.5829 305.535  14
  -2 -11   3 263.249 288.438   1
   2 -11  -3-20.6277 117.404  14
  -2  11   3-373.486 446.592   5
  -2 -11   3 150.261 153.900  14
  -2 -11  -3 23.7788 29.7650  14
   2  11  -3-18.2133 235.547   2
   2  11  -3-121.070 208.152   5
   2 -11   3-8.32541 134.589   1
   2  11   3 42.0783 93.9160   5
   2  11  -3-268.258 232.954  12
  -2  11   3-251.179 164.847  12
   2  11  -3-13.0447 203.773   4
   2 -11  -3-165.811 239.779  11
  -2  11  -3 4.95341 115.006  19
  -2  11   3 29.9358 126.343  19
   2  11   3 242.733 301.841   4
   2  11  -3 88.9033 166.637  19
   2  11   3-17.0156 98.7563   2
   2  11   3 0.41901 110.022  19
   2 -11   3 227.450 348.770   8
   2 -11  -3 238.306 237.038   1
   2 -11   3 310.020 298.473  18
   2 -11  -3-13.7521 157.746   8
   2 -11  -3-3.54846 179.185  18
  -2 -11   3 117.496 138.785   8
  -2  11  -4 129.115 223.103  17
   2  11  -4-152.913 193.706   3
  -2  11   4-187.132 269.770  17
  -2 -11   4 17.2259 16.5179   6
  -2 -11   4 104.496 159.284   1
   2 -11   4-1.44348 40.8790  16
  -2 -11  -4 88.8274 151.956   1
  -2 -11  -4 18.0062 73.1665   6
   2 -11  -4 23.4341 82.5345  14
  -2 -11   4 91.9994 94.8411  14
  -2  11   4-589.480 387.620   5
  -2 -11  -4 44.3921 133.376  14
  -2  11   4-251.317 476.276   2
   2  11  -4 117.917 259.134   5
   2 -11   4 30.6921 144.517   1
   2 -11  -4 15.0116 14.8547  13
   2  11   4-28.5595 179.979   5
   2  11  -4-58.8932 105.070  12
   2  11  -4-16.6184 122.811   4
   2 -11  -4 213.835 183.841  11
  -2  11  -4-199.230 96.4312  19
  -2  11   4 157.679 327.619  19
   2  11  -4 131.632 251.452  19
   2  11   4-0.29448 62.9311   4
   2  11   4 218.464 334.008  19
   2 -11   4 16.4659 107.753   8
   2  11   4 138.182 155.246   2
   2 -11   4 178.745 305.874  18
   2 -11  -4-54.9996 146.640   8
  -2 -11   4 7.56330 173.993   8
   2 -11  -4 79.6800 134.831  18
   2 -11  -4 36.6568 173.498   1
  -2  11  -5 428.727 385.463  17
  -2 -11   5 1305.52 422.094   6
  -2  11   5-351.117 278.077  17
   2  11  -5-216.182 181.956   3
   2 -11   5 1189.84 332.338  16
   2 -11  -5 1973.10 680.083   1
  -2 -11   5 2490.85 722.334   1
  -2 -11  -5 698.205 301.642   6
   2 -11  -5 349.855 215.751  14
  -2 -11   5 1364.73 466.107  14
   2 -11   5 829.953 387.225   1
  -2 -11  -5 614.979 381.185   1
  -2  11   5 19.9698 308.557   5
  -2 -11  -5 642.784 302.526  14
   2  11  -5 907.532 514.846   5
   2 -11  -5 2314.37 477.186  13
  -2  11   5 859.335 477.073   2
   2  11   5 838.426 487.327   5
   2  11  -5 60.2166 129.772  12
   2  11  -5 170.476 240.919   4
   2 -11  -5 502.714 241.221  11
  -2  11  -5 60.3173 193.560  19
  -2  11   5 789.457 429.785  19
   2  11  -5 854.576 444.063  19
   2  11   5 1220.71 553.312   4
   2 -11   5 1193.56 520.752   8
   2  11   5 1004.86 545.986  19
   2 -11   5 1460.68 514.422  18
   2  11   5 831.625 361.402   2
  -2 -11   5 1118.29 527.544   8
   2 -11  -5 973.358 452.182   8
   2 -11  -5 717.451 333.830  18
  -2  11  -6 388.027 282.431  17
  -2  11   6-61.0286 155.801  17
   2 -11  -6 96.9953 221.988   1
   2  11  -6-91.4753 123.051   3
  -2 -11   6 21.1040 67.6236   6
   2 -11   6 20.1001 67.9713  16
  -2 -11  -6-35.5977 186.212   6
   2 -11  -6-121.031 127.172  14
  -2 -11   6 173.932 217.980  14
   2  11  -6-192.898 330.019   5
  -2  11   6-34.0860 115.923   5
  -2 -11  -6 84.7376 157.594  14
  -2  11   6-205.230 338.964   2
   2 -11  -6-5.03048 63.4610  13
  -2 -11  -6 9.14025 90.4063   1
   2  11   6 76.3043 159.679   5
   2  11  -6-191.061 193.092  12
   2  11  -6-309.974 553.547   4
   2 -11  -6-284.801 354.350  11
  -2  11  -6-81.5566 286.480  19
   2  11  -6-106.176 13.6995  19
  -2  11   6-256.118 259.333  19
   2 -11   6 290.014 369.476   8
   2  11   6 98.3664 159.141   4
   2  11   6-672.268 507.024  19
   2 -11   6-28.2038 89.7136  18
  -2 -11   6 204.099 326.383   8
  -2 -11   6 62.1157 107.236   1
   2  11   6 103.735 202.110   2
   2 -11  -6-169.239 265.656  18
   2 -11  -6-18.4676 206.737   8
  -2  11  -7 226.953 317.160  17
   2 -11  -7 565.715 346.214   8
  -2  11   7 303.962 322.658  17
  -2 -11   7 1126.93 393.711   6
   2 -11  -7 1604.29 634.282   1
   2  11  -7 134.790 229.058   3
  -2 -11   7 2608.14 799.088   1
   2 -11   7 767.262 286.528  16
   2 -11  -7 255.964 172.243  14
  -2 -11   7 1454.93 480.909  14
   2  11  -7-392.378 479.359   5
  -2  11   7 800.738 498.354   5
  -2 -11  -7 432.705 261.386  14
   2 -11  -7 2210.06 483.614  13
  -2  11   7 1186.80 605.450   2
   2  11   7 1184.02 598.937   5
   2  11  -7 155.059 322.164  12
  -2  11   7-43.0068 196.001   4
  -2 -11  -7 306.518 300.082   1
  -2  11  -7-201.626 472.213  19
   2 -11  -7-124.558 365.945  11
   2  11  -7 350.965 364.665  19
  -2  11   7 306.664 251.793  19
   2 -11   7 959.699 524.197   8
   2  11   7 1226.59 540.088   4
   2 -11   7 1185.90 488.916  18
  -2 -11   7 1117.50 513.294   8
   2  11   7 902.421 445.000   2
   2 -11  -7 54.8465 256.517  18
  -2  11  -8 546.672 413.432  17
   2  11   8 89.9835 213.850   2
  -2  11   8-59.8020 143.671  17
  -2 -11   8 980.313 512.588   6
   2 -11  -8 60.2872 53.7158   1
   2 -11   8-69.9702 192.197  16
  -2 -11   8 1621.29 666.980  14
   2 -11  -8 34.7216 81.1796  14
  -2 -11  -8 53.8779 71.6721  14
  -2  11   8 158.343 171.238   5
   2 -11  -8 514.041 345.271  13
  -2  11   8 372.893 391.646   2
   2  11   8 54.9368 127.438   5
   2  11  -8 2997.68 1171.41  19
  -2 -11   8 1744.59 980.059   8
  -2 -11  -8 7.56647 51.7555   1
  -2  11   8-147.711 298.842  19
   2 -11   8 32.1451 101.359   8
   2  11   8-76.3549 127.727   4
   2 -11   8-63.8850 20.9419  18
   2  11  -8 1782.44 671.365   3
  -2  11   9-303.702 270.930  17
  -2 -11   9 704.131 539.554   6
  -2 -11   9 4080.96 1368.02   1
   2 -11  -9 509.305 347.316   1
   2 -11   9-3.28965 267.029  16
  -2 -11   9 289.303 540.527  14
   2 -11  -9 37.3621 53.2540  14
  -2 -11  -9 177.552 141.622  14
  -2  11   9 160.016 259.717   5
   2  11  -9 1917.39 930.406  12
   2  11   9 323.318 322.404   5
  -2  11   9 589.136 450.144   2
  -2  11   9-83.0743 229.042   4
   2  11  -9 4197.71 1355.57  19
  -2  11  -9-1031.08 906.113  19
  -2 -11   9 4174.25 1364.37   8
   2 -11   9 353.814 327.830   8
  -2  11   9 237.813 194.116  19
   2 -11   9 52.3237 336.741  18
  -2 -11  -9 267.466 280.023   1
   2  11  -9 656.564 780.323   3
  -2 -11  10-166.648 219.011   6
  -2  11  10-274.068 260.556  17
  -2 -11  10 17.4100 63.4440  16
   2  11 -10-180.909 188.276   3
   2 -11  10-172.648 329.766  16
   2 -11 -10 117.980 225.006   1
  -2 -11  10-124.615 205.217  14
   2 -11 -10-52.6195 54.0723  14
  -2  11  10-90.4394 190.842   5
  -2 -11  10-12.2797 167.698   1
   2  11 -10-109.067 160.323  12
  -2  11  10 262.449 352.139   2
  -2  11  10-191.480 235.424   4
   2  11 -10-119.656 130.679  19
   2 -11  10 62.4922 184.572   8
  -2  11  10-0.74045 89.4567  19
  -2 -11  10-56.4226 97.9968   8
  -3  11   0 578.487 413.038  17
  -3 -11   0 273.925 94.1597   8
  -3 -11   0 1509.08 501.314   6
  -3 -11   0 1435.74 561.728   1
   3 -11   0 2165.96 766.043   1
  -3 -11   0 1001.91 401.733  14
   3  11   0 1206.98 585.246   5
   3  11   0 1930.58 734.994   4
  -3  11   0 14.8476 82.6474  19
   3  11   0 1371.51 586.237  19
   3 -11   0 1785.54 699.681   8
   3  11   0 1207.61 390.240   2
   3 -11   0 1851.90 660.447  18
  -3 -11   1-56.7441 267.226   8
  -3  11  -1-4.29950 97.8371  17
  -3  11   1 13.9960 33.7601  17
  -3 -11   1 90.9809 166.227   6
  -3 -11  -1-31.0780 95.5846   6
  -3 -11  -1 7.51750 150.033   1
  -3 -11   1 44.3875 91.5361  14
  -3 -11  -1 14.9047 113.952  14
   3 -11   1 65.7852 93.9939   1
   3  11  -1 114.697 237.168   5
   3  11   1-74.4177 73.4911   5
   3 -11  -1-60.4021 130.240   1
  -3  11  -1-155.662 260.222  19
  -3  11   1 280.012 356.382  19
   3  11  -1 206.593 303.482   4
   3  11  -1-0.09191 110.716   2
   3  11   1 112.800 150.821   4
   3  11  -1 26.5193 172.237  19
   3  11   1-17.7627 175.436  19
   3 -11   1 29.1252 92.8730   8
   3 -11  -1 220.191 329.304   8
   3 -11   1 177.176 272.165  18
   3 -11  -1 207.682 277.460  18
  -3 -11   1 64.9818 94.7664   1
   3  11   1 52.6157 79.2389   2
   3  11   2 193.467 143.653   2
  -3 -11   2 134.473 157.230   8
  -3  11  -2 383.730 332.052  17
  -3  11   2 211.779 305.074  17
  -3 -11   2 646.497 364.649   6
  -3 -11  -2 261.332 196.535   6
  -3 -11   2 417.493 266.328  14
  -3 -11  -2 281.082 243.695  14
   3 -11   2 341.542 249.053   1
  -3 -11  -2 425.827 348.228   1
   3  11  -2 601.640 455.756   5
   3  11   2 475.564 347.878   5
  -3  11   2 114.573 107.102  12
   3 -11  -2 670.222 420.589   1
   3  11  -2-302.660 278.719  12
   3  11  -2 699.175 310.966   2
  -3 -11   2 599.355 378.342   1
  -3  11  -2-1.07220 134.708  19
   3  11  -2 550.311 345.107   4
  -3  11   2-278.539 176.786  19
   3  11  -2 122.081 75.1862  19
   3  11   2 413.604 353.066   4
   3 -11   2 619.863 401.635   8
   3  11   2 377.488 364.636  19
   3 -11  -2 581.699 370.804   8
   3 -11   2 437.916 283.020  18
   3 -11  -2 375.483 200.813  18
  -3 -11   3-72.5178 278.558   8
  -3  11  -3 354.019 340.778  17
   3  11   3-7.21534 90.5692   2
  -3  11   3 30.6679 23.7472  17
  -3 -11   3 130.000 98.5257   6
  -3 -11  -3 118.843 108.464   6
   3 -11   3-28.8819 387.033   1
  -3 -11   3 66.3473 74.1452  14
  -3 -11  -3 35.9840 81.3544  14
   3  11  -3 153.672 281.352   5
   3  11   3 161.306 230.855   5
  -3 -11   3 90.3884 181.148   1
   3  11  -3 202.297 170.501   2
  -3  11   3 17.1461 59.4537  12
  -3 -11  -3 11.5225 98.8881   1
   3  11  -3-147.025 189.034  12
   3 -11  -3 743.690 473.527  11
   3 -11  -3 118.969 177.420   1
  -3  11  -3-213.802 416.473  19
   3  11  -3 54.5984 242.300   4
  -3  11   3 270.281 385.398  19
   3  11  -3 10.9333 134.899  19
   3 -11   3 198.720 332.464   8
   3  11   3 144.776 215.516   4
   3  11   3 10.0419 5.69558  19
   3 -11  -3 130.345 210.956   8
   3 -11   3 228.706 293.696  18
   3 -11  -3-10.0582 142.723  18
  -3 -11   4 125.560 207.136   8
  -3  11  -4-51.3813 95.8070  17
   3  11   4 12.9614 53.2307   2
  -3  11   4 219.578 253.817  17
  -3 -11   4 262.513 233.879   6
   3 -11  -4-128.344 212.705  14
  -3 -11   4 59.4739 106.740  14
  -3 -11  -4 177.948 200.804  14
  -3 -11   4 222.203 300.276   1
   3  11  -4 95.9838 186.899   5
   3  11   4 128.184 212.697   5
   3  11  -4-138.811 230.724  12
   3 -11  -4 79.8218 127.640  11
   3  11  -4 253.971 309.443   4
  -3  11  -4-307.145 639.688  19
   3 -11  -4 59.8400 82.2101   1
  -3  11   4 203.323 235.720  19
   3  11  -4-77.3338 323.213  19
   3 -11   4 39.0658 288.605   8
  -3 -11  -4 53.7998 224.221   1
   3  11   4 80.7319 142.329  19
   3  11   4-71.2512 87.2613   4
   3 -11   4 221.633 279.516  18
   3 -11  -4 270.778 239.743   8
   3 -11  -4 128.846 203.318  18
  -3  11  -5 355.034 322.324  17
   3  11  -5-182.239 239.511   3
  -3 -11  -5 67.4674 214.171   1
  -3  11   5-23.1502 152.109  17
  -3 -11   5 408.332 267.094   6
   3 -11  -5-111.511 227.268  14
  -3 -11   5 619.963 342.192   1
  -3 -11   5 302.590 229.071  14
  -3 -11  -5 121.975 200.954  14
   3  11  -5 367.266 383.224   5
   3 -11  -5 142.769 185.959  13
   3  11   5 161.727 245.423   5
   3  11  -5-243.327 235.022  12
   3 -11  -5 397.011 374.984  11
   3  11  -5 155.942 208.940   4
  -3  11  -5-693.366 802.116  19
  -3  11   5 298.586 377.051  19
   3  11  -5-37.6196 222.157  19
   3 -11   5 70.8363 154.995   8
   3 -11  -5 241.901 225.982   1
   3  11   5 284.939 159.333   4
   3 -11   5 315.607 296.278  18
   3 -11  -5 397.958 260.428   8
   3 -11  -5 251.870 202.904  18
  -3 -11   5-20.6508 137.204   8
   3  11  -6 75.5221 43.6128   3
  -3  11   6-224.200 334.846  17
  -3 -11   6 545.885 345.966   6
  -3 -11   6 741.883 396.057   1
  -3 -11  -6 171.644 305.996   1
   3 -11  -6-60.4458 135.133  14
  -3 -11   6 308.260 207.096  14
  -3  11   6-232.614 529.941   2
   3  11  -6 536.134 378.934   5
  -3 -11  -6 205.620 244.370  14
   3 -11  -6 883.785 303.364  13
   3  11   6 353.800 366.259   5
   3  11  -6-149.601 195.285  12
   3  11  -6 440.951 395.706   4
   3 -11  -6 318.857 225.961  11
  -3  11   6 132.586 178.476  19
   3 -11   6 355.581 333.918   8
   3  11  -6 31.4678 87.9340  19
   3 -11   6 172.636 183.812  18
   3 -11  -6 475.779 321.969   1
   3 -11  -6 358.538 220.767   8
   3 -11  -6 271.063 223.923  18
  -3 -11   6 307.463 242.669   8
  -3 -11   7 843.522 646.178   1
  -3  11   7-495.082 356.327  17
   3  11  -7 63.7584 235.594   3
  -3 -11   7 126.529 99.6684   6
   3 -11  -7-72.2074 128.599  14
  -3 -11   7 604.444 409.984  14
   3  11  -7 343.995 370.516   5
  -3  11   7 110.410 127.414   2
   3 -11  -7 435.235 198.952  13
   3  11  -7 1662.88 730.166  12
   3  11  -7-52.5953 177.678   4
   3 -11  -7-67.1852 154.739  11
  -3  11   7-314.506 347.872  19
   3 -11   7-137.228 417.443   8
   3  11  -7 392.980 457.683  19
   3 -11   7-497.416 684.514  18
   3 -11  -7 147.068 245.525   1
  -3 -11   7 21.8754 203.368   8
   3 -11  -7 256.742 258.918  18
   3 -11  -7 71.1424 94.6525   8
   3 -11  -8-19.1819 223.650   8
  -3  11   8-34.1283 139.903  17
   3  11  -8 1057.51 573.709   3
  -3 -11   8 215.080 330.929   6
  -3 -11   8 3798.88 1221.51   1
   3 -11  -8-0.47829 40.7450  14
  -3 -11   8-103.743 211.439  14
  -3  11   8-301.112 399.042   5
   3  11  -8 236.671 265.240   5
  -3  11   8 166.408 162.079   2
   3 -11  -8 286.448 189.975  13
   3  11  -8 2518.15 873.083  12
   3  11  -8-185.005 376.632   4
   3  11  -8 1678.22 837.359  19
   3 -11  -8-52.4739 291.578  11
   3 -11   8-91.7479 521.425   8
  -3  11   8-73.8632 42.1228  19
  -3 -11   8 858.390 579.067   8
   3 -11  -8 106.180 197.276  18
   3 -11  -8 406.179 321.773   1
   3 -11  -9-182.801 392.180   8
   3 -11  -9 11.2928 76.6138   1
  -3  11   9-194.065 263.494  17
  -3 -11   9-132.514 213.019   6
   3  11  -9-35.8284 118.783   3
   3 -11  -9-58.1909 150.430  14
  -3 -11   9-166.310 242.557  14
   3  11  -9-407.527 618.731   5
  -3  11   9-154.637 323.522   5
  -3  11   9 107.851 217.815   2
   3 -11  -9 62.9485 116.410  13
   3  11  -9-124.784 167.463  12
   3 -11  -9-570.401 412.689  11
  -3 -11   9 352.577 356.902   1
   3 -11   9-662.564 794.016   8
   3  11  -9 227.017 274.563  19
  -3  11   9-41.5370 166.750  19
  -3 -11   9-104.408 150.009   8
   3 -11  -9-105.623 252.606  18
   3 -11 -10 110.913 186.562   1
  -3  11  10 9.98545 100.727  17
  -3 -11  10 116.774 188.335   6
   3  11 -10-24.5374 178.228   3
   3 -11 -10-5.21261 45.5633  14
  -3 -11  10 114.802 193.105  14
  -3  11  10-121.363 251.397   5
   3 -11 -10 116.599 224.508  13
   3  11 -10-672.673 460.518  12
  -3 -11  10-9.85839 42.2067   1
   3  11 -10-90.5215 151.587  19
  -3  11  10-57.3590 252.131  19
  -4  11   0-104.394 216.912  17
   4  11   0-7.11543 178.777   2
  -4 -11   0 203.902 192.089   6
   4 -11   0 50.3492 204.162   1
  -4 -11   0 268.141 275.383  14
   4  11   0 380.538 358.039   5
  -4 -11   0 135.951 270.487   1
  -4  11   0 6.61958 249.906  19
   4 -11   0 375.254 304.259   8
   4  11   0 126.154 171.700   4
   4  11   0 99.1231 145.031  19
   4 -11   0 450.068 366.448  18
  -4  11  -1 207.459 285.291  17
  -4  11   1 306.346 313.283  17
   4  11  -1 672.244 238.983   2
   4 -11  -1 1808.43 715.075   1
  -4 -11   1 1361.28 542.924   6
  -4 -11  -1 799.261 413.719   6
   4 -11   1 780.586 426.645   1
  -4 -11   1 1155.07 471.016  14
  -4 -11  -1 965.630 454.056  14
  -4 -11   1 1046.93 485.184   1
   4  11  -1 1777.92 714.025   5
   4  11   1 1522.63 638.564   5
  -4  11  -1-381.452 658.467  19
  -4  11   1 407.091 459.119  19
   4 -11   1 1375.05 576.780   8
   4  11  -1 1687.44 749.366   4
   4 -11  -1 1821.15 644.989   8
   4  11  -1 1247.97 630.475  19
   4  11   1 1162.65 544.761  19
   4  11   1 1856.70 769.765   4
   4 -11   1 1980.73 718.720  18
  -4 -11  -1 664.104 408.547   1
   4 -11  -1 1789.03 664.082  18
  -4  11  -2 212.412 258.559  17
  -4  11   2 139.800 228.921  17
  -4 -11  -2 36.4431 100.277   1
  -4 -11   2 77.4025 154.372   1
  -4 -11   2 125.229 190.349   6
  -4 -11   2 50.9237 143.202  14
  -4 -11  -2 268.309 259.700  14
   4 -11  -2-123.324 226.769   1
   4  11  -2 7.90044 111.076   5
   4  11   2 231.826 261.816   5
  -4  11  -2-899.963 859.161  19
  -4  11   2 256.885 366.659  19
   4  11  -2 448.150 441.506   4
   4 -11   2 56.4458 152.333   8
   4  11  -2 16.5049 103.278  19
   4 -11  -2 32.9041 137.611   8
   4  11   2-65.7253 250.652  19
   4  11   2 20.9591 103.790   4
   4 -11   2 252.848 317.497  18
   4 -11  -2 175.278 246.608  18
   4  11  -2 7.64891 145.125   2
  -4  11  -3 467.039 402.485  17
  -4 -11   3 395.661 366.202   1
  -4 -11   3-245.503 290.031   8
  -4  11   3 179.911 277.649  17
  -4 -11   3 389.415 288.508   6
  -4 -11   3 231.300 188.838  14
   4  11  -3 441.485 316.799   5
   4 -11  -3 332.433 226.675   1
  -4  11   3 92.8736 136.883  19
   4  11  -3 501.692 392.510   4
   4 -11   3 33.4997 216.812   8
   4  11  -3 155.844 182.784  19
   4 -11  -3 563.538 403.699   8
   4 -11   3 305.124 177.911  18
   4 -11  -3 267.844 285.535  18
  -4 -11   4 141.520 121.280   8
  -4  11   4 135.467 281.200  17
  -4 -11   4 636.071 372.401   6
  -4 -11   4 336.891 263.098  14
   4  11  -4 761.078 529.604   5
   4 -11  -4 633.881 403.502   1
   4  11  -4-304.383 290.018  12
  -4  11   4 45.1201 195.591  19
   4  11  -4 661.023 440.759   4
  -4 -11   4 720.175 458.400   1
   4 -11   4-14.0519 413.730   8
   4  11  -4 144.673 183.799  19
   4 -11  -4 736.174 390.120   8
   4 -11   4-3.89925 392.940  18
   4 -11  -4 421.520 264.145  18
  -4 -11   5 123.866 235.722   8
  -4  11   5-122.379 275.630  17
  -4 -11   5 201.980 255.216   6
  -4 -11   5 212.843 266.770  14
   4  11  -5 234.350 255.275   5
  -4 -11   5 90.0611 171.209   1
   4 -11  -5 37.1617 18.4387   1
   4  11  -5 45.5479 158.200  12
   4  11  -5 62.6147 143.203   4
  -4  11   5 166.453 238.238  19
   4 -11   5-526.412 661.456   8
   4  11  -5 151.311 99.6072  19
   4 -11   5-412.701 642.312  18
   4 -11  -5 58.8518 46.6120   8
   4 -11  -5-1.21375 44.0330  18
  -4 -11   6 377.798 170.517   8
   4  11  -6-202.298 284.762   3
  -4  11   6 1046.28 633.732  17
  -4 -11   6 764.211 370.731   6
  -4 -11   6 663.488 344.801  14
  -4 -11   6 1331.11 585.242   1
   4  11  -6 581.297 475.036   5
   4 -11  -6-80.7776 400.073  13
   4  11  -6-17.6309 128.000  12
   4 -11  -6 887.737 451.664   1
   4 -11  -6 1185.28 648.465  11
   4  11  -6 546.276 426.368   4
  -4  11   6 530.370 461.373  19
   4 -11   6-787.314 918.368   8
   4  11  -6 89.3601 48.8113  19
   4 -11  -6 521.841 312.773   8
   4 -11  -6 475.389 348.466  18
  -4 -11   7-115.370 276.765   8
   4  11  -7-268.231 240.801   3
  -4  11   7 145.524 305.472  17
  -4 -11   7 111.375 290.058   6
  -4 -11   7 897.710 487.372   1
  -4 -11   7 87.1514 218.511  14
   4  11  -7-4.16982 137.649   5
   4 -11  -7 20.1696 155.970  13
   4  11  -7-100.131 212.138  12
   4 -11  -7-225.509 390.835  11
   4  11  -7 22.2477 139.872   4
   4 -11  -7-49.0000 206.871   1
   4 -11   7-794.976 1126.77   8
  -4  11   7 495.335 435.693  19
   4  11  -7-82.5735 221.630  19
   4 -11  -7 214.225 266.020   8
   4 -11  -7-76.3270 105.347  18
  -4  11   8 279.427 326.685  17
   4  11  -8 0.11901 149.160   3
  -4 -11   8 508.082 264.540   1
  -4 -11   8 277.568 137.839   6
  -4 -11   8 342.772 233.192  14
  -4  11   8-673.802 841.368   2
   4  11  -8 547.054 451.850   5
   4 -11  -8 348.483 214.572  13
   4  11  -8-52.3102 229.519  12
   4  11  -8 43.7913 162.870   4
   4 -11  -8 427.049 258.226  11
   4 -11  -8 156.276 94.1432   1
  -4  11   8 115.467 134.829  19
   4  11  -8 63.0583 149.600  19
   4 -11  -8 224.896 234.083  18
   4 -11  -8 356.059 284.401   8
  -4 -11   8 72.1662 222.948   8
  -4 -11   9 258.700 266.860   1
  -4  11   9-648.422 435.471  17
   4  11  -9-111.340 157.611   3
  -4 -11   9 152.802 294.240   6
  -4 -11   9 41.4335 60.9080  14
   4  11  -9-10.1786 60.3605   5
   4 -11  -9 54.0455 136.998  13
   4  11  -9 137.816 253.055  12
  -4  11   9-21.6824 104.934  19
   4  11  -9 120.287 208.466  19
   4 -11  -9 41.6146 130.555   1
   4 -11  -9-182.816 279.067  18
  -4 -11   9-29.9693 154.458   8
   4 -11  -9-33.8738 199.929   8
  -5  11   0 569.424 494.380  17
   5  11   0 504.911 425.150   5
   5 -11   0 891.204 486.814   8
   5  11   0 260.299 253.862  19
   5  11   0 605.599 395.052   4
   5 -11   0 1137.57 618.729  18
  -5  11  -1 432.298 379.688  17
  -5  11   1 149.381 152.433  17
  -5 -11   1 241.121 236.625   1
  -5 -11   1 96.6430 211.381   6
   5 -11  -1-140.488 405.255   1
  -5 -11   1 227.512 275.930  14
   5  11  -1 417.136 359.744   5
  -5  11   1-840.111 709.277  19
   5 -11   1-24.9335 370.021   8
   5 -11  -1 516.403 380.508   8
   5  11  -1 6.50254 276.579  19
   5  11  -1 683.754 490.186   4
   5 -11   1 484.066 373.531  18
   5 -11  -1 589.767 445.653  18
  -5  11   2 211.661 401.012  17
  -5 -11   2 517.709 412.285   6
   5 -11  -2 345.853 155.049   1
  -5 -11   2 471.897 381.860  14
   5  11  -2 942.974 554.594   5
  -5  11   2-137.598 296.678  19
  -5 -11   2 485.786 305.240   1
   5 -11   2-34.9677 587.468   8
   5 -11  -2 888.017 449.663   8
   5  11  -2 942.550 574.844   4
   5  11  -2 204.686 265.546  19
   5 -11   2 254.965 266.617  18
   5 -11  -2 1159.83 553.573  18
  -5  11   3 429.657 519.298  17
  -5 -11   3 399.154 323.370   6
   5 -11  -3 135.400 75.4220   1
  -5 -11   3 425.684 362.690  14
  -5 -11   3 174.196 276.987   1
   5  11  -3 618.177 443.426   5
  -5  11   3 45.7699 210.668  19
   5  11  -3 968.066 650.360   4
   5 -11  -3 423.139 289.077   8
   5  11  -3 323.301 255.044  19
   5 -11   3-383.493 734.671  18
   5 -11  -3 530.517 368.027  18
  -5  11   4 194.744 384.470  17
  -5 -11   4 55.7051 206.649   6
  -5 -11   4-40.2364 102.945   1
  -5 -11   4 25.4436 147.832  14
   5 -11  -4-56.5541 241.738   1
   5  11  -4-79.6972 268.471   5
  -5  11   4 224.455 314.471  19
   5  11  -4 218.825 349.179   4
   5  11  -4-5.61626 136.438  19
   5 -11  -4 250.846 309.278   8
   5 -11  -4 298.671 382.776  18
  -5 -11   5-48.6979 268.094   8
  -5  11   5 408.197 461.629  17
  -5 -11   5 657.918 355.902   1
  -5 -11   5 332.096 290.980   6
  -5 -11   5 531.511 352.585  14
   5 -11  -5 494.514 348.506   1
   5  11  -5 778.942 520.551   5
   5  11  -5-459.175 378.308  12
  -5  11   5 379.381 390.227  19
   5  11  -5 666.915 506.498   4
   5  11  -5 309.776 304.435  19
   5 -11  -5 779.280 422.568   8
   5 -11  -5 885.603 521.655  18
  -5 -11   6-293.226 320.495   8
  -5  11   6 109.330 319.956  17
  -5 -11   6 371.843 364.000   6
  -5 -11   6 255.770 268.366  14
   5  11  -6 406.254 408.284   5
   5 -11  -6 160.344 187.852   1
   5  11  -6-23.2990 188.780  12
  -5  11   6 357.982 322.221  19
   5  11  -6 122.458 263.843   4
  -5 -11   6 144.273 155.452   1
   5  11  -6-123.575 266.014  19
   5 -11  -6 327.265 301.393   8
   5 -11  -6-79.6644 105.607  18
  -5 -11   7 478.809 378.137   8
  -5  11   7 27.3091 124.631  17
  -5 -11   7 1106.04 515.582   6
  -5 -11   7 1042.19 469.618  14
   5  11  -7 1508.98 721.142   5
  -5 -11   7 1540.63 558.784   1
   5 -11  -7 691.797 450.555   1
   5  11  -7 266.420 268.165  12
   5  11  -7 1083.33 675.734   4
  -5  11   7 12.6244 115.115  19
   5  11  -7 246.897 258.961  19
   5 -11  -7 1108.15 502.819   8
   5 -11  -7 710.355 457.549  18
   6 -11   0-344.247 805.612   8
   6 -11   0 465.329 297.469  18
  -6  11   1 262.522 473.226  17
   6 -11  -1-391.783 564.508   8
   6 -11  -1 236.405 348.328  18
  -6  11   2-107.161 169.482  17
   6 -11  -2 171.177 196.173   8
   6 -11  -2 435.407 351.888  18
  -6  11   3 53.7369 224.430  17
  -6 -11   3-28.1244 209.627   1
  -6 -11   3 257.551 446.628   6
  -6 -11   3 80.9030 318.413  14
   6  11  -3 181.987 354.468   5
  -6  11   3-1145.45 780.805  19
   6 -11  -3 143.323 215.127   8
   6  11  -3 203.517 457.684   4
   6  11  -3-393.150 461.199  19
   6 -11  -3 38.4977 253.921  18
  -6  11   4 346.193 453.523  17
  -6 -11   4 435.027 465.101   6
   6 -11  -4-244.055 414.191   1
  -6 -11   4 312.921 322.767  14
   6  11  -4 722.325 548.334   5
  -6  11   4-365.912 452.920  19
   6 -11  -4 514.032 316.420   8
   6  11  -4 495.575 448.919   4
   6  11  -4 262.701 156.127  19
  -6 -11   4 308.425 295.796   1
   6 -11  -4 586.432 505.944  18
  -6  11   5 391.631 531.006  17
  -6 -11   5 184.128 256.699   6
   6 -11  -5-228.527 421.853   1
  -6 -11   5 65.9089 206.861  14
  -6 -11   5-3.79879 214.486   1
   6  11  -5 431.708 426.224   5
  -6  11   5-21.8430 104.794  19
   6  11  -5 504.888 537.880   4
   6 -11  -5 332.960 328.070   8
   6  11  -5-5.33330 238.596  19
   6 -11  -5 477.039 453.141  18
   0 -12   0 734.079 398.823   1
   0  12   0-209.774 207.580  17
   0 -12   0 159.721 91.1938   6
   0 -12   0 273.783 227.815  14
   0  12   0 186.108 247.327   5
   0  12   0-199.017 185.926  12
   0  12   0 83.5222 271.173  19
   0 -12   0 490.132 302.735   8
   0 -12   1-106.119 176.765   6
   0  12  -1-120.737 150.834  17
   0  12   1-123.958 177.318  17
   0 -12  -1-60.3322 94.7835   6
   0 -12  -1-142.836 231.552   1
   0 -12   1-33.0485 145.461  14
   0 -12  -1-102.113 132.255  14
   0  12  -1-306.856 373.076   5
   0  12   1 35.2952 11.4310   5
   0  12   1-81.7841 297.793   2
   0  12  -1-100.480 130.695  12
   0  12   1-372.408 262.694  12
   0  12   1-221.420 376.896   4
   0  12  -1-70.4338 272.993  19
   0  12   1-136.035 279.016  19
   0 -12   1 28.2967 290.343   8
   0 -12  -1-66.1940 186.946   8
   0 -12   1-6.91591 90.1514   1
   0 -12   2 163.173 76.3406   6
   0  12   2-65.7862 105.504  17
   0 -12  -2 495.567 201.273   6
   0 -12  -2 894.989 492.044   1
   0 -12   2 709.062 348.544  14
   0 -12  -2 466.680 271.118  14
   0  12  -2-198.459 549.262   5
   0  12   2 579.585 415.916   5
   0  12   2 604.725 381.895   2
   0  12  -2 339.283 251.811  12
   0  12   2 122.364 86.7523   4
   0  12  -2 225.481 381.986  19
   0  12   2 376.226 253.588  19
   0 -12   2 1053.91 523.423   1
   0 -12   2 735.481 384.225   8
   0 -12  -2 326.539 227.480   8
   0 -12  -3-87.3932 215.036   8
   0 -12   3-95.3707 144.217   6
   0  12  -3 233.438 226.147  17
   0  12   3-25.9879 83.5755  17
   0 -12  -3-0.56429 60.6410   6
   0 -12  -3 60.1982 154.939   1
   0 -12   3 105.643 138.287  14
   0 -12  -3-8.99363 97.8820  14
   0  12  -3-538.708 617.670   5
   0  12   3-71.2484 84.9078   5
   0 -12  -3 8.20812 47.9275  13
   0  12   3 19.3237 211.517   2
   0  12  -3 222.043 276.755  12
   0  12   3 40.3601 66.8993   4
   0  12  -3 228.275 438.528  19
   0  12   3-43.8236 148.614  19
   0 -12   3 89.6508 153.193   1
   0 -12   3 5.80760 180.081   8
   0  12  -4 2054.71 532.091  17
   0 -12  -4 975.588 519.108   8
   0 -12  -4 2045.54 375.413   6
   0  12   4-156.084 168.910  17
   0 -12   4 5222.79 1203.52   1
   0 -12  -4 3981.16 966.705   1
   0 -12   4 2540.70 745.738  14
   0 -12  -4 1780.79 517.258  14
   0  12   4 3231.48 830.626   2
   0  12   4 1990.38 736.434   5
   0 -12  -4 5032.74 647.916  13
   0  12  -4 1160.02 546.033  12
   0  12   4 1598.99 655.066   4
   0  12  -4 2557.63 1096.56  19
   0 -12   4 3427.28 1021.37   8
   0  12   4 1371.23 636.248  19
   0 -12   4 1019.68 321.657  18
   0 -12  -5-118.025 452.079   8
   0  12  -5-254.773 154.620  17
   0  12   5-130.068 157.276  17
   0  12  -5 437.956 252.606   3
   0 -12   5-61.2382 134.183  14
   0 -12  -5-29.8731 100.944  14
   0 -12  -5 145.031 257.222   1
   0  12   5 175.185 299.489   5
   0  12  -5 329.952 312.658  12
   0  12   5 253.183 366.971   2
   0 -12   5 190.445 311.774   1
   0  12   5 84.0607 226.957   4
   0  12  -5 445.634 351.545  19
   0  12   5-148.185 206.767  19
   0 -12   5 34.8702 339.301   8
   0 -12  -6 320.217 388.098   8
   0  12  -6-192.102 217.233  17
   0 -12   6 6496.37 1372.73   1
   0  12  -6-121.813 121.789   3
   0 -12  -6 3693.28 956.664   1
   0 -12   6 3774.13 895.724  14
   0 -12  -6 2042.33 504.128  14
   0  12   6 3210.65 894.206   5
   0  12   6 4951.71 1044.46   2
   0  12   6 3093.00 824.287   4
   0  12   6 2582.44 871.931  19
   0 -12   6 5202.25 1222.63   8
   0  12  -6 114.494 328.364  19
   0 -12   6 1610.50 369.485  18
   0  12   7-173.718 188.472  17
   0  12  -7 554.046 306.663   3
   0 -12   7-96.0708 261.075  14
   0 -12  -7-23.2039 74.8400  14
   0  12   7-33.3304 57.6433   5
   0 -12   7-79.6932 264.907   1
   0 -12  -7 81.3730 207.027   1
   0  12   7-30.2398 35.0513   2
   0  12   7 69.3992 222.529   4
   0  12  -7 229.718 389.418  19
   0  12   7 72.3103 68.1829  19
   0 -12   7 57.1961 204.433   8
   0 -12   8 3633.33 989.733   1
   0 -12   8 3251.29 865.736  14
  -1  12   0 179.962 215.657  17
   1  12   0-167.123 163.166  17
  -1 -12   0 46.8119 86.4503   6
  -1 -12   0 79.6157 169.289   1
   1 -12   0-69.6007 147.716  14
  -1 -12   0 7.40922 64.0244  14
  -1  12   0-614.065 676.642   5
   1  12   0 145.788 340.363   5
   1  12   0 270.003 328.371   2
  -1  12   0 44.8575 143.169  12
   1  12   0 143.069 255.724   4
  -1  12   0 39.2939 318.050  19
   1  12   0-255.852 321.028  19
   1 -12   0-11.8332 87.7461   1
   1 -12   0 235.681 331.990   8
   1 -12   0-182.530 257.920  18
  -1 -12   0 30.2817 103.134   8
  -1 -12  -1-56.3036 237.945   8
  -1  12  -1-82.6633 172.381  17
  -1  12   1-363.373 260.927  17
   1  12  -1-223.141 202.775  17
   1  12   1-165.804 154.096  17
  -1 -12   1 230.830 167.335   6
  -1 -12  -1 205.013 169.990   6
  -1 -12   1 323.525 293.022   1
   1 -12   1 185.169 168.428  14
   1 -12  -1 12.4246 110.907  14
  -1 -12   1 209.480 179.307  14
  -1 -12  -1 378.493 331.811   1
  -1 -12  -1 139.526 79.5229  14
  -1  12   1-187.048 436.934   5
   1  12  -1-19.6146 345.301   2
   1  12  -1 49.8159 145.955   5
   1  12   1 208.667 324.997   5
   1  12   1 293.046 316.064   2
  -1  12  -1-16.6704 67.0943  12
  -1  12   1-204.561 173.312  12
   1  12  -1-138.615 168.482  12
   1  12  -1-32.3760 195.994   4
   1  12   1 335.480 326.620   4
   1 -12   1-315.365 334.267  11
  -1  12  -1-29.1007 288.792  19
  -1  12   1-54.5271 208.964  19
   1 -12   1 398.194 350.722   1
   1  12  -1-29.1605 215.194  19
   1  12   1 61.0056 146.200  19
   1 -12   1 376.457 349.645   8
   1 -12  -1-63.8331 271.942   8
   1 -12  -1 324.775 306.416   1
   1 -12   1 31.3191 113.404  18
  -1 -12   1 89.4034 117.602   8
   1 -12  -1-122.185 299.972  18
   1 -12  -2 185.811 315.057   1
  -1 -12  -2-90.7943 368.239   8
  -1  12  -2-46.9124 168.098  17
  -1  12   2 967.225 440.344  17
  -1 -12   2 78.9350 217.450   1
   1  12  -2-29.8511 95.6375  17
   1  12   2-176.673 197.604  17
  -1 -12   2-98.2530 122.494   6
  -1 -12  -2-44.5564 73.9181   6
   1 -12   2-109.626 141.586  14
   1 -12  -2-58.1814 97.1464  14
  -1 -12   2-46.7578 135.338  14
  -1 -12  -2 66.4839 157.723  14
  -1  12   2-165.576 248.463   5
  -1  12   2-509.891 599.176   2
   1  12  -2-33.2484 167.304   5
  -1 -12  -2 77.2648 259.386   1
   1  12   2 393.862 339.683   5
  -1  12  -2 133.099 158.568  12
   1  12   2 165.845 248.960   2
   1  12  -2-314.712 289.028  12
   1  12  -2-261.164 413.896   4
   1 -12   2-103.922 216.788   1
   1  12   2 121.351 268.178   4
   1 -12   2-256.156 257.104  11
  -1  12  -2-167.927 260.556  19
  -1  12   2 784.930 583.289  19
   1  12  -2 57.3879 359.835  19
   1  12   2-101.744 303.207  19
   1 -12   2 24.5730 167.566   8
   1 -12  -2-222.920 336.598   8
  -1 -12   2-85.7656 202.565   8
   1 -12   2-73.2747 188.087  18
   1 -12  -2-184.347 359.876  18
  -1 -12   3 2244.51 736.652   1
  -1 -12  -3 281.116 115.808   8
  -1 -12  -3 1285.99 351.216   6
  -1  12  -3-240.681 261.912  17
  -1  12   3 159.625 215.707  17
   1  12  -3 161.342 95.1025  17
  -1 -12   3 1027.65 343.216   6
   1  12   3-29.4345 83.5715  17
   1 -12   3 2298.41 821.785   1
   1 -12  -3 2170.78 740.176   1
   1 -12   3 1017.04 466.684  14
   1 -12  -3 611.565 291.082  14
  -1 -12   3 1126.26 451.508  14
  -1 -12  -3 909.493 365.428  14
   1  12  -3 592.713 472.563   5
  -1  12   3 385.078 312.718   5
  -1  12   3 766.820 413.969   2
   1  12   3 1010.39 590.595   5
   1 -12  -3 1216.86 289.957  13
  -1 -12  -3 1487.18 601.755   1
  -1  12  -3 363.603 232.228  12
   1  12  -3-240.276 268.750  12
   1  12   3 1585.21 572.279   2
   1  12  -3-246.736 533.890   4
   1 -12   3 1099.78 355.357  11
   1  12   3 892.678 491.894   4
  -1  12  -3 168.748 326.588  19
   1  12  -3 1268.84 787.938  19
  -1  12   3 804.527 501.399  19
   1  12   3 732.504 437.018  19
   1 -12   3 1666.17 717.205   8
  -1 -12   3 950.706 487.381   8
   1 -12   3 1015.57 443.306  18
   1 -12  -3 730.403 404.182   8
   1 -12  -3-3.37777 382.280  18
   1  12  -4-255.559 185.732   3
  -1  12  -4-225.755 231.885  17
  -1  12   4-42.4655 107.627  17
  -1 -12   4-25.7856 95.5977   6
   1  12  -4 352.676 160.284  17
   1  12   4-217.567 209.680  17
   1 -12  -4-43.5910 35.0310   1
  -1 -12  -4-50.2605 41.6961   6
   1 -12   4-109.309 221.748  14
   1 -12  -4 26.5333 46.9037  14
  -1 -12   4 5.90183 8.88033  14
  -1 -12  -4-34.9533 53.5249  14
   1  12  -4-509.626 518.830   5
  -1  12   4-90.7521 292.944   5
   1  12   4 95.4531 232.488   5
  -1  12   4 111.995 168.927   2
   1 -12  -4-31.6306 119.926  13
  -1  12  -4 839.769 420.516  12
   1 -12   4-99.7286 261.892   1
   1  12  -4 404.041 332.416  12
  -1 -12  -4 10.8364 55.5426   1
  -1  12   4-373.761 447.408   4
   1  12   4 201.892 286.540   2
   1 -12   4-266.560 195.400  11
   1  12   4-39.4001 91.6948   4
  -1  12  -4 384.880 392.764  19
  -1  12   4-108.711 187.619  19
   1  12   4 26.9812 120.099  19
   1 -12   4 294.284 390.691   8
  -1 -12   4-64.7313 295.367   1
  -1 -12   4 89.5203 179.683   8
   1 -12   4-50.7640 206.598  18
   1 -12  -4-35.6739 292.160   8
   1 -12  -5 1213.99 549.935   8
  -1 -12   5 2198.86 563.598   6
  -1  12  -5-228.396 193.907  17
  -1 -12  -5 2685.85 494.937   6
  -1  12   5-18.6515 89.0667  17
   1  12  -5 284.309 216.635   3
   1  12  -5 292.598 210.749  17
   1 -12   5 3458.13 1033.65   1
  -1 -12   5 5120.68 1203.95   1
   1 -12  -5 3791.05 963.800   1
   1 -12   5 1620.53 576.568  14
  -1 -12   5 2689.98 731.666  14
  -1 -12  -5 1292.42 446.163  14
   1 -12  -5 1210.00 394.631  14
   1  12   5 3086.11 822.131   2
   1  12  -5-106.736 472.058   5
  -1  12   5 1641.23 678.212   5
   1 -12  -5 4518.88 643.435  13
   1  12   5 2071.27 771.700   5
  -1  12   5 2042.60 696.598   2
   1  12  -5 885.652 500.576  12
   1  12   5 2218.73 719.519   4
  -1  12   5 654.621 295.339   4
  -1 -12  -5 2062.55 687.384   1
   1  12  -5 2543.60 1022.82  19
   1 -12   5 3217.67 971.609   8
  -1  12  -5 382.076 467.895  19
  -1 -12   5 2593.46 889.132   8
  -1  12   5 1016.03 549.333  19
   1  12   5 1483.29 748.704  19
   1 -12   5 2375.52 588.937  18
   1 -12  -6-146.506 331.304   8
  -1  12  -6 35.1203 56.0502  17
  -1 -12   6-260.629 261.876   6
  -1  12   6-91.9375 141.220  17
   1  12  -6-105.227 130.161   3
   1 -12  -6-105.217 281.488   1
   1 -12   6-129.900 361.474  14
  -1 -12   6-135.321 218.562  14
   1 -12  -6 27.1493 86.7484  14
  -1 -12  -6-13.1658 55.5435  14
  -1  12   6 15.8795 131.287   5
   1 -12   6 28.4606 166.363   1
   1  12   6 23.2111 131.204   5
   1 -12  -6 353.093 278.005  13
  -1  12   6-33.6872 253.623   2
   1  12  -6 28.6291 103.562  12
  -1  12   6-204.672 253.656   4
  -1 -12   6-75.1488 259.995   1
   1  12   6 84.6054 232.640   2
  -1  12  -6 156.067 325.378  19
   1  12   6 201.174 236.175   4
   1  12  -6-59.8044 224.321  19
  -1 -12  -6 171.374 200.121   1
  -1  12   6-207.350 246.386  19
   1  12   6 8.22544 116.276  19
   1 -12   6 230.998 390.816   8
  -1 -12   6-26.7097 110.470   8
   1 -12   6-51.9537 97.8562  18
   1 -12  -7 893.244 407.298   8
  -1 -12   7 2864.57 633.726   6
  -1  12   7 135.999 166.321  17
   1 -12   7 3026.43 899.270   1
  -1 -12   7 6663.41 1354.72   1
   1  12  -7-13.0003 85.5156   3
   1 -12  -7 4437.13 1021.53   1
   1 -12   7 1928.38 625.215  14
  -1 -12   7 4619.71 992.634  14
   1 -12  -7 1337.19 421.711  14
  -1  12   7 2338.39 804.461   5
  -1  12   7 4277.34 996.583   2
   1  12   7 3469.65 972.870   5
   1  12   7 3936.55 877.885   2
  -1 -12  -7 1332.98 423.901  14
   1  12  -7-88.6143 160.869  12
  -1  12   7 1877.38 611.942   4
   1  12   7 3588.20 936.492   4
   1  12   7 2357.50 950.819  19
   1 -12   7 4851.42 1197.41   8
  -1  12  -7 87.1331 244.770  19
  -1 -12   7 3641.42 1028.35   8
   1  12  -7 6.75126 141.284  19
  -1  12   7 1596.47 702.069  19
   1 -12   7 4123.49 754.662  18
  -1 -12  -7 2055.14 690.088   1
  -1  12  -8 677.943 637.640  19
  -2 -12   0 15.1222 223.246   8
  -2  12   0-105.087 190.703  17
  -2 -12   0 16.7408 82.8524   6
   2 -12   0 221.792 311.866  14
  -2 -12   0-28.2995 62.4062  14
   2  12   0 150.990 311.738   5
  -2 -12   0 179.293 225.825   1
  -2  12   0 194.225 178.744  12
   2  12   0 189.875 284.955   2
   2 -12   0 1223.60 641.914   1
   2 -12   0 972.569 560.789  11
   2  12   0 252.714 292.489   4
  -2  12   0 302.214 464.275  19
   2  12   0-9.13694 204.811  19
   2 -12   0 1438.12 793.083   8
   2 -12   0 435.253 418.061  18
  -2 -12   1-23.2797 322.731   8
  -2 -12  -1-110.830 359.314   8
  -2  12  -1 309.920 265.369  17
  -2  12   1 655.606 365.925  17
  -2 -12   1 121.459 158.839   6
  -2 -12  -1 154.399 172.730   6
   2 -12   1-106.819 285.342  14
   2 -12  -1 62.0972 105.968  14
  -2 -12   1 73.8983 148.632  14
  -2 -12  -1 39.3015 129.010  14
  -2 -12   1 71.9127 159.732   1
   2  12  -1 175.134 282.178   5
   2  12   1 30.4637 146.813   5
   2  12  -1 184.890 297.195   2
  -2  12  -1 169.541 180.368  12
  -2  12   1-48.3295 83.5339  12
   2 -12   1-21.7211 158.681   1
  -2 -12  -1 101.499 308.112   1
   2  12   1 83.3837 313.621   2
   2 -12   1 113.306 217.928  11
   2 -12  -1 413.892 368.919  11
   2  12  -1 199.994 291.584   4
   2  12   1-64.4306 52.5580   4
   2 -12  -1 310.562 362.560   1
  -2  12  -1-160.657 208.037  19
  -2  12   1 216.929 310.983  19
   2  12  -1-11.2739 215.156  19
   2  12   1 40.8485 86.0734  19
   2 -12   1 147.413 269.415   8
   2 -12  -1 424.609 514.990   8
   2 -12   1-44.2414 198.043  18
   2 -12  -1 97.5987 225.902  18
  -2 -12   2-114.315 230.962   8
  -2  12  -2 557.907 441.113  17
  -2  12   2-35.9060 188.209  17
  -2 -12   2 76.3371 94.2456   6
  -2 -12  -2 29.4434 125.024   6
   2 -12   2-110.071 296.710  14
   2 -12  -2-17.1288 127.018  14
  -2 -12   2 215.118 297.925   1
  -2 -12   2 109.550 175.931  14
  -2 -12  -2-25.6571 73.4788  14
   2  12  -2-1.01015 91.3194   5
   2  12   2 532.929 457.760   5
  -2  12  -2 1331.01 454.324  12
   2 -12   2 180.354 294.723   1
  -2  12   2 17.8843 72.2906  12
   2  12  -2-209.064 221.775  12
   2 -12   2 1104.45 527.673  11
   2  12  -2 72.6376 240.638   4
   2  12   2 31.3260 141.007   2
   2 -12  -2-156.785 203.834  11
  -2 -12  -2-49.6970 232.395   1
  -2  12  -2 367.790 488.680  19
   2  12   2 274.832 259.855   4
  -2  12   2 312.658 327.408  19
   2  12  -2 76.7014 168.414  19
   2 -12  -2-146.728 263.246   1
   2  12   2 101.421 113.725  19
   2 -12   2 214.718 314.436   8
   2 -12  -2 201.122 336.678   8
   2 -12   2 103.693 213.381  18
   2 -12  -2-136.954 180.558  18
  -2  12  -3-81.5323 152.784  17
  -2  12   3 437.920 427.240  17
  -2 -12   3 1.24346 105.351   6
  -2 -12   3 33.6852 7.78783   1
  -2 -12  -3 36.6243 107.450   6
   2 -12   3-112.741 349.180  14
   2 -12  -3-57.1136 143.630  14
  -2  12   3-915.949 712.015   5
  -2 -12   3 191.796 226.836  14
  -2 -12  -3-11.4714 33.7556  14
   2  12  -3-57.9226 95.3694   5
   2  12   3 67.9549 227.230   5
   2 -12   3 23.1041 95.2732   1
   2  12  -3-178.256 200.369  12
   2  12  -3 50.4655 113.899   4
   2 -12  -3-191.115 269.339  11
  -2  12  -3 101.052 183.980  19
   2  12   3 179.715 270.841   2
   2  12   3 208.585 301.388   4
  -2  12   3 165.096 439.392  19
   2  12  -3-43.2204 192.075  19
   2  12   3 42.2175 154.757  19
   2 -12   3 225.606 282.568   8
   2 -12  -3-17.8974 129.453   1
  -2 -12  -3 146.235 242.050   1
   2 -12   3 90.6281 145.349  18
   2 -12  -3 147.926 264.210   8
   2 -12  -3-61.9447 192.765  18
  -2 -12   3 136.085 210.137   8
  -2 -12  -4 282.550 238.270   1
  -2  12  -4 376.662 370.499  17
  -2  12   4 37.1711 232.520  17
  -2 -12   4 1664.94 642.857   1
  -2 -12   4 1009.72 392.975   6
  -2 -12  -4 852.392 348.005   6
   2 -12  -4 257.603 191.331  14
  -2 -12   4 998.718 460.277  14
  -2  12   4-502.332 593.823   5
  -2 -12  -4 413.334 288.204  14
  -2  12   4-249.439 631.115   2
   2  12  -4 454.933 425.643   5
   2 -12   4 947.453 516.620   1
   2 -12  -4 277.150 194.377  13
   2  12   4 591.614 447.265   5
   2  12  -4-128.445 190.986  12
   2  12  -4 245.877 180.653   4
   2 -12  -4 132.515 137.203  11
  -2  12  -4 102.611 307.541  19
   2  12   4 923.398 545.210   4
  -2  12   4 78.6673 256.425  19
   2  12   4 810.711 361.905   2
   2  12  -4 392.504 344.692  19
   2  12   4 566.690 323.464  19
   2 -12   4 1481.25 698.205   8
   2 -12   4 1385.41 566.152  18
   2 -12  -4 1547.54 615.543   1
   2 -12  -4 573.374 283.191   8
  -2 -12   4 285.180 196.190   8
   2 -12  -4 436.496 249.749  18
  -2 -12   5 115.882 161.181   1
  -2  12  -5 67.4117 187.313  17
   2  12  -5-158.616 162.203   3
  -2  12   5-124.047 204.562  17
  -2 -12   5 41.7551 51.7953   6
  -2 -12  -5 61.6619 42.1336   1
  -2 -12  -5-61.3034 63.4168   6
   2 -12  -5-60.1099 149.688  14
  -2 -12   5-56.4146 98.2752  14
   2 -12   5-283.731 428.677   1
  -2  12   5-280.537 447.769   5
  -2 -12  -5 44.4072 34.6635  14
   2  12  -5-70.8348 222.310   5
  -2  12   5-227.276 415.179   2
   2 -12  -5-133.018 195.217  13
   2  12   5-226.769 175.667   5
   2  12  -5-23.3593 68.9050  12
   2  12  -5-619.885 562.280   4
  -2  12  -5 375.468 426.883  19
  -2  12   5-8.35908 277.802  19
   2  12  -5 67.0376 39.5903  19
   2  12   5 112.537 232.125   4
   2  12   5-26.9309 151.867   2
   2  12   5-92.1711 206.163  19
   2 -12   5 215.833 396.399   8
   2 -12   5 72.6027 244.618  18
  -2 -12   5-196.910 382.468   8
   2 -12  -5-14.3161 149.812   8
   2 -12  -5-255.450 296.038  18
   2 -12  -5-88.8552 153.980   1
   2 -12  -6 1186.47 552.951   8
  -2  12  -6 804.456 458.157  17
  -2 -12   6 2132.03 585.590   6
  -2  12   6-4.64050 158.165  17
   2  12  -6-258.439 247.772   3
  -2 -12   6 4142.49 988.960   1
   2 -12  -6 2975.54 862.896   1
  -2 -12  -6 1012.27 544.779   1
  -2 -12   6 2044.25 637.400  14
  -2 -12  -6 1289.70 427.298   6
   2 -12  -6 378.274 220.123  14
   2 -12   6 1341.63 568.362   1
   2  12  -6 610.321 314.237   5
  -2  12   6 669.866 339.807   5
  -2 -12  -6 672.250 349.223  14
   2 -12  -6 3530.98 615.823  13
  -2  12   6 985.279 460.189   2
   2  12   6 1743.43 675.865   5
   2  12  -6 187.294 253.769  12
   2  12   6 2207.17 775.029   4
   2 -12  -6-539.753 533.758  11
  -2  12  -6-183.321 308.960  19
   2  12  -6 847.787 481.129  19
  -2  12   6 619.365 346.373  19
   2 -12   6 2673.79 909.021   8
   2  12   6 1104.82 752.222  19
   2  12   6 1701.80 589.618   2
   2 -12   6 2588.89 678.858  18
  -2 -12   6 1385.92 651.279   8
   2 -12  -6 230.831 221.414  18
   2 -12  -7-176.890 363.759   8
  -2  12  -7 75.9892 224.848  17
   2 -12  -7-10.7654 51.8664   1
  -2  12   7-27.4654 168.586  17
  -2 -12   7-67.9599 90.4209   6
   2  12  -7-50.0812 154.822   3
  -2 -12  -7 295.197 282.579   1
   2 -12  -7-8.12947 78.0725  14
  -2 -12   7 80.9592 137.175  14
   2  12  -7-453.706 564.359   5
  -2 -12  -7 25.2971 104.810  14
  -2  12   7 24.9652 187.222   5
  -2  12   7 18.1293 93.9370   2
   2 -12  -7 65.7978 109.027  13
   2  12   7 7.78919 79.6446   5
   2  12  -7-140.193 290.596  12
  -2  12  -7 165.543 268.187  19
   2  12  -7-192.351 283.132  19
  -2 -12   7 137.198 275.970   1
  -2  12   7-31.2992 32.7692  19
   2  12   7 32.6862 162.827   4
   2  12   7-29.2478 47.3917   2
   2 -12   7-11.1669 214.943  18
  -2 -12   7-156.817 279.521   8
  -3 -12   0-212.077 584.927   8
  -3  12   0 73.5545 272.110  17
  -3 -12   0 49.1097 75.1568   6
  -3 -12   0 78.2297 106.221  14
   3  12   0 8.60110 179.176   5
   3 -12   0 19.1133 62.3261   1
  -3  12   0 369.250 466.556  19
   3  12   0 98.1229 219.874   2
   3  12   0 81.8525 208.694   4
   3  12   0-45.7920 81.7784  19
   3 -12   0 385.762 465.060   8
  -3 -12   0 176.286 290.867   1
   3 -12   0 429.673 355.938  18
  -3 -12   1 222.962 202.219   8
  -3  12  -1 403.123 339.305  17
  -3 -12  -1 404.304 344.521   1
  -3  12   1-55.8180 116.418  17
  -3 -12   1 906.237 392.441   6
  -3 -12  -1 567.492 299.543   6
  -3 -12   1 381.941 272.395  14
  -3 -12  -1 352.325 233.366  14
   3 -12   1 668.209 445.209   1
   3  12  -1 791.064 522.131   5
   3  12   1 403.159 367.711   5
  -3  12   1 208.014 163.315  12
   3 -12  -1 944.875 515.190   1
   3 -12  -1 2603.43 867.088  11
  -3 -12   1 623.713 364.909   1
  -3  12  -1 87.9878 248.070  19
   3  12  -1 625.410 467.594   4
  -3  12   1 6.52915 220.789  19
   3  12   1 532.489 387.619   4
   3  12   1 638.278 344.526   2
   3  12  -1 126.014 191.088  19
   3  12   1 264.528 297.446  19
   3 -12   1 744.666 476.627   8
   3 -12  -1 726.497 465.555   8
   3 -12   1 743.328 400.613  18
   3 -12  -1 500.073 309.132  18
  -3 -12   2-152.858 296.193   8
  -3  12  -2 86.9782 172.225  17
  -3  12   2 254.073 256.917  17
  -3 -12  -2-17.3899 22.4590   1
  -3 -12   2 92.2499 125.954   6
  -3 -12  -2 63.5102 160.772   6
   3 -12  -2-160.282 312.028  14
  -3 -12   2 33.5055 104.994  14
  -3 -12  -2 47.7662 187.890  14
   3 -12   2-23.3351 239.335   1
   3  12  -2 357.583 350.054   5
   3  12   2-84.0349 140.602   5
  -3 -12   2 168.540 295.700   1
   3 -12  -2 53.1243 87.2623   1
   3 -12  -2 560.296 410.906  11
   3  12  -2-128.723 193.462   4
  -3  12  -2 122.552 416.573  19
  -3  12   2 124.949 264.761  19
   3  12   2 272.428 355.622   4
   3  12  -2 34.8903 167.725  19
   3  12   2-79.5248 269.226  19
   3 -12   2 33.5562 254.891   8
   3  12   2-68.9152 162.365   2
   3 -12  -2 9.25937 305.351   8
   3 -12   2 157.410 268.386  18
   3 -12  -2 123.965 181.399  18
  -3 -12   3-63.3465 335.053   8
  -3  12  -3 902.583 534.895  17
  -3  12   3-28.1367 81.6696  17
  -3 -12   3 34.9193 133.302   6
  -3 -12  -3 141.430 195.697   6
   3 -12  -3-215.346 294.199  14
  -3 -12  -3-100.128 189.957   1
   3 -12   3-144.717 337.909   1
  -3 -12   3 99.9600 195.917  14
  -3 -12  -3 16.7636 130.016  14
  -3 -12   3-26.2957 143.895   1
   3  12  -3 75.5381 270.593   5
   3  12   3 61.1493 194.675   5
   3  12  -3-223.160 244.350  12
   3 -12  -3-80.9647 287.039   1
   3 -12  -3 285.056 360.057  11
   3  12  -3 31.2532 4.87586   4
  -3  12  -3-85.0167 247.754  19
  -3  12   3 19.0346 106.689  19
   3  12   3 56.1135 146.484   4
   3  12  -3 40.7787 191.691  19
   3 -12   3 158.000 263.772   8
   3  12   3 33.0027 254.801  19
   3 -12  -3-94.4556 215.820   8
   3 -12   3 113.400 282.697  18
   3  12   3 42.9492 167.208   2
   3 -12  -3 54.0674 180.370  18
  -3 -12   4 8.97119 131.399   8
  -3  12  -4 511.513 352.908  17
  -3  12   4 14.9883 129.114  17
  -3 -12   4 23.4421 139.237   6
  -3 -12  -4 94.9717 217.309   6
   3 -12  -4-142.166 247.013  14
   3 -12   4-241.322 473.064   1
  -3 -12   4-34.5699 169.805   1
  -3 -12   4-88.7525 136.495  14
  -3 -12  -4-26.5835 108.130  14
   3  12  -4 1.05363 180.054   5
  -3 -12  -4-59.4018 114.541   1
   3  12   4 187.089 268.988   5
   3  12  -4-211.032 233.787  12
   3 -12  -4 471.073 346.574  11
   3  12  -4-30.3076 149.326   4
  -3  12  -4 118.100 252.656  19
   3 -12  -4 137.000 160.261   1
  -3  12   4-56.1055 133.574  19
   3  12  -4-335.259 314.138  19
   3  12   4 58.4734 83.6725   4
   3 -12   4 0.97234 189.944   8
   3  12   4-59.8757 238.739  19
   3 -12   4 167.109 334.164  18
   3 -12  -4-77.2096 150.186   8
   3 -12  -4 210.164 248.624  18
   3  12   4 29.2556 144.730   2
   3  12   5 298.687 254.202   2
  -3  12  -5 138.530 251.300  17
  -3  12   5 303.298 312.812  17
  -3 -12   5 470.763 272.486   6
  -3 -12   5 738.369 441.533   1
   3 -12  -5-23.5346 206.803  14
  -3 -12   5 493.638 287.818  14
  -3 -12  -5 179.011 242.875  14
   3  12  -5 333.690 356.712   5
   3  12   5 306.194 286.474   5
  -3 -12  -5 154.925 270.327   1
   3  12  -5-415.421 322.824  12
   3  12  -5 252.562 318.462   4
   3 -12  -5 228.496 260.708  11
  -3  12  -5-55.7554 226.591  19
  -3  12   5 43.6295 112.247  19
   3 -12  -5 475.621 320.376   1
   3  12  -5 290.114 232.873  19
   3 -12   5 560.395 405.843   8
   3  12   5 352.692 374.471   4
   3  12   5-95.7716 474.055  19
   3 -12   5 696.133 464.741  18
   3 -12  -5 496.408 293.387   8
   3 -12  -5 340.084 273.470  18
  -3 -12   5 343.447 308.111   8
  -3  12  -6 476.781 362.102  17
   3  12  -6-141.400 209.933   3
  -3  12   6-714.514 438.053  17
  -3 -12   6 86.3353 90.2728   1
  -3 -12   6 0.46107 46.4019   6
   3 -12  -6-89.4338 161.680  14
  -3 -12   6-28.1080 24.0242  14
  -3  12   6-811.719 869.251   2
  -3 -12  -6 245.664 322.250  14
   3  12  -6 59.7336 125.256   5
   3 -12  -6 93.2240 154.304  13
   3  12   6 150.019 247.558   5
   3  12  -6-220.179 234.139  12
   3  12  -6-335.295 410.390   4
  -3 -12  -6 354.467 399.583   1
  -3  12  -6-32.6048 324.459  19
  -3  12   6-7.75161 101.361  19
   3  12  -6 146.989 156.317  19
   3 -12  -6-57.1742 241.155   1
   3 -12   6 35.1549 218.668  18
   3 -12  -6 220.121 242.591   8
   3 -12  -6 27.1978 78.1105  18
  -3 -12   6 139.850 175.533   8
  -4  12   0 181.371 226.145  17
  -4 -12   0 1166.22 484.575   6
  -4 -12   0 543.909 419.106   1
   4 -12   0 1128.93 557.813   1
  -4 -12   0 672.503 400.527  14
   4  12   0 1281.66 625.740   5
  -4  12   0 70.1005 247.799  19
   4  12   0 1757.74 782.956   4
   4  12   0 847.182 457.927  19
   4 -12   0 1678.25 634.683   8
   4 -12   0 1852.94 747.068  18
   4  12   0 1105.93 351.672   2
   4  12   1 10.7652 86.0324   2
  -4  12  -1 531.330 517.750  17
  -4  12   1 396.183 442.216  17
  -4 -12   1-15.3196 6.85245   1
  -4 -12   1 117.451 192.245   6
  -4 -12  -1 74.0586 203.112   6
   4 -12   1-136.408 478.185   1
  -4 -12   1-30.5584 88.6670  14
  -4 -12  -1 14.1340 185.781  14
   4 -12  -1-77.0275 220.545   1
  -4 -12  -1 212.623 297.186   1
   4  12  -1-19.6676 228.857   5
   4  12   1-80.2996 197.653   5
  -4  12  -1 129.518 257.062  19
  -4  12   1 95.0593 305.078  19
   4  12  -1 161.692 267.481   4
   4  12   1 40.1858 262.433   4
   4 -12   1 205.001 334.388   8
   4  12  -1-48.1088 117.468  19
   4  12   1 10.9750 67.8391  19
   4 -12  -1 92.3433 298.271   8
   4 -12   1-40.1917 89.5843  18
   4 -12  -1 5.90994 110.440  18
  -4  12  -2 490.145 476.878  17
  -4 -12   2-614.397 488.255   8
  -4  12   2 35.4802 114.559  17
  -4 -12   2 398.803 305.136   6
  -4 -12  -2 494.192 397.543   6
   4 -12   2-75.0633 400.553   1
  -4 -12   2 337.789 268.815  14
  -4 -12  -2 261.093 258.370  14
   4  12  -2 724.897 503.741   5
   4 -12  -2 396.427 360.363   1
   4  12   2 471.937 419.507   5
  -4 -12  -2 7.73607 44.1592   1
  -4  12  -2 75.5595 131.898  19
  -4  12   2 212.759 236.021  19
   4  12  -2 595.660 473.928   4
   4 -12   2 767.342 525.386   8
   4  12  -2 281.385 224.943  19
   4  12   2 284.180 245.760   4
   4  12   2 287.302 256.776  19
   4 -12  -2 533.643 476.387   8
   4 -12   2 456.493 324.941  18
   4 -12  -2 534.803 415.279  18
  -4 -12   2 298.853 344.448   1
  -4  12  -3 464.772 395.780  17
  -4 -12   3-124.388 372.700   8
  -4  12   3-152.211 132.928  17
  -4 -12   3 125.585 173.449   6
  -4 -12   3 100.296 154.847  14
  -4 -12  -3 288.657 333.963  14
   4  12  -3 310.299 357.048   5
   4 -12  -3 128.915 190.192   1
   4  12   3 53.9415 264.713   5
  -4  12  -3-551.011 721.092  19
  -4 -12   3 43.7643 59.1935   1
  -4  12   3 151.627 234.889  19
   4  12  -3 193.485 296.549   4
   4 -12   3 152.542 222.403   8
   4  12  -3-75.2000 284.829  19
  -4 -12  -3 284.968 399.072   1
   4  12   3 12.7513 90.7530   4
   4 -12  -3 107.177 227.969   8
   4 -12   3 199.304 323.661  18
   4 -12  -3 27.1393 57.2246  18
  -4  12  -4 829.508 556.110  17
  -4 -12   4 10.9333 210.690   8
  -4  12   4-516.252 393.016  17
  -4 -12   4 75.1861 154.751   6
  -4 -12   4 34.8451 112.059  14
   4  12  -4 240.767 406.108   5
   4 -12  -4-18.0038 191.081   1
  -4 -12   4 207.292 248.404   1
   4  12  -4-447.230 367.384  12
  -4  12  -4-744.052 920.133  19
   4  12  -4 40.5391 69.6969   4
  -4  12   4 270.516 201.684  19
   4  12  -4-250.044 278.215  19
   4 -12  -4 164.687 316.139   8
   4 -12   4-98.5159 37.2135  18
   4 -12  -4 121.931 155.762  18
   0   0   0    0.00    0.00   0

TITL HFMOF_7 in P4/mnc
REM P4/mnc (#128 in standard setting)
CELL 0.71073  19.356696  19.356696  32.035599  90.0000  90.0000  90.0000
ZERR   16.00   0.001631   0.001631   0.003588   0.0000   0.0000   0.0000
LATT  1
SYMM -x,-y, z
SYMM -y, x, z
SYMM  y,-x, z
SYMM -x+1/2, y+1/2,-z+1/2
SYMM  x+1/2,-y+1/2,-z+1/2
SYMM  y+1/2, x+1/2,-z+1/2
SYMM -y+1/2,-x+1/2,-z+1/2
SFAC C H O Hf
UNIT 704.00 576.00 128.00 16.00
TREF
HKLF 4
END
;
_shelx_hkl_checksum              45272
_shelx_shelxl_version_number     2014/7
_olex2_submission_special_instructions 'No special instructions were received'
_oxdiff_exptl_absorpt_empirical_details
;
Empirical correction (ABSPACK) includes:
- Absorption correction using spherical harmonics
- Frame scaling
;
_oxdiff_exptl_absorpt_empirical_full_max 2.427
_oxdiff_exptl_absorpt_empirical_full_min 0.489
loop_
_space_group_symop_operation_xyz
'x, y, z'
'-x, -y, z'
'-y, x, z'
'y, -x, z'
'-x+1/2, y+1/2, -z+1/2'
'x+1/2, -y+1/2, -z+1/2'
'y+1/2, x+1/2, -z+1/2'
'-y+1/2, -x+1/2, -z+1/2'
'-x, -y, -z'
'x, y, -z'
'y, -x, -z'
'-y, x, -z'
'x-1/2, -y-1/2, z-1/2'
'-x-1/2, y-1/2, z-1/2'
'-y-1/2, -x-1/2, z-1/2'
'y-1/2, x-1/2, z-1/2'
loop_
_atom_site_label
_atom_site_type_symbol
_atom_site_fract_x
_atom_site_fract_y
_atom_site_fract_z
_atom_site_U_iso_or_equiv
_atom_site_adp_type
_atom_site_occupancy
_atom_site_site_symmetry_order
_atom_site_calc_flag
_atom_site_refinement_flags_posn
_atom_site_refinement_flags_adp
_atom_site_refinement_flags_occupancy
_atom_site_disorder_assembly
_atom_site_disorder_group
Hf1 Hf -0.04027(11) 0.12121(10) 0.0000 0.0336(9) Uani 1 2 d DS TU P . .
Hf2 Hf 0.0000 0.0000 0.07586(8) 0.0316(12) Uani 1 4 d DS TU P . .
O1 O -0.0225(4) 0.09219(19) 0.1092(3) 0.015(5) Uiso 1 1 d D U . . .
O4 O -0.0774(9) 0.0314(9) 0.0364(5) 0.032(6) Uiso 1 1 d . U . . .
O13 O -0.0574(8) 0.1716(5) 0.05840(10) 0.036(6) Uiso 1 1 d D U . . .
O19 O -0.1501(16) 0.1684(15) 0.0000 0.074(11) Uiso 1 2 d S TU P . .
O20 O 0.0164(15) 0.2211(15) 0.0000 0.072(12) Uiso 1 2 d S TU P . .
C3 C -0.06731(2) 0.31328(4) 0.19353(3) 0.056(7) Uiso 1 1 d D U . . .
C4 C -0.08714(7) 0.32407(12) 0.15462(8) 0.087(9) Uiso 1 1 d D U . . .
H4 H -0.1036 0.3681 0.1487 0.104 Uiso 1 1 calc R . . . .
C5 C -0.08653(6) 0.27798(13) 0.12136(7) 0.087(9) Uiso 1 1 d D U . . .
H5 H -0.1015 0.2897 0.0947 0.105 Uiso 1 1 calc R . . . .
C6 C -0.05924(2) 0.20682(5) 0.13251(4) 0.043(7) Uiso 1 1 d D U . . .
C7 C -0.03933(8) 0.19589(12) 0.17148(9) 0.052(8) Uiso 1 1 d D U . . .
H7 H -0.0229 0.1518 0.1773 0.062 Uiso 1 1 calc R . . . .
C8 C -0.03993(6) 0.24187(12) 0.20470(7) 0.065(8) Uiso 1 1 d D U . . .
H8 H -0.0250 0.2302 0.2314 0.078 Uiso 1 1 calc R . . . .
C9 C -0.07357(2) 0.36977(4) 0.22123(2) 0.023(7) Uiso 1 1 d D U . . .
C16 C -0.02279(3) 0.42055(4) 0.22122(3) 0.032(8) Uiso 1 1 d DG U . A -2
C15 C -0.02570(5) 0.47429(5) 0.24999(5) 0.030(11) Uiso 1 2 d DGS TU P A .
C15D C -0.07940(6) 0.47720(8) 0.27872(5) 0.050 Uiso 0 1 d G . . A 3
C9D C -0.13018(5) 0.42643(8) 0.27873(4) 0.050 Uiso 0 1 d DG . . A 3
C10 C -0.12727(3) 0.37273(5) 0.25000(2) 0.038(11) Uiso 1 2 d DGS TU P A .
C11 C -0.17980(4) 0.32020(4) 0.2500 0.102(18) Uiso 1 2 d DS TU P . .
H11A H -0.1879 0.3050 0.2219 0.154 Uiso 0.5 1 calc GR . . A .
H11B H -0.2217 0.3388 0.2614 0.154 Uiso 0.5 1 calc GR . . . .
H11C H -0.1648 0.2818 0.2667 0.154 Uiso 0.5 1 calc GR . . . .
C12 C -0.05609(3) 0.15545(7) 0.10128(5) 0.026(7) Uiso 1 1 d D U . . .
C17 C 0.03179(5) 0.42421(5) 0.19536(3) 0.070(12) Uiso 1 1 d D U . . .
H H 0.0649 0.3895 0.2029 0.105 Uiso 1 1 calc GR . . A .
HA H 0.0527 0.4690 0.1976 0.105 Uiso 1 1 calc GR . . . .
HB H 0.0167 0.4167 0.1672 0.105 Uiso 1 1 calc GR . . . .
loop_
_atom_site_aniso_label
_atom_site_aniso_U_11
_atom_site_aniso_U_22
_atom_site_aniso_U_33
_atom_site_aniso_U_23
_atom_site_aniso_U_13
_atom_site_aniso_U_12
Hf1 0.0364(17) 0.0291(17) 0.0355(17) 0.000 0.000 0.0066(16)
Hf2 0.0319(15) 0.0319(15) 0.031(2) 0.000 0.000 0.000
loop_
_atom_type_symbol
_atom_type_description
_atom_type_scat_dispersion_real
_atom_type_scat_dispersion_imag
_atom_type_scat_source
C C 0.0033 0.0016 'International Tables Vol C Tables 4.2.6.8 and 6.1.1.4'
H H 0.0000 0.0000 'International Tables Vol C Tables 4.2.6.8 and 6.1.1.4'
Hf Hf -0.5830 6.1852 'International Tables Vol C Tables 4.2.6.8 and 6.1.1.4'
O O 0.0106 0.0060 'International Tables Vol C Tables 4.2.6.8 and 6.1.1.4'
loop_
_exptl_crystal_face_index_h
_exptl_crystal_face_index_k
_exptl_crystal_face_index_l
_exptl_crystal_face_perp_dist
-1 -5 3 0.0283
2 1 -5 0.0459
5 0 4 0.0262
-1 5 2 0.0790
-2 2 5 0.0744
0 5 -1 0.0726
2 2 -5 0.0534
1 -5 -3 0.0252
2 -2 -5 0.0267
-5 0 -4 0.0262
-2 -1 5 0.0558
loop_
_geom_angle_atom_site_label_1
_geom_angle_atom_site_label_2
_geom_angle_atom_site_label_3
_geom_angle
_geom_angle_site_symmetry_1
_geom_angle_site_symmetry_3
Hf1 Hf1 Hf1 90.0 3 11
Hf2 Hf1 Hf1 59.72(2) 9 3
Hf2 Hf1 Hf1 59.72(2) . 11
Hf2 Hf1 Hf1 59.72(2) 9 11
Hf2 Hf1 Hf1 59.72(2) . 3
Hf2 Hf1 Hf2 89.01(8) 9 .
O4 Hf1 Hf1 35.9(5) 4 11
O4 Hf1 Hf1 86.1(5) 4 3
O4 Hf1 Hf1 86.4(4) . 11
O4 Hf1 Hf1 86.4(4) 10 11
O4 Hf1 Hf1 32.1(4) . 3
O4 Hf1 Hf1 35.9(5) 11 11
O4 Hf1 Hf1 32.1(4) 10 3
O4 Hf1 Hf1 86.1(5) 11 3
O4 Hf1 Hf2 84.9(5) 10 .
O4 Hf1 Hf2 88.0(5) 11 .
O4 Hf1 Hf2 31.6(5) 11 9
O4 Hf1 Hf2 31.6(5) 4 .
O4 Hf1 Hf2 84.9(5) . 9
O4 Hf1 Hf2 34.1(4) . .
O4 Hf1 Hf2 88.0(5) 4 9
O4 Hf1 Hf2 34.1(4) 10 9
O4 Hf1 O4 71.3(10) 4 11
O4 Hf1 O4 63.6(9) . 10
O4 Hf1 O4 65.4(9) 11 10
O4 Hf1 O4 65.4(9) 4 .
O4 Hf1 O4 101.5(9) 4 10
O4 Hf1 O4 101.5(9) 11 .
O4 Hf1 O13 144.3(7) 11 .
O4 Hf1 O13 77.9(6) 11 10
O4 Hf1 O13 77.9(6) 4 .
O4 Hf1 O13 144.3(7) 4 10
O4 Hf1 O19 90.7(8) . .
O4 Hf1 O19 143.5(5) 4 .
O4 Hf1 O19 90.7(8) 10 .
O4 Hf1 O19 143.5(5) 11 .
O4 Hf1 O20 147.5(5) 10 .
O4 Hf1 O20 91.5(8) 4 .
O4 Hf1 O20 147.5(5) . .
O4 Hf1 O20 91.5(8) 11 .
O13 Hf1 Hf1 109.8(3) 10 3
O13 Hf1 Hf1 110.1(4) 10 11
O13 Hf1 Hf1 110.1(4) . 11
O13 Hf1 Hf1 109.8(3) . 3
O13 Hf1 Hf2 74.3(3) . .
O13 Hf1 Hf2 74.3(3) 10 9
O13 Hf1 Hf2 163.4(3) 10 .
O13 Hf1 Hf2 163.4(3) . 9
O13 Hf1 O4 140.4(6) . 10
O13 Hf1 O4 81.2(5) . .
O13 Hf1 O4 140.4(6) 10 .
O13 Hf1 O4 81.2(5) 10 10
O13 Hf1 O13 122.3(5) . 10
O13 Hf1 O19 71.2(5) . .
O13 Hf1 O19 71.2(5) 10 .
O13 Hf1 O20 71.3(4) . .
O13 Hf1 O20 71.3(4) 10 .
O19 Hf1 Hf1 176.6(7) . 11
O19 Hf1 Hf1 86.6(7) . 3
O19 Hf1 Hf2 118.3(4) . 9
O19 Hf1 Hf2 118.3(4) . .
O20 Hf1 Hf1 177.0(8) . 3
O20 Hf1 Hf1 87.0(8) . 11
O20 Hf1 Hf2 118.5(5) . .
O20 Hf1 Hf2 118.5(5) . 9
O20 Hf1 O19 96.3(10) . .
Hf1 Hf2 Hf1 60.57(4) 3 9
Hf1 Hf2 Hf1 90.99(8) 9 .
Hf1 Hf2 Hf1 60.57(4) 9 11
Hf1 Hf2 Hf1 60.57(4) 11 .
Hf1 Hf2 Hf1 90.99(8) 3 11
Hf1 Hf2 Hf1 60.57(4) 3 .
O1 Hf2 Hf1 165.2(2) 4 3
O1 Hf2 Hf1 74.8(2) . .
O1 Hf2 Hf1 113.7(2) 2 11
O1 Hf2 Hf1 165.2(2) . 9
O1 Hf2 Hf1 165.2(2) 3 11
O1 Hf2 Hf1 165.2(2) 2 .
O1 Hf2 Hf1 113.7(2) . 3
O1 Hf2 Hf1 74.8(2) 2 9
O1 Hf2 Hf1 74.8(2) 4 11
O1 Hf2 Hf1 113.7(2) 4 .
O1 Hf2 Hf1 107.6(2) 4 9
O1 Hf2 Hf1 74.8(2) 3 3
O1 Hf2 Hf1 113.7(2) 3 9
O1 Hf2 Hf1 107.6(2) 2 3
O1 Hf2 Hf1 107.6(2) . 11
O1 Hf2 Hf1 107.6(2) 3 .
O1 Hf2 O1 75.4(2) . 4
O1 Hf2 O1 75.4(2) 4 2
O1 Hf2 O1 75.4(2) 3 2
O1 Hf2 O1 75.4(2) . 3
O1 Hf2 O1 119.6(5) . 2
O1 Hf2 O1 119.6(5) 4 3
O4 Hf2 Hf1 86.2(5) . 9
O4 Hf2 Hf1 30.8(5) 4 .
O4 Hf2 Hf1 30.8(5) 3 9
O4 Hf2 Hf1 89.8(5) 3 .
O4 Hf2 Hf1 37.2(5) . .
O4 Hf2 Hf1 37.2(5) 2 9
O4 Hf2 Hf1 37.2(5) 3 3
O4 Hf2 Hf1 86.2(5) 4 3
O4 Hf2 Hf1 30.8(5) . 3
O4 Hf2 Hf1 86.2(5) 2 .
O4 Hf2 Hf1 89.8(5) . 11
O4 Hf2 Hf1 86.2(5) 3 11
O4 Hf2 Hf1 37.2(5) 4 11
O4 Hf2 Hf1 89.8(5) 4 9
O4 Hf2 Hf1 89.8(5) 2 3
O4 Hf2 Hf1 30.8(5) 2 11
O4 Hf2 O1 149.5(5) 2 3
O4 Hf2 O1 149.5(5) . 4
O4 Hf2 O1 75.9(5) 4 .
O4 Hf2 O1 75.9(5) 3 2
O4 Hf2 O1 149.5(5) 3 .
O4 Hf2 O1 135.1(5) 3 4
O4 Hf2 O1 84.9(5) 2 2
O4 Hf2 O1 75.9(5) . 3
O4 Hf2 O1 84.9(5) . .
O4 Hf2 O1 84.9(5) 4 4
O4 Hf2 O1 84.9(5) 3 3
O4 Hf2 O1 135.1(5) 4 3
O4 Hf2 O1 135.1(5) 2 .
O4 Hf2 O1 75.9(5) 2 4
O4 Hf2 O1 149.5(5) 4 2
O4 Hf2 O1 135.1(5) . 2
O4 Hf2 O4 104.0(10) 3 4
O4 Hf2 O4 67.7(5) 3 .
O4 Hf2 O4 67.7(5) 3 2
O4 Hf2 O4 67.7(5) 4 .
O4 Hf2 O4 104.0(10) 2 .
O4 Hf2 O4 67.7(5) 4 2
C12 O1 Hf2 137.2(6) . .
Hf1 O4 Hf1 112.0(8) 3 .
Hf1 O4 Hf2 117.6(9) 3 .
Hf2 O4 Hf1 108.7(7) . .
C12 O13 Hf1 138.5(6) . .
C4 C3 C8 117.79(15) . .
C4 C3 C9 116.44(12) . .
C9 C3 C8 125.78(11) . .
C3 C4 H4 115.9 . .
C3 C4 C5 128.3(2) . .
C5 C4 H4 115.9 . .
C4 C5 H5 123.1 . .
C4 C5 C6 113.90(18) . .
C6 C5 H5 123.1 . .
C7 C6 C5 117.93(15) . .
C7 C6 C12 122.90(13) . .
C12 C6 C5 119.17(12) . .
C6 C7 H7 115.9 . .
C6 C7 C8 128.2(2) . .
C8 C7 H7 115.9 . .
C3 C8 H8 123.1 . .
C7 C8 C3 113.90(18) . .
C7 C8 H8 123.1 . .
C16 C9 C3 119.1 . .
C16 C9 C10 120.0 . .
C10 C9 C3 120.8 . .
C9 C16 C15 120.0 . .
C17 C16 C9 126.38(7) . .
C17 C16 C15 113.62(7) . .
C16 C15 C15 120.02(8) . 2_565
C9 C10 C9 120.1 . 7_455
C9 C10 C11 120.0 . .
C9 C10 C11 119.96(5) 7_455 .
C10 C11 H11A 109.5 . .
C10 C11 H11B 109.5 . .
C10 C11 H11C 109.5 . .
H11A C11 H11B 109.5 . .
H11A C11 H11C 109.5 . .
H11B C11 H11C 109.5 . .
O1 C12 C6 120.3(4) . .
O13 C12 O1 112.1(6) . .
O13 C12 C6 122.2(4) . .
C16 C17 H 109.5 . .
C16 C17 HA 109.5 . .
C16 C17 HB 109.5 . .
H C17 HA 109.5 . .
H C17 HB 109.5 . .
HA C17 HB 109.5 . .
loop_
_geom_bond_atom_site_label_1
_geom_bond_atom_site_label_2
_geom_bond_distance
_geom_bond_site_symmetry_2
Hf1 Hf1 3.496(3) 11
Hf1 Hf1 3.496(3) 3
Hf1 Hf2 3.467(2) .
Hf1 Hf2 3.467(2) 9
Hf1 O4 2.002(17) 11
Hf1 O4 2.002(17) 4
Hf1 O4 2.213(17) 10
Hf1 O4 2.213(17) .
Hf1 O13 2.136(6) .
Hf1 O13 2.136(6) 10
Hf1 O19 2.31(3) .
Hf1 O20 2.22(3) .
Hf2 Hf1 3.467(2) 11
Hf2 Hf1 3.467(2) 3
Hf2 Hf1 3.467(2) 9
Hf2 O1 2.125(6) .
Hf2 O1 2.125(6) 4
Hf2 O1 2.125(6) 2
Hf2 O1 2.125(6) 3
Hf2 O4 2.051(17) 4
Hf2 O4 2.051(17) 3
Hf2 O4 2.051(17) .
Hf2 O4 2.051(17) 2
O1 C12 1.410(5) .
O4 Hf1 2.002(17) 3
O13 C12 1.409(4) .
C3 C4 1.321(3) .
C3 C8 1.523(2) .
C3 C9 1.4134(12) .
C4 H4 0.9300 .
C4 C5 1.390(3) .
C5 H5 0.9300 .
C5 C6 1.518(3) .
C6 C7 1.324(3) .
C6 C12 1.4117(18) .
C7 H7 0.9300 .
C7 C8 1.387(3) .
C8 H8 0.9300 .
C9 C16 1.3900 .
C9 C10 1.3902 .
C16 C15 1.3910 .
C16 C17 1.3444(11) .
C15 C15 1.4074(16) 2_565
C10 C9 1.3904(13) 7_455
C10 C11 1.4379(13) .
C11 H11A 0.9600 .
C11 H11B 0.9600 .
C11 H11C 0.9600 .
C17 H 0.9600 .
C17 HA 0.9600 .
C17 HB 0.9600 .
loop_
_geom_torsion_atom_site_label_1
_geom_torsion_atom_site_label_2
_geom_torsion_atom_site_label_3
_geom_torsion_atom_site_label_4
_geom_torsion
_geom_torsion_site_symmetry_4
Hf1 O13 C12 O1 14.7(17) .
Hf1 O13 C12 C6 168.8(10) .
Hf2 O1 C12 O13 -23.8(10) .
Hf2 O1 C12 C6 -178.5(4) .
C3 C4 C5 C6 0.0(2) .
C3 C9 C16 C15 -176.01(7) .
C3 C9 C16 C17 3.99(9) .
C3 C9 C10 C9 175.94(10) 7_455
C3 C9 C10 C11 -4.06(7) .
C4 C3 C8 C7 0.00(14) .
C4 C3 C9 C16 -80.95(8) .
C4 C3 C9 C10 103.06(9) .
C4 C5 C6 C7 0.00(15) .
C4 C5 C6 C12 180.00(9) .
C5 C6 C7 C8 0.0(2) .
C5 C6 C12 O1 171.4(3) .
C5 C6 C12 O13 19.3(8) .
C6 C7 C8 C3 0.0(2) .
C7 C6 C12 O1 -8.6(4) .
C7 C6 C12 O13 -160.7(8) .
C8 C3 C4 C5 0.01(18) .
C8 C3 C9 C16 99.04(8) .
C8 C3 C9 C10 -76.94(7) .
C9 C3 C4 C5 -179.99(12) .
C9 C3 C8 C7 180.00(9) .
C9 C16 C15 C15 -179.99(11) 2_565
C16 C9 C10 C9 -0.01(9) 7_455
C16 C9 C10 C11 179.99(5) .
C10 C9 C16 C15 0.0 .
C10 C9 C16 C17 180.00(6) .
C12 C6 C7 C8 180.00(12) .
C17 C16 C15 C15 0.01(11) 2_565
loop_
_exptl_oxdiff_crystal_face_indexfrac_h
_exptl_oxdiff_crystal_face_indexfrac_k
_exptl_oxdiff_crystal_face_indexfrac_l
_exptl_oxdiff_crystal_face_x
_exptl_oxdiff_crystal_face_y
_exptl_oxdiff_crystal_face_z
-1.0041 -4.9925 2.9907 -0.0093 -0.1540 0.1236
1.9929 0.9974 -4.9978 0.0121 -0.0024 -0.1366
4.9648 -0.0121 3.9634 0.2022 -0.0133 -0.0076
-0.9872 4.9937 2.0087 -0.0009 0.1914 0.0028
-1.9880 1.9983 5.0025 -0.0064 0.1075 0.1060
0.0089 4.9934 -0.9898 -0.0012 0.1703 -0.0697
1.9945 1.9960 -4.9963 0.0141 0.0326 -0.1468
0.9880 -4.9931 -3.0064 -0.0098 -0.1963 -0.0215
1.9880 -1.9983 -5.0025 0.0064 -0.1075 -0.1060
-4.9648 0.0121 -3.9634 -0.2022 0.0133 0.0076
-1.9929 -0.9974 4.9978 -0.0121 0.0024 0.1366
